MODEL 1
REMARK VINA RESULT:   -30.985      0.000      0.000
REMARK INTER + INTRA:         -34.437
REMARK INTER:                 -33.669
REMARK INTRA:                  -0.767
REMARK CONF_INDEPENDENT:        2.685
REMARK UNBOUND:                -0.767
REMARK  9 active torsions:
REMARK  status: ('A' for Active; 'I' for Inactive)
REMARK       I    between atoms: C1_2  and  N1_3 
REMARK       I    between atoms: C1_2  and  N2_13 
REMARK    1  A    between atoms: N1_3  and  C2_4 
REMARK    2  A    between atoms: C2_4  and  C3_5 
REMARK    3  A    between atoms: C3_5  and  C4_6 
REMARK    4  A    between atoms: C4_6  and  O2_7 
REMARK    5  A    between atoms: O2_7  and  C5_8 
REMARK    6  A    between atoms: N2_13  and  N3_14 
REMARK    7  A    between atoms: N3_14  and  C10_15 
REMARK    8  A    between atoms: C13_18  and  O3_19 
REMARK    9  A    between atoms: O3_19  and  C14_20 
ROOT
ATOM      1  O1  NON d   1     -48.251  17.255  -4.054  0.00  0.00    -0.253 OA
ATOM      2  C1  NON d   1     -47.949  16.258  -4.703  0.00  0.00     0.308 C 
ATOM      3  N1  NON d   1     -48.358  14.979  -4.397  0.00  0.00    -0.347 N 
ATOM      4  N2  NON d   1     -47.111  16.293  -5.811  0.00  0.00    -0.172 NA
ATOM      5  H1  NON d   1     -48.578  14.414  -5.205  0.00  0.00     0.163 HD
ATOM      6  H17 NON d   1     -46.486  15.496  -5.859  0.00  0.00     0.152 HD
ENDROOT
BRANCH   4   7
ATOM      7  N3  NON d   1     -46.422  17.523  -5.942  0.00  0.00    -0.219 NA
ATOM      8  H18 NON d   1     -46.378  17.819  -6.925  0.00  0.00     0.147 HD
BRANCH   7   9
ATOM      9  C10 NON d   1     -45.201  17.663  -5.253  0.00  0.00     0.023 A 
ATOM     10  C11 NON d   1     -44.610  16.507  -4.719  0.00  0.00     0.027 A 
ATOM     11  C12 NON d   1     -43.318  16.520  -4.180  0.00  0.00     0.039 A 
ATOM     12  C13 NON d   1     -42.571  17.694  -4.193  0.00  0.00     0.078 A 
ATOM     13  C15 NON d   1     -43.152  18.856  -4.703  0.00  0.00     0.039 A 
ATOM     14  C16 NON d   1     -44.447  18.839  -5.240  0.00  0.00     0.027 A 
BRANCH  12  15
ATOM     15  O3  NON d   1     -41.284  17.840  -3.763  0.00  0.00    -0.255 OA
BRANCH  15  16
ATOM     16  C14 NON d   1     -41.084  18.322  -2.445  0.00  0.00     0.530 C 
ATOM     17  F1  NON d   1     -40.173  17.571  -1.791  0.00  0.00    -0.144 F 
ATOM     18  F2  NON d   1     -42.255  18.238  -1.774  0.00  0.00    -0.144 F 
ATOM     19  F3  NON d   1     -40.694  19.615  -2.436  0.00  0.00    -0.144 F 
ENDBRANCH  15  16
ENDBRANCH  12  15
ENDBRANCH   7   9
ENDBRANCH   4   7
BRANCH   3  20
ATOM     20  C2  NON d   1     -49.141  14.775  -3.188  0.00  0.00     0.126 C 
BRANCH  20  21
ATOM     21  C3  NON d   1     -50.574  15.299  -3.302  0.00  0.00     0.046 C 
BRANCH  21  22
ATOM     22  C4  NON d   1     -50.826  16.504  -2.395  0.00  0.00     0.169 C 
BRANCH  22  23
ATOM     23  O2  NON d   1     -52.017  17.196  -2.776  0.00  0.00    -0.386 OA
BRANCH  23  24
ATOM     24  C5  NON d   1     -53.164  16.890  -1.980  0.00  0.00     0.121 C 
ATOM     25  C6  NON d   1     -53.205  17.768  -0.721  0.00  0.00     0.032 C 
ATOM     26  C7  NON d   1     -54.348  18.752  -0.929  0.00  0.00     0.002 C 
ATOM     27  C8  NON d   1     -55.320  18.012  -1.828  0.00  0.00     0.002 C 
ATOM     28  C9  NON d   1     -54.417  17.252  -2.786  0.00  0.00     0.032 C 
ENDBRANCH  23  24
ENDBRANCH  22  23
ENDBRANCH  21  22
ENDBRANCH  20  21
ENDBRANCH   3  20
TORSDOF 9
ENDMDL
MODEL 2
REMARK VINA RESULT:   -29.655      4.344      9.969
REMARK INTER + INTRA:         -33.019
REMARK INTER:                 -32.340
REMARK INTRA:                  -0.679
REMARK CONF_INDEPENDENT:        2.685
REMARK UNBOUND:                -0.679
REMARK  9 active torsions:
REMARK  status: ('A' for Active; 'I' for Inactive)
REMARK       I    between atoms: C1_2  and  N1_3 
REMARK       I    between atoms: C1_2  and  N2_13 
REMARK    1  A    between atoms: N1_3  and  C2_4 
REMARK    2  A    between atoms: C2_4  and  C3_5 
REMARK    3  A    between atoms: C3_5  and  C4_6 
REMARK    4  A    between atoms: C4_6  and  O2_7 
REMARK    5  A    between atoms: O2_7  and  C5_8 
REMARK    6  A    between atoms: N2_13  and  N3_14 
REMARK    7  A    between atoms: N3_14  and  C10_15 
REMARK    8  A    between atoms: C13_18  and  O3_19 
REMARK    9  A    between atoms: O3_19  and  C14_20 
ROOT
ATOM      1  O1  NON d   1     -44.599  16.349  -4.919  0.00  0.00    -0.253 OA
ATOM      2  C1  NON d   1     -45.120  17.347  -5.409  0.00  0.00     0.308 C 
ATOM      3  N1  NON d   1     -44.577  18.612  -5.358  0.00  0.00    -0.347 N 
ATOM      4  N2  NON d   1     -46.359  17.329  -6.040  0.00  0.00    -0.172 NA
ATOM      5  H1  NON d   1     -44.714  19.151  -6.202  0.00  0.00     0.163 HD
ATOM      6  H17 NON d   1     -46.916  18.154  -5.840  0.00  0.00     0.152 HD
ENDROOT
BRANCH   4   7
ATOM      7  N3  NON d   1     -47.076  16.130  -5.812  0.00  0.00    -0.219 NA
ATOM      8  H18 NON d   1     -47.534  15.805  -6.673  0.00  0.00     0.147 HD
BRANCH   7   9
ATOM      9  C10 NON d   1     -47.904  16.071  -4.673  0.00  0.00     0.023 A 
ATOM     10  C11 NON d   1     -47.574  16.884  -3.577  0.00  0.00     0.027 A 
ATOM     11  C12 NON d   1     -48.433  17.027  -2.480  0.00  0.00     0.039 A 
ATOM     12  C13 NON d   1     -49.664  16.380  -2.472  0.00  0.00     0.078 A 
ATOM     13  C15 NON d   1     -49.997  15.553  -3.546  0.00  0.00     0.039 A 
ATOM     14  C16 NON d   1     -49.135  15.410  -4.641  0.00  0.00     0.027 A 
BRANCH  12  15
ATOM     15  O3  NON d   1     -50.623  16.476  -1.506  0.00  0.00    -0.255 OA
BRANCH  15  16
ATOM     16  C14 NON d   1     -51.773  17.251  -1.800  0.00  0.00     0.530 C 
ATOM     17  F1  NON d   1     -52.861  16.464  -1.941  0.00  0.00    -0.144 F 
ATOM     18  F2  NON d   1     -51.569  17.899  -2.968  0.00  0.00    -0.144 F 
ATOM     19  F3  NON d   1     -52.010  18.180  -0.848  0.00  0.00    -0.144 F 
ENDBRANCH  15  16
ENDBRANCH  12  15
ENDBRANCH   7   9
ENDBRANCH   4   7
BRANCH   3  20
ATOM     20  C2  NON d   1     -43.339  18.802  -4.619  0.00  0.00     0.126 C 
BRANCH  20  21
ATOM     21  C3  NON d   1     -42.225  17.847  -5.052  0.00  0.00     0.046 C 
BRANCH  21  22
ATOM     22  C4  NON d   1     -40.881  18.560  -5.217  0.00  0.00     0.169 C 
BRANCH  22  23
ATOM     23  O2  NON d   1     -40.320  18.308  -6.507  0.00  0.00    -0.386 OA
BRANCH  23  24
ATOM     24  C5  NON d   1     -39.559  19.391  -7.047  0.00  0.00     0.121 C 
ATOM     25  C6  NON d   1     -39.422  19.256  -8.571  0.00  0.00     0.032 C 
ATOM     26  C7  NON d   1     -40.294  20.349  -9.172  0.00  0.00     0.002 C 
ATOM     27  C8  NON d   1     -40.292  21.447  -8.125  0.00  0.00     0.002 C 
ATOM     28  C9  NON d   1     -40.338  20.690  -6.808  0.00  0.00     0.032 C 
ENDBRANCH  23  24
ENDBRANCH  22  23
ENDBRANCH  21  22
ENDBRANCH  20  21
ENDBRANCH   3  20
TORSDOF 9
ENDMDL
MODEL 3
REMARK VINA RESULT:   -29.216      4.098      9.551
REMARK INTER + INTRA:         -32.738
REMARK INTER:                 -31.901
REMARK INTRA:                  -0.837
REMARK CONF_INDEPENDENT:        2.685
REMARK UNBOUND:                -0.837
REMARK  9 active torsions:
REMARK  status: ('A' for Active; 'I' for Inactive)
REMARK       I    between atoms: C1_2  and  N1_3 
REMARK       I    between atoms: C1_2  and  N2_13 
REMARK    1  A    between atoms: N1_3  and  C2_4 
REMARK    2  A    between atoms: C2_4  and  C3_5 
REMARK    3  A    between atoms: C3_5  and  C4_6 
REMARK    4  A    between atoms: C4_6  and  O2_7 
REMARK    5  A    between atoms: O2_7  and  C5_8 
REMARK    6  A    between atoms: N2_13  and  N3_14 
REMARK    7  A    between atoms: N3_14  and  C10_15 
REMARK    8  A    between atoms: C13_18  and  O3_19 
REMARK    9  A    between atoms: O3_19  and  C14_20 
ROOT
ATOM      1  O1  NON d   1     -44.604  16.495  -4.928  0.00  0.00    -0.253 OA
ATOM      2  C1  NON d   1     -45.176  17.454  -5.436  0.00  0.00     0.308 C 
ATOM      3  N1  NON d   1     -44.699  18.746  -5.413  0.00  0.00    -0.347 N 
ATOM      4  N2  NON d   1     -46.412  17.360  -6.064  0.00  0.00    -0.172 NA
ATOM      5  H1  NON d   1     -44.864  19.259  -6.267  0.00  0.00     0.163 HD
ATOM      6  H17 NON d   1     -47.011  18.158  -5.880  0.00  0.00     0.152 HD
ENDROOT
BRANCH   4   7
ATOM      7  N3  NON d   1     -47.067  16.130  -5.810  0.00  0.00    -0.219 NA
ATOM      8  H18 NON d   1     -47.498  15.758  -6.666  0.00  0.00     0.147 HD
BRANCH   7   9
ATOM      9  C10 NON d   1     -47.902  16.057  -4.677  0.00  0.00     0.023 A 
ATOM     10  C11 NON d   1     -47.606  16.890  -3.587  0.00  0.00     0.027 A 
ATOM     11  C12 NON d   1     -48.477  17.018  -2.498  0.00  0.00     0.039 A 
ATOM     12  C13 NON d   1     -49.689  16.334  -2.493  0.00  0.00     0.078 A 
ATOM     13  C15 NON d   1     -49.988  15.486  -3.562  0.00  0.00     0.039 A 
ATOM     14  C16 NON d   1     -49.112  15.360  -4.649  0.00  0.00     0.027 A 
BRANCH  12  15
ATOM     15  O3  NON d   1     -50.659  16.411  -1.536  0.00  0.00    -0.255 OA
BRANCH  15  16
ATOM     16  C14 NON d   1     -51.784  17.229  -1.808  0.00  0.00     0.530 C 
ATOM     17  F1  NON d   1     -51.568  17.999  -2.895  0.00  0.00    -0.144 F 
ATOM     18  F2  NON d   1     -51.988  18.045  -0.750  0.00  0.00    -0.144 F 
ATOM     19  F3  NON d   1     -52.905  16.498  -1.988  0.00  0.00    -0.144 F 
ENDBRANCH  15  16
ENDBRANCH  12  15
ENDBRANCH   7   9
ENDBRANCH   4   7
BRANCH   3  20
ATOM     20  C2  NON d   1     -43.471  19.015  -4.680  0.00  0.00     0.126 C 
BRANCH  20  21
ATOM     21  C3  NON d   1     -42.210  18.631  -5.456  0.00  0.00     0.046 C 
BRANCH  21  22
ATOM     22  C4  NON d   1     -41.075  19.638  -5.254  0.00  0.00     0.169 C 
BRANCH  22  23
ATOM     23  O2  NON d   1     -41.215  20.327  -4.010  0.00  0.00    -0.386 OA
BRANCH  23  24
ATOM     24  C5  NON d   1     -40.377  19.839  -2.960  0.00  0.00     0.121 C 
ATOM     25  C6  NON d   1     -41.002  18.605  -2.292  0.00  0.00     0.032 C 
ATOM     26  C7  NON d   1     -40.151  17.417  -2.720  0.00  0.00     0.002 C 
ATOM     27  C8  NON d   1     -38.772  18.008  -2.949  0.00  0.00     0.002 C 
ATOM     28  C9  NON d   1     -39.060  19.359  -3.582  0.00  0.00     0.032 C 
ENDBRANCH  23  24
ENDBRANCH  22  23
ENDBRANCH  21  22
ENDBRANCH  20  21
ENDBRANCH   3  20
TORSDOF 9
ENDMDL
MODEL 4
REMARK VINA RESULT:   -28.606      4.073      9.666
REMARK INTER + INTRA:         -32.392
REMARK INTER:                 -31.291
REMARK INTRA:                  -1.101
REMARK CONF_INDEPENDENT:        2.685
REMARK UNBOUND:                -1.101
REMARK  9 active torsions:
REMARK  status: ('A' for Active; 'I' for Inactive)
REMARK       I    between atoms: C1_2  and  N1_3 
REMARK       I    between atoms: C1_2  and  N2_13 
REMARK    1  A    between atoms: N1_3  and  C2_4 
REMARK    2  A    between atoms: C2_4  and  C3_5 
REMARK    3  A    between atoms: C3_5  and  C4_6 
REMARK    4  A    between atoms: C4_6  and  O2_7 
REMARK    5  A    between atoms: O2_7  and  C5_8 
REMARK    6  A    between atoms: N2_13  and  N3_14 
REMARK    7  A    between atoms: N3_14  and  C10_15 
REMARK    8  A    between atoms: C13_18  and  O3_19 
REMARK    9  A    between atoms: O3_19  and  C14_20 
ROOT
ATOM      1  O1  NON d   1     -45.523  17.892  -4.526  0.00  0.00    -0.253 OA
ATOM      2  C1  NON d   1     -45.000  16.871  -4.962  0.00  0.00     0.308 C 
ATOM      3  N1  NON d   1     -43.642  16.645  -4.993  0.00  0.00    -0.347 N 
ATOM      4  N2  NON d   1     -45.722  15.826  -5.529  0.00  0.00    -0.172 NA
ATOM      5  H1  NON d   1     -43.380  15.691  -4.788  0.00  0.00     0.163 HD
ATOM      6  H17 NON d   1     -45.256  15.413  -6.330  0.00  0.00     0.152 HD
ENDROOT
BRANCH   4   7
ATOM      7  N3  NON d   1     -47.065  16.174  -5.810  0.00  0.00    -0.219 NA
ATOM      8  H18 NON d   1     -47.123  17.106  -6.240  0.00  0.00     0.147 HD
BRANCH   7   9
ATOM      9  C10 NON d   1     -48.021  15.957  -4.798  0.00  0.00     0.023 A 
ATOM     10  C11 NON d   1     -48.095  16.891  -3.752  0.00  0.00     0.027 A 
ATOM     11  C12 NON d   1     -49.127  16.857  -2.805  0.00  0.00     0.039 A 
ATOM     12  C13 NON d   1     -50.131  15.900  -2.905  0.00  0.00     0.078 A 
ATOM     13  C15 NON d   1     -50.060  14.953  -3.928  0.00  0.00     0.039 A 
ATOM     14  C16 NON d   1     -49.025  14.989  -4.873  0.00  0.00     0.027 A 
BRANCH  12  15
ATOM     15  O3  NON d   1     -51.225  15.786  -2.096  0.00  0.00    -0.255 OA
BRANCH  15  16
ATOM     16  C14 NON d   1     -52.129  16.878  -2.060  0.00  0.00     0.530 C 
ATOM     17  F1  NON d   1     -52.330  17.294  -0.792  0.00  0.00    -0.144 F 
ATOM     18  F2  NON d   1     -53.316  16.471  -2.561  0.00  0.00    -0.144 F 
ATOM     19  F3  NON d   1     -51.696  17.913  -2.811  0.00  0.00    -0.144 F 
ENDBRANCH  15  16
ENDBRANCH  12  15
ENDBRANCH   7   9
ENDBRANCH   4   7
BRANCH   3  20
ATOM     20  C2  NON d   1     -42.755  17.707  -4.545  0.00  0.00     0.126 C 
BRANCH  20  21
ATOM     21  C3  NON d   1     -41.855  17.291  -3.380  0.00  0.00     0.046 C 
BRANCH  21  22
ATOM     22  C4  NON d   1     -40.775  18.331  -3.080  0.00  0.00     0.169 C 
BRANCH  22  23
ATOM     23  O2  NON d   1     -41.102  19.595  -3.661  0.00  0.00    -0.386 OA
BRANCH  23  24
ATOM     24  C5  NON d   1     -40.215  20.021  -4.699  0.00  0.00     0.121 C 
ATOM     25  C6  NON d   1     -39.605  18.814  -5.426  0.00  0.00     0.032 C 
ATOM     26  C7  NON d   1     -40.250  18.780  -6.805  0.00  0.00     0.002 C 
ATOM     27  C8  NON d   1     -40.583  20.231  -7.097  0.00  0.00     0.002 C 
ATOM     28  C9  NON d   1     -41.037  20.775  -5.752  0.00  0.00     0.032 C 
ENDBRANCH  23  24
ENDBRANCH  22  23
ENDBRANCH  21  22
ENDBRANCH  20  21
ENDBRANCH   3  20
TORSDOF 9
ENDMDL
