MODEL 1
REMARK VINA RESULT:   -10.688      0.000      0.000
REMARK INTER + INTRA:         -14.357
REMARK INTER:                 -12.478
REMARK INTRA:                  -1.879
REMARK CONF_INDEPENDENT:        1.790
REMARK UNBOUND:                -1.879
REMARK  6 active torsions:
REMARK  status: ('A' for Active; 'I' for Inactive)
REMARK    1  A    between atoms: C5_5  and  N1_6 
REMARK       I    between atoms: N1_6  and  C6_7 
REMARK    2  A    between atoms: C7_9  and  C6_7 
REMARK    3  A    between atoms: C7_9  and  C8_10 
REMARK    4  A    between atoms: C7_9  and  N2_14 
REMARK    5  A    between atoms: C8_10  and  C9_11 
REMARK       I    between atoms: N2_14  and  C12_15 
REMARK    6  A    between atoms: C13_17  and  C12_15 
ROOT
ATOM      1  C7  NON d   1     -42.229  18.330  -4.310  0.00  0.00     0.177 C 
ENDROOT
BRANCH   1   2
ATOM      2  C6  NON d   1     -41.360  18.991  -5.395  0.00  0.00     0.245 C 
ATOM      3  N1  NON d   1     -40.690  18.347  -6.466  0.00  0.00    -0.325 N 
ATOM      4  H6  NON d   1     -40.747  17.339  -6.543  0.00  0.00     0.169 HD
ATOM      5  O1  NON d   1     -40.979  20.098  -4.951  0.00  0.00    -0.271 OA
BRANCH   3   6
ATOM      6  C5  NON d   1     -39.633  18.960  -7.303  0.00  0.00     0.040 A 
ATOM      7  C4  NON d   1     -38.290  18.512  -7.380  0.00  0.00     0.030 A 
ATOM      8  C3  NON d   1     -37.249  19.075  -8.287  0.00  0.00     0.009 A 
ATOM      9  C2  NON d   1     -37.466  20.112  -9.220  0.00  0.00    -0.061 A 
ATOM     10  C1  NON d   1     -36.511  20.596 -10.327  0.00  0.00     0.048 C 
ATOM     11  C24 NON d   1     -38.856  20.546  -9.110  0.00  0.00     0.015 A 
ATOM     12  C22 NON d   1     -39.916  19.995  -8.173  0.00  0.00    -0.035 A 
ATOM     13  C23 NON d   1     -41.410  20.362  -8.231  0.00  0.00     0.050 C 
ENDBRANCH   3   6
ENDBRANCH   1   2
BRANCH   1  14
ATOM     14  C8  NON d   1     -41.505  17.898  -2.778  0.00  0.00     0.038 C 
BRANCH  14  15
ATOM     15  C9  NON d   1     -40.163  18.659  -2.656  0.00  0.00    -0.020 C 
ATOM     16  C10 NON d   1     -38.830  18.006  -3.063  0.00  0.00     0.009 C 
ATOM     17  C11 NON d   1     -40.163  19.998  -1.896  0.00  0.00     0.009 C 
ENDBRANCH  14  15
ENDBRANCH   1  14
BRANCH   1  18
ATOM     18  N2  NON d   1     -43.650  18.338  -4.795  0.00  0.00    -0.346 N 
ATOM     19  C12 NON d   1     -44.305  17.140  -5.060  0.00  0.00     0.249 C 
ATOM     20  O2  NON d   1     -43.708  16.133  -5.428  0.00  0.00    -0.271 OA
ATOM     21  H17 NON d   1     -44.120  19.228  -4.701  0.00  0.00     0.163 HD
BRANCH  19  22
ATOM     22  C13 NON d   1     -45.842  17.114  -4.870  0.00  0.00     0.281 C 
ATOM     23  C14 NON d   1     -46.218  17.109  -3.364  0.00  0.00     0.082 C 
ATOM     24  C15 NON d   1     -47.640  16.669  -3.068  0.00  0.00    -0.048 A 
ATOM     25  C16 NON d   1     -48.190  16.880  -1.791  0.00  0.00     0.008 A 
ATOM     26  C20 NON d   1     -48.395  15.972  -4.030  0.00  0.00    -0.026 A 
ATOM     27  C17 NON d   1     -49.473  16.424  -1.482  0.00  0.00     0.001 A 
ATOM     28  C18 NON d   1     -50.223  15.746  -2.439  0.00  0.00     0.001 A 
ATOM     29  C19 NON d   1     -49.691  15.527  -3.709  0.00  0.00     0.009 A 
ATOM     30  C21 NON d   1     -47.866  15.755  -5.415  0.00  0.00     0.272 C 
ATOM     31  N3  NON d   1     -46.388  15.857  -5.501  0.00  0.00    -0.058 N 
ATOM     32  H27 NON d   1     -45.958  15.054  -5.015  0.00  0.00     0.278 HD
ATOM     33  H28 NON d   1     -46.078  15.795  -6.478  0.00  0.00     0.278 HD
ENDBRANCH  19  22
ENDBRANCH   1  18
TORSDOF 6
ENDMDL
MODEL 2
REMARK VINA RESULT:   -10.476      0.909      1.484
REMARK INTER + INTRA:         -14.289
REMARK INTER:                 -12.266
REMARK INTRA:                  -2.023
REMARK CONF_INDEPENDENT:        1.790
REMARK UNBOUND:                -2.023
REMARK  6 active torsions:
REMARK  status: ('A' for Active; 'I' for Inactive)
REMARK    1  A    between atoms: C5_5  and  N1_6 
REMARK       I    between atoms: N1_6  and  C6_7 
REMARK    2  A    between atoms: C7_9  and  C6_7 
REMARK    3  A    between atoms: C7_9  and  C8_10 
REMARK    4  A    between atoms: C7_9  and  N2_14 
REMARK    5  A    between atoms: C8_10  and  C9_11 
REMARK       I    between atoms: N2_14  and  C12_15 
REMARK    6  A    between atoms: C13_17  and  C12_15 
ROOT
ATOM      1  C7  NON d   1     -42.258  18.205  -4.051  0.00  0.00     0.177 C 
ENDROOT
BRANCH   1   2
ATOM      2  C6  NON d   1     -41.290  18.501  -5.210  0.00  0.00     0.245 C 
ATOM      3  N1  NON d   1     -40.776  19.765  -5.595  0.00  0.00    -0.325 N 
ATOM      4  H6  NON d   1     -41.076  20.590  -5.089  0.00  0.00     0.169 HD
ATOM      5  O1  NON d   1     -41.366  17.549  -6.019  0.00  0.00    -0.271 OA
BRANCH   3   6
ATOM      6  C5  NON d   1     -40.098  20.056  -6.879  0.00  0.00     0.040 A 
ATOM      7  C4  NON d   1     -40.671  20.769  -7.962  0.00  0.00     0.030 A 
ATOM      8  C3  NON d   1     -39.958  21.137  -9.219  0.00  0.00     0.009 A 
ATOM      9  C2  NON d   1     -38.602  20.854  -9.492  0.00  0.00    -0.061 A 
ATOM     10  C1  NON d   1     -37.748  21.380 -10.660  0.00  0.00     0.048 C 
ATOM     11  C24 NON d   1     -38.050  20.120  -8.357  0.00  0.00     0.015 A 
ATOM     12  C22 NON d   1     -38.774  19.720  -7.083  0.00  0.00    -0.035 A 
ATOM     13  C23 NON d   1     -38.091  19.113  -5.843  0.00  0.00     0.050 C 
ENDBRANCH   3   6
ENDBRANCH   1   2
BRANCH   1  14
ATOM     14  C8  NON d   1     -41.627  18.050  -2.426  0.00  0.00     0.038 C 
BRANCH  14  15
ATOM     15  C9  NON d   1     -40.176  18.586  -2.428  0.00  0.00    -0.020 C 
ATOM     16  C10 NON d   1     -38.968  17.631  -2.443  0.00  0.00     0.009 C 
ATOM     17  C11 NON d   1     -39.964  20.089  -2.174  0.00  0.00     0.009 C 
ENDBRANCH  14  15
ENDBRANCH   1  14
BRANCH   1  18
ATOM     18  N2  NON d   1     -43.656  18.265  -4.596  0.00  0.00    -0.346 N 
ATOM     19  C12 NON d   1     -44.298  17.100  -5.001  0.00  0.00     0.249 C 
ATOM     20  O2  NON d   1     -43.685  16.130  -5.435  0.00  0.00    -0.271 OA
ATOM     21  H17 NON d   1     -44.129  19.144  -4.439  0.00  0.00     0.163 HD
BRANCH  19  22
ATOM     22  C13 NON d   1     -45.842  17.063  -4.884  0.00  0.00     0.281 C 
ATOM     23  C14 NON d   1     -46.287  17.025  -3.397  0.00  0.00     0.082 C 
ATOM     24  C15 NON d   1     -47.719  16.572  -3.176  0.00  0.00    -0.048 A 
ATOM     25  C16 NON d   1     -48.329  16.755  -1.923  0.00  0.00     0.008 A 
ATOM     26  C20 NON d   1     -48.425  15.892  -4.186  0.00  0.00    -0.026 A 
ATOM     27  C17 NON d   1     -49.622  16.286  -1.683  0.00  0.00     0.001 A 
ATOM     28  C18 NON d   1     -50.323  15.625  -2.687  0.00  0.00     0.001 A 
ATOM     29  C19 NON d   1     -49.731  15.435  -3.935  0.00  0.00     0.009 A 
ATOM     30  C21 NON d   1     -47.831  15.706  -5.549  0.00  0.00     0.272 C 
ATOM     31  N3  NON d   1     -46.351  15.817  -5.565  0.00  0.00    -0.058 N 
ATOM     32  H27 NON d   1     -45.940  15.006  -5.076  0.00  0.00     0.278 HD
ATOM     33  H28 NON d   1     -45.995  15.776  -6.527  0.00  0.00     0.278 HD
ENDBRANCH  19  22
ENDBRANCH   1  18
TORSDOF 6
ENDMDL
MODEL 3
REMARK VINA RESULT:    -9.113      3.275      7.644
REMARK INTER + INTRA:         -12.666
REMARK INTER:                 -10.903
REMARK INTRA:                  -1.764
REMARK CONF_INDEPENDENT:        1.790
REMARK UNBOUND:                -1.764
REMARK  6 active torsions:
REMARK  status: ('A' for Active; 'I' for Inactive)
REMARK    1  A    between atoms: C5_5  and  N1_6 
REMARK       I    between atoms: N1_6  and  C6_7 
REMARK    2  A    between atoms: C7_9  and  C6_7 
REMARK    3  A    between atoms: C7_9  and  C8_10 
REMARK    4  A    between atoms: C7_9  and  N2_14 
REMARK    5  A    between atoms: C8_10  and  C9_11 
REMARK       I    between atoms: N2_14  and  C12_15 
REMARK    6  A    between atoms: C13_17  and  C12_15 
ROOT
ATOM      1  C7  NON d   1     -41.082  18.297  -3.266  0.00  0.00     0.177 C 
ENDROOT
BRANCH   1   2
ATOM      2  C6  NON d   1     -40.296  18.378  -4.587  0.00  0.00     0.245 C 
ATOM      3  N1  NON d   1     -39.423  19.415  -5.002  0.00  0.00    -0.325 N 
ATOM      4  H6  NON d   1     -39.296  20.219  -4.399  0.00  0.00     0.169 HD
ATOM      5  O1  NON d   1     -40.867  17.630  -5.413  0.00  0.00    -0.271 OA
BRANCH   3   6
ATOM      6  C5  NON d   1     -38.926  19.610  -6.383  0.00  0.00     0.040 A 
ATOM      7  C4  NON d   1     -39.612  20.312  -7.407  0.00  0.00     0.030 A 
ATOM      8  C3  NON d   1     -39.072  20.583  -8.770  0.00  0.00     0.009 A 
ATOM      9  C2  NON d   1     -37.788  20.206  -9.221  0.00  0.00    -0.061 A 
ATOM     10  C1  NON d   1     -37.087  20.630 -10.525  0.00  0.00     0.048 C 
ATOM     11  C24 NON d   1     -37.116  19.487  -8.142  0.00  0.00     0.015 A 
ATOM     12  C22 NON d   1     -37.666  19.186  -6.760  0.00  0.00    -0.035 A 
ATOM     13  C23 NON d   1     -36.844  18.590  -5.602  0.00  0.00     0.050 C 
ENDBRANCH   3   6
ENDBRANCH   1   2
BRANCH   1  14
ATOM     14  C8  NON d   1     -42.546  17.343  -3.196  0.00  0.00     0.038 C 
BRANCH  14  15
ATOM     15  C9  NON d   1     -43.453  17.779  -4.372  0.00  0.00    -0.020 C 
ATOM     16  C10 NON d   1     -43.274  19.146  -5.059  0.00  0.00     0.009 C 
ATOM     17  C11 NON d   1     -44.688  16.916  -4.685  0.00  0.00     0.009 C 
ENDBRANCH  14  15
ENDBRANCH   1  14
BRANCH   1  18
ATOM     18  N2  NON d   1     -40.271  18.992  -2.210  0.00  0.00    -0.346 N 
ATOM     19  C12 NON d   1     -40.315  20.377  -2.093  0.00  0.00     0.249 C 
ATOM     20  O2  NON d   1     -40.528  21.109  -3.054  0.00  0.00    -0.271 OA
ATOM     21  H17 NON d   1     -39.894  18.379  -1.501  0.00  0.00     0.163 HD
BRANCH  19  22
ATOM     22  C13 NON d   1     -40.085  20.979  -0.684  0.00  0.00     0.281 C 
ATOM     23  C14 NON d   1     -40.624  22.432  -0.605  0.00  0.00     0.082 C 
ATOM     24  C15 NON d   1     -40.088  23.243   0.561  0.00  0.00    -0.048 A 
ATOM     25  C16 NON d   1     -40.695  24.463   0.907  0.00  0.00     0.008 A 
ATOM     26  C20 NON d   1     -38.933  22.834   1.255  0.00  0.00    -0.026 A 
ATOM     27  C17 NON d   1     -40.176  25.253   1.935  0.00  0.00     0.001 A 
ATOM     28  C18 NON d   1     -39.042  24.840   2.628  0.00  0.00     0.001 A 
ATOM     29  C19 NON d   1     -38.427  23.633   2.296  0.00  0.00     0.009 A 
ATOM     30  C21 NON d   1     -38.273  21.524   0.946  0.00  0.00     0.272 C 
ATOM     31  N3  NON d   1     -38.603  21.005  -0.404  0.00  0.00    -0.058 N 
ATOM     32  H27 NON d   1     -38.162  21.604  -1.121  0.00  0.00     0.278 HD
ATOM     33  H28 NON d   1     -38.207  20.067  -0.537  0.00  0.00     0.278 HD
ENDBRANCH  19  22
ENDBRANCH   1  18
TORSDOF 6
ENDMDL
MODEL 4
REMARK VINA RESULT:    -8.802      5.477      9.344
REMARK INTER + INTRA:         -12.883
REMARK INTER:                 -10.592
REMARK INTRA:                  -2.291
REMARK CONF_INDEPENDENT:        1.790
REMARK UNBOUND:                -2.291
REMARK  6 active torsions:
REMARK  status: ('A' for Active; 'I' for Inactive)
REMARK    1  A    between atoms: C5_5  and  N1_6 
REMARK       I    between atoms: N1_6  and  C6_7 
REMARK    2  A    between atoms: C7_9  and  C6_7 
REMARK    3  A    between atoms: C7_9  and  C8_10 
REMARK    4  A    between atoms: C7_9  and  N2_14 
REMARK    5  A    between atoms: C8_10  and  C9_11 
REMARK       I    between atoms: N2_14  and  C12_15 
REMARK    6  A    between atoms: C13_17  and  C12_15 
ROOT
ATOM      1  C7  NON d   1     -38.967  22.593  -0.668  0.00  0.00     0.177 C 
ENDROOT
BRANCH   1   2
ATOM      2  C6  NON d   1     -40.000  23.352   0.184  0.00  0.00     0.245 C 
ATOM      3  N1  NON d   1     -39.782  24.525   0.951  0.00  0.00    -0.325 N 
ATOM      4  H6  NON d   1     -38.851  24.922   0.984  0.00  0.00     0.169 HD
ATOM      5  O1  NON d   1     -40.928  22.555   0.450  0.00  0.00    -0.271 OA
BRANCH   3   6
ATOM      6  C5  NON d   1     -40.702  25.051   1.984  0.00  0.00     0.040 A 
ATOM      7  C4  NON d   1     -40.954  24.444   3.240  0.00  0.00     0.030 A 
ATOM      8  C3  NON d   1     -41.812  25.019   4.315  0.00  0.00     0.009 A 
ATOM      9  C2  NON d   1     -42.469  26.267   4.243  0.00  0.00    -0.061 A 
ATOM     10  C1  NON d   1     -43.191  27.017   5.379  0.00  0.00     0.048 C 
ATOM     11  C24 NON d   1     -42.188  26.859   2.938  0.00  0.00     0.015 A 
ATOM     12  C22 NON d   1     -41.335  26.270   1.829  0.00  0.00    -0.035 A 
ATOM     13  C23 NON d   1     -40.921  27.022   0.551  0.00  0.00     0.050 C 
ENDBRANCH   3   6
ENDBRANCH   1   2
BRANCH   1  14
ATOM     14  C8  NON d   1     -37.278  22.645  -0.215  0.00  0.00     0.038 C 
BRANCH  14  15
ATOM     15  C9  NON d   1     -37.162  22.141   1.243  0.00  0.00    -0.020 C 
ATOM     16  C10 NON d   1     -37.326  23.098   2.439  0.00  0.00     0.009 C 
ATOM     17  C11 NON d   1     -36.645  20.709   1.470  0.00  0.00     0.009 C 
ENDBRANCH  14  15
ENDBRANCH   1  14
BRANCH   1  18
ATOM     18  N2  NON d   1     -39.718  21.796  -1.695  0.00  0.00    -0.346 N 
ATOM     19  C12 NON d   1     -39.034  20.950  -2.561  0.00  0.00     0.249 C 
ATOM     20  O2  NON d   1     -37.880  21.168  -2.914  0.00  0.00    -0.271 OA
ATOM     21  H17 NON d   1     -40.719  21.768  -1.553  0.00  0.00     0.163 HD
BRANCH  19  22
ATOM     22  C13 NON d   1     -39.789  19.698  -3.074  0.00  0.00     0.281 C 
ATOM     23  C14 NON d   1     -41.072  20.100  -3.849  0.00  0.00     0.082 C 
ATOM     24  C15 NON d   1     -42.082  18.980  -4.025  0.00  0.00    -0.048 A 
ATOM     25  C16 NON d   1     -43.145  19.129  -4.933  0.00  0.00     0.008 A 
ATOM     26  C20 NON d   1     -42.020  17.821  -3.229  0.00  0.00    -0.026 A 
ATOM     27  C17 NON d   1     -44.119  18.136  -5.060  0.00  0.00     0.001 A 
ATOM     28  C18 NON d   1     -44.049  16.985  -4.281  0.00  0.00     0.001 A 
ATOM     29  C19 NON d   1     -43.002  16.824  -3.375  0.00  0.00     0.009 A 
ATOM     30  C21 NON d   1     -40.886  17.602  -2.274  0.00  0.00     0.272 C 
ATOM     31  N3  NON d   1     -40.193  18.856  -1.889  0.00  0.00    -0.058 N 
ATOM     32  H27 NON d   1     -40.818  19.428  -1.300  0.00  0.00     0.278 HD
ATOM     33  H28 NON d   1     -39.369  18.651  -1.311  0.00  0.00     0.278 HD
ENDBRANCH  19  22
ENDBRANCH   1  18
TORSDOF 6
ENDMDL
MODEL 5
REMARK VINA RESULT:    -8.745      3.667      8.422
REMARK INTER + INTRA:         -12.789
REMARK INTER:                 -10.535
REMARK INTRA:                  -2.254
REMARK CONF_INDEPENDENT:        1.790
REMARK UNBOUND:                -2.254
REMARK  6 active torsions:
REMARK  status: ('A' for Active; 'I' for Inactive)
REMARK    1  A    between atoms: C5_5  and  N1_6 
REMARK       I    between atoms: N1_6  and  C6_7 
REMARK    2  A    between atoms: C7_9  and  C6_7 
REMARK    3  A    between atoms: C7_9  and  C8_10 
REMARK    4  A    between atoms: C7_9  and  N2_14 
REMARK    5  A    between atoms: C8_10  and  C9_11 
REMARK       I    between atoms: N2_14  and  C12_15 
REMARK    6  A    between atoms: C13_17  and  C12_15 
ROOT
ATOM      1  C7  NON d   1     -38.009  18.923  -2.804  0.00  0.00     0.177 C 
ENDROOT
BRANCH   1   2
ATOM      2  C6  NON d   1     -39.327  18.238  -3.206  0.00  0.00     0.245 C 
ATOM      3  N1  NON d   1     -40.384  18.795  -3.970  0.00  0.00    -0.325 N 
ATOM      4  H6  NON d   1     -40.308  19.755  -4.282  0.00  0.00     0.169 HD
ATOM      5  O1  NON d   1     -39.520  17.293  -2.408  0.00  0.00    -0.271 OA
BRANCH   3   6
ATOM      6  C5  NON d   1     -41.747  18.227  -4.082  0.00  0.00     0.040 A 
ATOM      7  C4  NON d   1     -42.301  17.255  -3.212  0.00  0.00     0.030 A 
ATOM      8  C3  NON d   1     -43.702  16.748  -3.272  0.00  0.00     0.009 A 
ATOM      9  C2  NON d   1     -44.683  17.192  -4.186  0.00  0.00    -0.061 A 
ATOM     10  C1  NON d   1     -46.190  16.877  -4.174  0.00  0.00     0.048 C 
ATOM     11  C24 NON d   1     -44.075  18.189  -5.063  0.00  0.00     0.015 A 
ATOM     12  C22 NON d   1     -42.644  18.693  -5.024  0.00  0.00    -0.035 A 
ATOM     13  C23 NON d   1     -42.111  19.879  -5.850  0.00  0.00     0.050 C 
ENDBRANCH   3   6
ENDBRANCH   1   2
BRANCH   1  14
ATOM     14  C8  NON d   1     -36.521  18.446  -3.591  0.00  0.00     0.038 C 
BRANCH  14  15
ATOM     15  C9  NON d   1     -36.655  18.772  -5.098  0.00  0.00    -0.020 C 
ATOM     16  C10 NON d   1     -36.195  17.776  -6.178  0.00  0.00     0.009 C 
ATOM     17  C11 NON d   1     -37.039  20.210  -5.491  0.00  0.00     0.009 C 
ENDBRANCH  14  15
ENDBRANCH   1  14
BRANCH   1  18
ATOM     18  N2  NON d   1     -38.344  20.039  -1.856  0.00  0.00    -0.346 N 
ATOM     19  C12 NON d   1     -39.197  21.061  -2.255  0.00  0.00     0.249 C 
ATOM     20  O2  NON d   1     -39.291  21.419  -3.424  0.00  0.00    -0.271 OA
ATOM     21  H17 NON d   1     -38.084  19.864  -0.896  0.00  0.00     0.163 HD
BRANCH  19  22
ATOM     22  C13 NON d   1     -40.045  21.748  -1.154  0.00  0.00     0.281 C 
ATOM     23  C14 NON d   1     -40.104  23.283  -1.374  0.00  0.00     0.082 C 
ATOM     24  C15 NON d   1     -40.539  24.080  -0.157  0.00  0.00    -0.048 A 
ATOM     25  C16 NON d   1     -40.899  25.432  -0.294  0.00  0.00     0.008 A 
ATOM     26  C20 NON d   1     -40.508  23.508   1.129  0.00  0.00    -0.026 A 
ATOM     27  C17 NON d   1     -41.238  26.197   0.824  0.00  0.00     0.001 A 
ATOM     28  C18 NON d   1     -41.219  25.627   2.093  0.00  0.00     0.001 A 
ATOM     29  C19 NON d   1     -40.863  24.287   2.245  0.00  0.00     0.009 A 
ATOM     30  C21 NON d   1     -40.167  22.062   1.321  0.00  0.00     0.272 C 
ATOM     31  N3  NON d   1     -39.405  21.483   0.186  0.00  0.00    -0.058 N 
ATOM     32  H27 NON d   1     -38.457  21.892   0.164  0.00  0.00     0.278 HD
ATOM     33  H28 NON d   1     -39.274  20.473   0.317  0.00  0.00     0.278 HD
ENDBRANCH  19  22
ENDBRANCH   1  18
TORSDOF 6
ENDMDL
MODEL 6
REMARK VINA RESULT:    -8.503      4.189     10.245
REMARK INTER + INTRA:         -12.281
REMARK INTER:                 -10.293
REMARK INTRA:                  -1.988
REMARK CONF_INDEPENDENT:        1.790
REMARK UNBOUND:                -1.988
REMARK  6 active torsions:
REMARK  status: ('A' for Active; 'I' for Inactive)
REMARK    1  A    between atoms: C5_5  and  N1_6 
REMARK       I    between atoms: N1_6  and  C6_7 
REMARK    2  A    between atoms: C7_9  and  C6_7 
REMARK    3  A    between atoms: C7_9  and  C8_10 
REMARK    4  A    between atoms: C7_9  and  N2_14 
REMARK    5  A    between atoms: C8_10  and  C9_11 
REMARK       I    between atoms: N2_14  and  C12_15 
REMARK    6  A    between atoms: C13_17  and  C12_15 
ROOT
ATOM      1  C7  NON d   1     -39.510  21.061  -7.968  0.00  0.00     0.177 C 
ENDROOT
BRANCH   1   2
ATOM      2  C6  NON d   1     -40.772  20.542  -7.255  0.00  0.00     0.245 C 
ATOM      3  N1  NON d   1     -40.878  20.108  -5.909  0.00  0.00    -0.325 N 
ATOM      4  H6  NON d   1     -40.048  20.102  -5.330  0.00  0.00     0.169 HD
ATOM      5  O1  NON d   1     -41.570  20.151  -8.137  0.00  0.00    -0.271 OA
BRANCH   3   6
ATOM      6  C5  NON d   1     -42.014  19.342  -5.347  0.00  0.00     0.040 A 
ATOM      7  C4  NON d   1     -43.372  19.505  -5.718  0.00  0.00     0.030 A 
ATOM      8  C3  NON d   1     -44.505  18.674  -5.216  0.00  0.00     0.009 A 
ATOM      9  C2  NON d   1     -44.375  17.587  -4.324  0.00  0.00    -0.061 A 
ATOM     10  C1  NON d   1     -45.453  16.560  -3.931  0.00  0.00     0.048 C 
ATOM     11  C24 NON d   1     -42.966  17.453  -3.966  0.00  0.00     0.015 A 
ATOM     12  C22 NON d   1     -41.811  18.308  -4.453  0.00  0.00    -0.035 A 
ATOM     13  C23 NON d   1     -40.325  18.004  -4.189  0.00  0.00     0.050 C 
ENDBRANCH   3   6
ENDBRANCH   1   2
BRANCH   1  14
ATOM     14  C8  NON d   1     -37.947  20.414  -7.521  0.00  0.00     0.038 C 
BRANCH  14  15
ATOM     15  C9  NON d   1     -37.680  19.169  -8.400  0.00  0.00    -0.020 C 
ATOM     16  C10 NON d   1     -36.500  19.123  -9.388  0.00  0.00     0.009 C 
ATOM     17  C11 NON d   1     -38.758  18.071  -8.437  0.00  0.00     0.009 C 
ENDBRANCH  14  15
ENDBRANCH   1  14
BRANCH   1  18
ATOM     18  N2  NON d   1     -39.953  21.972  -9.076  0.00  0.00    -0.346 N 
ATOM     19  C12 NON d   1     -39.227  23.120  -9.369  0.00  0.00     0.249 C 
ATOM     20  O2  NON d   1     -38.584  23.725  -8.516  0.00  0.00    -0.271 OA
ATOM     21  H17 NON d   1     -40.653  21.576  -9.688  0.00  0.00     0.163 HD
BRANCH  19  22
ATOM     22  C13 NON d   1     -39.252  23.622 -10.834  0.00  0.00     0.281 C 
ATOM     23  C14 NON d   1     -40.256  24.793 -11.005  0.00  0.00     0.082 C 
ATOM     24  C15 NON d   1     -40.664  25.073 -12.441  0.00  0.00    -0.048 A 
ATOM     25  C16 NON d   1     -41.340  26.263 -12.760  0.00  0.00     0.008 A 
ATOM     26  C20 NON d   1     -40.450  24.117 -13.451  0.00  0.00    -0.026 A 
ATOM     27  C17 NON d   1     -41.779  26.508 -14.063  0.00  0.00     0.001 A 
ATOM     28  C18 NON d   1     -41.555  25.567 -15.063  0.00  0.00     0.001 A 
ATOM     29  C19 NON d   1     -40.888  24.380 -14.762  0.00  0.00     0.009 A 
ATOM     30  C21 NON d   1     -39.702  22.850 -13.167  0.00  0.00     0.272 C 
ATOM     31  N3  NON d   1     -39.688  22.487 -11.728  0.00  0.00    -0.058 N 
ATOM     32  H27 NON d   1     -40.637  22.207 -11.434  0.00  0.00     0.278 HD
ATOM     33  H28 NON d   1     -39.089  21.668 -11.568  0.00  0.00     0.278 HD
ENDBRANCH  19  22
ENDBRANCH   1  18
TORSDOF 6
ENDMDL
MODEL 7
REMARK VINA RESULT:    -8.278      2.215      9.254
REMARK INTER + INTRA:         -12.758
REMARK INTER:                 -10.068
REMARK INTRA:                  -2.690
REMARK CONF_INDEPENDENT:        1.790
REMARK UNBOUND:                -2.690
REMARK  6 active torsions:
REMARK  status: ('A' for Active; 'I' for Inactive)
REMARK    1  A    between atoms: C5_5  and  N1_6 
REMARK       I    between atoms: N1_6  and  C6_7 
REMARK    2  A    between atoms: C7_9  and  C6_7 
REMARK    3  A    between atoms: C7_9  and  C8_10 
REMARK    4  A    between atoms: C7_9  and  N2_14 
REMARK    5  A    between atoms: C8_10  and  C9_11 
REMARK       I    between atoms: N2_14  and  C12_15 
REMARK    6  A    between atoms: C13_17  and  C12_15 
ROOT
ATOM      1  C7  NON d   1     -42.687  18.280  -4.358  0.00  0.00     0.177 C 
ENDROOT
BRANCH   1   2
ATOM      2  C6  NON d   1     -43.908  17.389  -4.065  0.00  0.00     0.245 C 
ATOM      3  N1  NON d   1     -45.212  17.519  -4.607  0.00  0.00    -0.325 N 
ATOM      4  H6  NON d   1     -45.404  18.284  -5.241  0.00  0.00     0.169 HD
ATOM      5  O1  NON d   1     -43.705  16.818  -2.970  0.00  0.00    -0.271 OA
BRANCH   3   6
ATOM      6  C5  NON d   1     -46.423  16.846  -4.085  0.00  0.00     0.040 A 
ATOM      7  C4  NON d   1     -47.157  17.255  -2.944  0.00  0.00     0.030 A 
ATOM      8  C3  NON d   1     -48.426  16.630  -2.470  0.00  0.00     0.009 A 
ATOM      9  C2  NON d   1     -49.089  15.562  -3.113  0.00  0.00    -0.061 A 
ATOM     10  C1  NON d   1     -50.495  15.009  -2.810  0.00  0.00     0.048 C 
ATOM     11  C24 NON d   1     -48.304  15.169  -4.280  0.00  0.00     0.015 A 
ATOM     12  C22 NON d   1     -47.000  15.784  -4.756  0.00  0.00    -0.035 A 
ATOM     13  C23 NON d   1     -46.315  15.454  -6.095  0.00  0.00     0.050 C 
ENDBRANCH   3   6
ENDBRANCH   1   2
BRANCH   1  14
ATOM     14  C8  NON d   1     -42.676  19.272  -5.798  0.00  0.00     0.038 C 
BRANCH  14  15
ATOM     15  C9  NON d   1     -41.255  19.864  -5.956  0.00  0.00    -0.020 C 
ATOM     16  C10 NON d   1     -40.858  21.190  -5.280  0.00  0.00     0.009 C 
ATOM     17  C11 NON d   1     -40.320  19.220  -6.995  0.00  0.00     0.009 C 
ENDBRANCH  14  15
ENDBRANCH   1  14
BRANCH   1  18
ATOM     18  N2  NON d   1     -41.769  18.201  -3.172  0.00  0.00    -0.346 N 
ATOM     19  C12 NON d   1     -40.396  18.333  -3.341  0.00  0.00     0.249 C 
ATOM     20  O2  NON d   1     -39.827  17.998  -4.376  0.00  0.00    -0.271 OA
ATOM     21  H17 NON d   1     -42.235  18.263  -2.277  0.00  0.00     0.163 HD
BRANCH  19  22
ATOM     22  C13 NON d   1     -39.589  18.931  -2.162  0.00  0.00     0.281 C 
ATOM     23  C14 NON d   1     -40.316  20.161  -1.556  0.00  0.00     0.082 C 
ATOM     24  C15 NON d   1     -39.440  21.056  -0.698  0.00  0.00    -0.048 A 
ATOM     25  C16 NON d   1     -40.025  22.034   0.124  0.00  0.00     0.008 A 
ATOM     26  C20 NON d   1     -38.036  20.978  -0.774  0.00  0.00    -0.026 A 
ATOM     27  C17 NON d   1     -39.232  22.908   0.871  0.00  0.00     0.001 A 
ATOM     28  C18 NON d   1     -37.845  22.821   0.804  0.00  0.00     0.001 A 
ATOM     29  C19 NON d   1     -37.248  21.857  -0.009  0.00  0.00     0.009 A 
ATOM     30  C21 NON d   1     -37.367  19.928  -1.608  0.00  0.00     0.272 C 
ATOM     31  N3  NON d   1     -38.242  19.379  -2.673  0.00  0.00    -0.058 N 
ATOM     32  H27 NON d   1     -38.407  20.102  -3.391  0.00  0.00     0.278 HD
ATOM     33  H28 NON d   1     -37.777  18.601  -3.157  0.00  0.00     0.278 HD
ENDBRANCH  19  22
ENDBRANCH   1  18
TORSDOF 6
ENDMDL
