MODEL 1
REMARK VINA RESULT:   -29.945      0.000      0.000
REMARK INTER + INTRA:         -33.657
REMARK INTER:                 -32.630
REMARK INTRA:                  -1.027
REMARK CONF_INDEPENDENT:        2.685
REMARK UNBOUND:                -1.027
REMARK  9 active torsions:
REMARK  status: ('A' for Active; 'I' for Inactive)
REMARK    1  A    between atoms: C2_2  and  N1_3 
REMARK    2  A    between atoms: N1_3  and  C3_4 
REMARK    3  A    between atoms: N1_3  and  C5_6 
REMARK    4  A    between atoms: C8_9  and  C9_10 
REMARK    5  A    between atoms: C10_11  and  C12_14 
REMARK    6  A    between atoms: C12_14  and  O2_16 
REMARK    7  A    between atoms: C13_17  and  O2_16 
REMARK    8  A    between atoms: C13_17  and  C15_19 
REMARK    9  A    between atoms: C15_19  and  O3_20 
ROOT
ATOM      1  C9  NON d   1     -45.359  17.244  -3.270  0.00  0.00     0.040 C 
ATOM      2  C10 NON d   1     -46.595  16.882  -3.689  0.00  0.00     0.120 C 
ATOM      3  C11 NON d   1     -46.932  16.697  -5.068  0.00  0.00     0.105 C 
ATOM      4  N2  NON d   1     -47.186  16.505  -6.185  0.00  0.00    -0.191 NA
ENDROOT
BRANCH   2   5
ATOM      5  C12 NON d   1     -47.621  16.420  -2.663  0.00  0.00     0.304 C 
ATOM      6  O1  NON d   1     -47.840  17.068  -1.644  0.00  0.00    -0.258 OA
BRANCH   5   7
ATOM      7  O2  NON d   1     -48.143  15.148  -2.877  0.00  0.00    -0.310 OA
BRANCH   7   8
ATOM      8  C13 NON d   1     -49.560  15.111  -3.511  0.00  0.00     0.152 C 
ATOM      9  C14 NON d   1     -50.073  14.218  -4.657  0.00  0.00     0.042 C 
BRANCH   8  10
ATOM     10  C15 NON d   1     -50.303  16.412  -3.158  0.00  0.00     0.199 C 
BRANCH  10  11
ATOM     11  O3  NON d   1     -51.596  16.122  -2.618  0.00  0.00    -0.393 OA
ATOM     12  C16 NON d   1     -52.258  17.251  -2.060  0.00  0.00     0.201 C 
ENDBRANCH  10  11
ENDBRANCH   8  10
ENDBRANCH   7   8
ENDBRANCH   5   7
ENDBRANCH   2   5
BRANCH   1  13
ATOM     13  C8  NON d   1     -44.060  17.624  -3.944  0.00  0.00    -0.035 A 
ATOM     14  C7  NON d   1     -44.107  18.646  -4.897  0.00  0.00     0.013 A 
ATOM     15  C6  NON d   1     -42.938  19.224  -5.490  0.00  0.00     0.030 A 
ATOM     16  C5  NON d   1     -41.616  18.880  -5.176  0.00  0.00     0.030 A 
ATOM     17  C18 NON d   1     -41.583  17.810  -4.245  0.00  0.00     0.030 A 
ATOM     18  C17 NON d   1     -42.759  17.196  -3.647  0.00  0.00     0.013 A 
BRANCH  16  19
ATOM     19  N1  NON d   1     -40.464  19.558  -5.663  0.00  0.00    -0.382 N 
BRANCH  19  20
ATOM     20  C2  NON d   1     -40.292  19.722  -7.163  0.00  0.00     0.118 C 
ATOM     21  C1  NON d   1     -39.439  18.708  -7.946  0.00  0.00     0.026 C 
ENDBRANCH  19  20
BRANCH  19  22
ATOM     22  C3  NON d   1     -39.631  20.513  -4.885  0.00  0.00     0.118 C 
ATOM     23  C4  NON d   1     -40.273  21.412  -3.842  0.00  0.00     0.026 C 
ENDBRANCH  19  22
ENDBRANCH  16  19
ENDBRANCH   1  13
TORSDOF 9
ENDMDL
MODEL 2
REMARK VINA RESULT:   -29.819      0.399      1.620
REMARK INTER + INTRA:         -33.509
REMARK INTER:                 -32.504
REMARK INTRA:                  -1.005
REMARK CONF_INDEPENDENT:        2.685
REMARK UNBOUND:                -1.005
REMARK  9 active torsions:
REMARK  status: ('A' for Active; 'I' for Inactive)
REMARK    1  A    between atoms: C2_2  and  N1_3 
REMARK    2  A    between atoms: N1_3  and  C3_4 
REMARK    3  A    between atoms: N1_3  and  C5_6 
REMARK    4  A    between atoms: C8_9  and  C9_10 
REMARK    5  A    between atoms: C10_11  and  C12_14 
REMARK    6  A    between atoms: C12_14  and  O2_16 
REMARK    7  A    between atoms: C13_17  and  O2_16 
REMARK    8  A    between atoms: C13_17  and  C15_19 
REMARK    9  A    between atoms: C15_19  and  O3_20 
ROOT
ATOM      1  C9  NON d   1     -45.353  17.225  -3.421  0.00  0.00     0.040 C 
ATOM      2  C10 NON d   1     -46.614  16.847  -3.741  0.00  0.00     0.120 C 
ATOM      3  C11 NON d   1     -47.063  16.681  -5.090  0.00  0.00     0.105 C 
ATOM      4  N2  NON d   1     -47.408  16.505  -6.185  0.00  0.00    -0.191 NA
ENDROOT
BRANCH   2   5
ATOM      5  C12 NON d   1     -47.540  16.347  -2.642  0.00  0.00     0.304 C 
ATOM      6  O1  NON d   1     -47.702  16.984  -1.605  0.00  0.00    -0.258 OA
BRANCH   5   7
ATOM      7  O2  NON d   1     -48.033  15.059  -2.821  0.00  0.00    -0.310 OA
BRANCH   7   8
ATOM      8  C13 NON d   1     -49.510  14.973  -3.297  0.00  0.00     0.152 C 
ATOM      9  C14 NON d   1     -50.077  14.253  -4.534  0.00  0.00     0.042 C 
BRANCH   8  10
ATOM     10  C15 NON d   1     -50.321  16.092  -2.618  0.00  0.00     0.199 C 
BRANCH  10  11
ATOM     11  O3  NON d   1     -51.723  15.883  -2.810  0.00  0.00    -0.393 OA
ATOM     12  C16 NON d   1     -52.545  16.880  -2.215  0.00  0.00     0.201 C 
ENDBRANCH  10  11
ENDBRANCH   8  10
ENDBRANCH   7   8
ENDBRANCH   5   7
ENDBRANCH   2   5
BRANCH   1  13
ATOM     13  C8  NON d   1     -44.122  17.643  -4.195  0.00  0.00    -0.035 A 
ATOM     14  C7  NON d   1     -44.221  18.791  -4.986  0.00  0.00     0.013 A 
ATOM     15  C6  NON d   1     -43.099  19.398  -5.636  0.00  0.00     0.030 A 
ATOM     16  C5  NON d   1     -41.772  18.958  -5.541  0.00  0.00     0.030 A 
ATOM     17  C18 NON d   1     -41.692  17.765  -4.776  0.00  0.00     0.030 A 
ATOM     18  C17 NON d   1     -42.824  17.122  -4.125  0.00  0.00     0.013 A 
BRANCH  16  19
ATOM     19  N1  NON d   1     -40.648  19.649  -6.072  0.00  0.00    -0.382 N 
BRANCH  19  20
ATOM     20  C2  NON d   1     -39.723  20.384  -5.119  0.00  0.00     0.118 C 
ATOM     21  C1  NON d   1     -40.247  20.827  -3.740  0.00  0.00     0.026 C 
ENDBRANCH  19  20
BRANCH  19  22
ATOM     22  C3  NON d   1     -40.013  19.380  -7.390  0.00  0.00     0.118 C 
ATOM     23  C4  NON d   1     -38.630  18.754  -7.457  0.00  0.00     0.026 C 
ENDBRANCH  19  22
ENDBRANCH  16  19
ENDBRANCH   1  13
TORSDOF 9
ENDMDL
MODEL 3
REMARK VINA RESULT:   -28.182      1.003      1.876
REMARK INTER + INTRA:         -31.762
REMARK INTER:                 -30.866
REMARK INTRA:                  -0.896
REMARK CONF_INDEPENDENT:        2.685
REMARK UNBOUND:                -0.896
REMARK  9 active torsions:
REMARK  status: ('A' for Active; 'I' for Inactive)
REMARK    1  A    between atoms: C2_2  and  N1_3 
REMARK    2  A    between atoms: N1_3  and  C3_4 
REMARK    3  A    between atoms: N1_3  and  C5_6 
REMARK    4  A    between atoms: C8_9  and  C9_10 
REMARK    5  A    between atoms: C10_11  and  C12_14 
REMARK    6  A    between atoms: C12_14  and  O2_16 
REMARK    7  A    between atoms: C13_17  and  O2_16 
REMARK    8  A    between atoms: C13_17  and  C15_19 
REMARK    9  A    between atoms: C15_19  and  O3_20 
ROOT
ATOM      1  C9  NON d   1     -45.484  16.898  -3.214  0.00  0.00     0.040 C 
ATOM      2  C10 NON d   1     -46.666  16.428  -3.680  0.00  0.00     0.120 C 
ATOM      3  C11 NON d   1     -47.045  16.491  -5.059  0.00  0.00     0.105 C 
ATOM      4  N2  NON d   1     -47.328  16.504  -6.185  0.00  0.00    -0.191 NA
ENDROOT
BRANCH   2   5
ATOM      5  C12 NON d   1     -47.542  15.586  -2.763  0.00  0.00     0.304 C 
ATOM      6  O1  NON d   1     -48.100  14.571  -3.168  0.00  0.00    -0.258 OA
BRANCH   5   7
ATOM      7  O2  NON d   1     -47.801  16.143  -1.514  0.00  0.00    -0.310 OA
BRANCH   7   8
ATOM      8  C13 NON d   1     -49.196  16.807  -1.360  0.00  0.00     0.152 C 
ATOM      9  C14 NON d   1     -49.736  17.639  -0.182  0.00  0.00     0.042 C 
BRANCH   8  10
ATOM     10  C15 NON d   1     -50.174  16.156  -2.354  0.00  0.00     0.199 C 
BRANCH  10  11
ATOM     11  O3  NON d   1     -51.127  17.115  -2.823  0.00  0.00    -0.393 OA
ATOM     12  C16 NON d   1     -52.459  16.872  -2.384  0.00  0.00     0.201 C 
ENDBRANCH  10  11
ENDBRANCH   8  10
ENDBRANCH   7   8
ENDBRANCH   5   7
ENDBRANCH   2   5
BRANCH   1  13
ATOM     13  C8  NON d   1     -44.304  17.633  -3.811  0.00  0.00    -0.035 A 
ATOM     14  C7  NON d   1     -43.028  17.148  -3.510  0.00  0.00     0.013 A 
ATOM     15  C6  NON d   1     -41.834  17.633  -4.135  0.00  0.00     0.030 A 
ATOM     16  C5  NON d   1     -41.784  18.611  -5.138  0.00  0.00     0.030 A 
ATOM     17  C18 NON d   1     -43.079  19.128  -5.399  0.00  0.00     0.030 A 
ATOM     18  C17 NON d   1     -44.301  18.663  -4.761  0.00  0.00     0.013 A 
BRANCH  16  19
ATOM     19  N1  NON d   1     -40.610  18.981  -5.851  0.00  0.00    -0.382 N 
BRANCH  19  20
ATOM     20  C2  NON d   1     -40.268  18.242  -7.132  0.00  0.00     0.118 C 
ATOM     21  C1  NON d   1     -39.604  19.001  -8.295  0.00  0.00     0.026 C 
ENDBRANCH  19  20
BRANCH  19  22
ATOM     22  C3  NON d   1     -39.912  20.290  -5.743  0.00  0.00     0.118 C 
ATOM     23  C4  NON d   1     -39.882  21.032  -4.418  0.00  0.00     0.026 C 
ENDBRANCH  19  22
ENDBRANCH  16  19
ENDBRANCH   1  13
TORSDOF 9
ENDMDL
