MODEL 1
REMARK VINA RESULT:   -12.766      0.000      0.000
REMARK INTER + INTRA:         -17.388
REMARK INTER:                 -14.854
REMARK INTRA:                  -2.533
REMARK CONF_INDEPENDENT:        2.088
REMARK UNBOUND:                -2.533
REMARK  7 active torsions:
REMARK  status: ('A' for Active; 'I' for Inactive)
REMARK    1  A    between atoms: O1_2  and  C2_3 
REMARK    2  A    between atoms: C2_3  and  C3_4 
REMARK    3  A    between atoms: C8_11  and  C9_12 
REMARK       I    between atoms: C9_12  and  N2_14 
REMARK    4  A    between atoms: N2_14  and  C10_15 
REMARK    5  A    between atoms: C12_17  and  C13_18 
REMARK    6  A    between atoms: C19_24  and  O3_25 
REMARK    7  A    between atoms: C20_26  and  N3_27 
ROOT
ATOM      1  C3  NON d   1     -39.912  19.628  -5.050  0.00  0.00    -0.017 A 
ATOM      2  C4  NON d   1     -38.736  19.274  -4.285  0.00  0.00     0.037 A 
ATOM      3  C5  NON d   1     -38.724  18.300  -3.215  0.00  0.00     0.032 A 
ATOM      4  C6  NON d   1     -37.437  17.974  -2.434  0.00  0.00     0.070 C 
ATOM      5  N1  NON d   1     -39.870  17.703  -2.835  0.00  0.00    -0.246 NA
ATOM      6  C7  NON d   1     -40.992  18.010  -3.544  0.00  0.00     0.112 A 
ATOM      7  S1  NON d   1     -42.482  17.250  -3.089  0.00  0.00    -0.062 SA
ATOM      8  C8  NON d   1     -43.370  17.939  -4.371  0.00  0.00     0.102 A 
ATOM      9  C20 NON d   1     -42.520  18.807  -5.094  0.00  0.00     0.062 A 
ATOM     10  C21 NON d   1     -41.115  18.893  -4.632  0.00  0.00     0.036 A 
ENDROOT
BRANCH   8  11
ATOM     11  C9  NON d   1     -44.788  17.530  -4.706  0.00  0.00     0.265 C 
ATOM     12  O2  NON d   1     -45.211  17.860  -5.823  0.00  0.00    -0.267 OA
ATOM     13  N2  NON d   1     -45.619  16.743  -3.815  0.00  0.00    -0.320 N 
ATOM     14  H10 NON d   1     -45.161  16.286  -3.039  0.00  0.00     0.169 HD
BRANCH  13  15
ATOM     15  C10 NON d   1     -47.072  16.434  -4.010  0.00  0.00     0.069 C 
ATOM     16  C11 NON d   1     -48.183  17.029  -3.195  0.00  0.00     0.040 C 
ATOM     17  C12 NON d   1     -49.571  16.590  -3.290  0.00  0.00    -0.048 C 
ATOM     18  C17 NON d   1     -49.699  15.465  -4.180  0.00  0.00     0.011 C 
ATOM     19  C18 NON d   1     -48.729  15.005  -5.057  0.00  0.00     0.039 C 
ATOM     20  C19 NON d   1     -47.457  15.522  -5.007  0.00  0.00     0.092 C 
BRANCH  17  21
ATOM     21  C13 NON d   1     -50.958  16.864  -2.392  0.00  0.00    -0.024 C 
ATOM     22  C14 NON d   1     -52.156  17.474  -1.641  0.00  0.00     0.019 C 
ATOM     23  C15 NON d   1     -51.752  15.562  -2.604  0.00  0.00     0.019 C 
ATOM     24  C16 NON d   1     -50.065  16.880  -1.045  0.00  0.00     0.019 C 
ENDBRANCH  17  21
BRANCH  20  25
ATOM     25  O3  NON d   1     -46.670  15.071  -6.030  0.00  0.00    -0.358 OA
ATOM     26  H23 NON d   1     -46.213  15.867  -6.373  0.00  0.00     0.217 HD
ENDBRANCH  20  25
ENDBRANCH  13  15
ENDBRANCH   8  11
BRANCH   9  27
ATOM     27  N3  NON d   1     -42.972  19.506  -6.171  0.00  0.00    -0.397 N 
ATOM     28  H24 NON d   1     -42.407  19.629  -7.004  0.00  0.00     0.156 HD
ATOM     29  H25 NON d   1     -43.969  19.483  -6.393  0.00  0.00     0.156 HD
ENDBRANCH   9  27
BRANCH   1  30
ATOM     30  C2  NON d   1     -39.869  20.717  -6.262  0.00  0.00     0.206 C 
BRANCH  30  31
ATOM     31  O1  NON d   1     -40.570  20.482  -7.532  0.00  0.00    -0.391 OA
ATOM     32  C1  NON d   1     -39.799  20.171  -8.828  0.00  0.00     0.201 C 
ENDBRANCH  30  31
ENDBRANCH   1  30
TORSDOF 7
ENDMDL
MODEL 2
REMARK VINA RESULT:   -12.640      1.905      2.862
REMARK INTER + INTRA:         -15.889
REMARK INTER:                 -14.728
REMARK INTRA:                  -1.162
REMARK CONF_INDEPENDENT:        2.088
REMARK UNBOUND:                -1.162
REMARK  7 active torsions:
REMARK  status: ('A' for Active; 'I' for Inactive)
REMARK    1  A    between atoms: O1_2  and  C2_3 
REMARK    2  A    between atoms: C2_3  and  C3_4 
REMARK    3  A    between atoms: C8_11  and  C9_12 
REMARK       I    between atoms: C9_12  and  N2_14 
REMARK    4  A    between atoms: N2_14  and  C10_15 
REMARK    5  A    between atoms: C12_17  and  C13_18 
REMARK    6  A    between atoms: C19_24  and  O3_25 
REMARK    7  A    between atoms: C20_26  and  N3_27 
ROOT
ATOM      1  C3  NON d   1     -40.274  18.448  -3.081  0.00  0.00    -0.017 A 
ATOM      2  C4  NON d   1     -39.411  19.586  -3.312  0.00  0.00     0.037 A 
ATOM      3  C5  NON d   1     -39.728  20.679  -4.205  0.00  0.00     0.032 A 
ATOM      4  C6  NON d   1     -38.761  21.860  -4.411  0.00  0.00     0.070 C 
ATOM      5  N1  NON d   1     -40.862  20.649  -4.931  0.00  0.00    -0.246 NA
ATOM      6  C7  NON d   1     -41.699  19.593  -4.727  0.00  0.00     0.112 A 
ATOM      7  S1  NON d   1     -43.174  19.529  -5.635  0.00  0.00    -0.062 SA
ATOM      8  C8  NON d   1     -43.744  18.127  -4.850  0.00  0.00     0.102 A 
ATOM      9  C20 NON d   1     -42.753  17.683  -3.944  0.00  0.00     0.062 A 
ATOM     10  C21 NON d   1     -41.525  18.506  -3.850  0.00  0.00     0.036 A 
ENDROOT
BRANCH   8  11
ATOM     11  C9  NON d   1     -45.146  17.588  -5.036  0.00  0.00     0.265 C 
ATOM     12  O2  NON d   1     -45.607  17.629  -6.185  0.00  0.00    -0.267 OA
ATOM     13  N2  NON d   1     -45.916  16.995  -3.961  0.00  0.00    -0.320 N 
ATOM     14  H10 NON d   1     -45.420  16.752  -3.115  0.00  0.00     0.169 HD
BRANCH  13  15
ATOM     15  C10 NON d   1     -47.355  16.583  -4.032  0.00  0.00     0.069 C 
ATOM     16  C11 NON d   1     -48.458  17.213  -3.232  0.00  0.00     0.040 C 
ATOM     17  C12 NON d   1     -49.820  16.689  -3.192  0.00  0.00    -0.048 C 
ATOM     18  C17 NON d   1     -49.923  15.457  -3.931  0.00  0.00     0.011 C 
ATOM     19  C18 NON d   1     -48.972  14.946  -4.801  0.00  0.00     0.039 C 
ATOM     20  C19 NON d   1     -47.733  15.535  -4.887  0.00  0.00     0.092 C 
BRANCH  17  21
ATOM     21  C13 NON d   1     -51.173  16.995  -2.255  0.00  0.00    -0.024 C 
ATOM     22  C14 NON d   1     -52.336  17.633  -1.472  0.00  0.00     0.019 C 
ATOM     23  C15 NON d   1     -51.999  15.709  -2.435  0.00  0.00     0.019 C 
ATOM     24  C16 NON d   1     -50.240  17.000  -0.935  0.00  0.00     0.019 C 
ENDBRANCH  17  21
BRANCH  20  25
ATOM     25  O3  NON d   1     -46.973  15.005  -5.892  0.00  0.00    -0.358 OA
ATOM     26  H23 NON d   1     -46.224  15.626  -6.004  0.00  0.00     0.217 HD
ENDBRANCH  20  25
ENDBRANCH  13  15
ENDBRANCH   8  11
BRANCH   9  27
ATOM     27  N3  NON d   1     -42.936  16.568  -3.184  0.00  0.00    -0.397 N 
ATOM     28  H24 NON d   1     -42.190  16.175  -2.622  0.00  0.00     0.156 HD
ATOM     29  H25 NON d   1     -43.852  16.402  -2.762  0.00  0.00     0.156 HD
ENDBRANCH   9  27
BRANCH   1  30
ATOM     30  C2  NON d   1     -39.880  17.250  -2.047  0.00  0.00     0.206 C 
BRANCH  30  31
ATOM     31  O1  NON d   1     -38.487  16.814  -1.871  0.00  0.00    -0.391 OA
ATOM     32  C1  NON d   1     -37.327  17.827  -1.840  0.00  0.00     0.201 C 
ENDBRANCH  30  31
ENDBRANCH   1  30
TORSDOF 7
ENDMDL
MODEL 3
REMARK VINA RESULT:   -10.273      2.286      3.043
REMARK INTER + INTRA:         -12.876
REMARK INTER:                 -12.361
REMARK INTRA:                  -0.515
REMARK CONF_INDEPENDENT:        2.088
REMARK UNBOUND:                -0.515
REMARK  7 active torsions:
REMARK  status: ('A' for Active; 'I' for Inactive)
REMARK    1  A    between atoms: O1_2  and  C2_3 
REMARK    2  A    between atoms: C2_3  and  C3_4 
REMARK    3  A    between atoms: C8_11  and  C9_12 
REMARK       I    between atoms: C9_12  and  N2_14 
REMARK    4  A    between atoms: N2_14  and  C10_15 
REMARK    5  A    between atoms: C12_17  and  C13_18 
REMARK    6  A    between atoms: C19_24  and  O3_25 
REMARK    7  A    between atoms: C20_26  and  N3_27 
ROOT
ATOM      1  C3  NON d   1     -39.801  19.827  -2.869  0.00  0.00    -0.017 A 
ATOM      2  C4  NON d   1     -38.690  20.349  -3.634  0.00  0.00     0.037 A 
ATOM      3  C5  NON d   1     -38.467  20.072  -5.036  0.00  0.00     0.032 A 
ATOM      4  C6  NON d   1     -37.258  20.656  -5.792  0.00  0.00     0.070 C 
ATOM      5  N1  NON d   1     -39.287  19.233  -5.696  0.00  0.00    -0.246 NA
ATOM      6  C7  NON d   1     -40.349  18.732  -5.003  0.00  0.00     0.112 A 
ATOM      7  S1  NON d   1     -41.433  17.659  -5.826  0.00  0.00    -0.062 SA
ATOM      8  C8  NON d   1     -42.506  17.530  -4.508  0.00  0.00     0.102 A 
ATOM      9  C20 NON d   1     -41.975  18.262  -3.421  0.00  0.00     0.062 A 
ATOM     10  C21 NON d   1     -40.698  18.973  -3.661  0.00  0.00     0.036 A 
ENDROOT
BRANCH   8  11
ATOM     11  C9  NON d   1     -43.855  16.850  -4.605  0.00  0.00     0.265 C 
ATOM     12  O2  NON d   1     -43.890  15.774  -5.217  0.00  0.00    -0.267 OA
ATOM     13  N2  NON d   1     -45.053  17.372  -3.976  0.00  0.00    -0.320 N 
ATOM     14  H10 NON d   1     -44.934  18.100  -3.286  0.00  0.00     0.169 HD
BRANCH  13  15
ATOM     15  C10 NON d   1     -46.442  16.842  -4.154  0.00  0.00     0.069 C 
ATOM     16  C11 NON d   1     -47.621  17.255  -3.322  0.00  0.00     0.040 C 
ATOM     17  C12 NON d   1     -48.926  16.606  -3.401  0.00  0.00    -0.048 C 
ATOM     18  C17 NON d   1     -48.891  15.478  -4.296  0.00  0.00     0.011 C 
ATOM     19  C18 NON d   1     -47.873  15.177  -5.188  0.00  0.00     0.039 C 
ATOM     20  C19 NON d   1     -46.695  15.884  -5.150  0.00  0.00     0.092 C 
BRANCH  17  21
ATOM     21  C13 NON d   1     -50.326  16.659  -2.485  0.00  0.00    -0.024 C 
ATOM     22  C14 NON d   1     -51.575  17.077  -1.685  0.00  0.00     0.019 C 
ATOM     23  C15 NON d   1     -50.987  15.308  -2.811  0.00  0.00     0.019 C 
ATOM     24  C16 NON d   1     -49.430  16.647  -1.140  0.00  0.00     0.019 C 
ENDBRANCH  17  21
BRANCH  20  25
ATOM     25  O3  NON d   1     -45.862  15.564  -6.185  0.00  0.00    -0.358 OA
ATOM     26  H23 NON d   1     -45.155  16.243  -6.167  0.00  0.00     0.217 HD
ENDBRANCH  20  25
ENDBRANCH  13  15
ENDBRANCH   8  11
BRANCH   9  27
ATOM     27  N3  NON d   1     -42.623  18.324  -2.225  0.00  0.00    -0.397 N 
ATOM     28  H24 NON d   1     -43.580  18.007  -2.118  0.00  0.00     0.156 HD
ATOM     29  H25 NON d   1     -42.087  18.196  -1.364  0.00  0.00     0.156 HD
ENDBRANCH   9  27
BRANCH   1  30
ATOM     30  C2  NON d   1     -40.022  20.186  -1.294  0.00  0.00     0.206 C 
BRANCH  30  31
ATOM     31  O1  NON d   1     -39.476  21.416  -0.702  0.00  0.00    -0.391 OA
ATOM     32  C1  NON d   1     -39.888  21.879   0.707  0.00  0.00     0.201 C 
ENDBRANCH  30  31
ENDBRANCH   1  30
TORSDOF 7
ENDMDL
