MODEL 1
REMARK VINA RESULT:   -28.503      0.000      0.000
REMARK INTER + INTRA:         -30.135
REMARK INTER:                 -29.994
REMARK INTRA:                  -0.140
REMARK CONF_INDEPENDENT:        1.492
REMARK UNBOUND:                -0.140
REMARK  5 active torsions:
REMARK  status: ('A' for Active; 'I' for Inactive)
REMARK    1  A    between atoms: C3_4  and  N2_5 
REMARK    2  A    between atoms: C6_9  and  N4_10 
REMARK    3  A    between atoms: N4_10  and  C7_11 
REMARK    4  A    between atoms: C7_11  and  C8_12 
REMARK    5  A    between atoms: C8_12  and  C9_13 
ROOT
ATOM      1  C7  NON d   1     -43.911  18.339  -4.649  0.00  0.00     0.129 C 
ENDROOT
BRANCH   1   2
ATOM      2  N4  NON d   1     -42.749  17.442  -4.659  0.00  0.00    -0.373 N 
ATOM      3  H10 NON d   1     -42.766  16.604  -4.085  0.00  0.00     0.161 HD
BRANCH   2   4
ATOM      4  C6  NON d   1     -41.408  17.915  -4.782  0.00  0.00     0.150 A 
ATOM      5  N3  NON d   1     -41.025  18.269  -6.107  0.00  0.00    -0.045 NA
ATOM      6  C3  NON d   1     -39.785  18.765  -6.388  0.00  0.00     0.726 A 
ATOM      7  N1  NON d   1     -38.904  18.813  -5.260  0.00  0.00    -0.067 NA
ATOM      8  C2  NON d   1     -39.284  18.432  -3.868  0.00  0.00     0.059 A 
ATOM      9  C1  NON d   1     -38.308  18.565  -2.683  0.00  0.00     0.072 C 
ATOM     10  C17 NON d   1     -40.577  18.049  -3.627  0.00  0.00     0.009 A 
ATOM     11  C18 NON d   1     -40.964  17.845  -2.186  0.00  0.00     0.054 C 
BRANCH   6  12
ATOM     12  N2  NON d   1     -39.416  19.254  -7.856  0.00  0.00    -0.223 N 
ATOM     13  C4  NON d   1     -38.293  18.547  -8.413  0.00  0.00     0.168 C 
ATOM     14  C5  NON d   1     -40.325  20.199  -8.664  0.00  0.00     0.168 C 
ENDBRANCH   6  12
ENDBRANCH   2   4
ENDBRANCH   1   2
BRANCH   1  15
ATOM     15  C8  NON d   1     -45.132  18.032  -5.518  0.00  0.00     0.098 C 
BRANCH  15  16
ATOM     16  C9  NON d   1     -46.263  17.263  -4.768  0.00  0.00     0.108 A 
ATOM     17  N5  NON d   1     -47.083  16.504  -5.435  0.00  0.00    -0.234 NA
ATOM     18  C10 NON d   1     -48.119  15.837  -4.735  0.00  0.00     0.074 A 
ATOM     19  C11 NON d   1     -49.005  15.011  -5.434  0.00  0.00     0.032 A 
ATOM     20  C15 NON d   1     -48.310  15.971  -3.359  0.00  0.00     0.061 A 
ATOM     21  C12 NON d   1     -50.049  14.347  -4.772  0.00  0.00     0.002 A 
ATOM     22  C13 NON d   1     -50.227  14.503  -3.398  0.00  0.00     0.001 A 
ATOM     23  C14 NON d   1     -49.354  15.319  -2.683  0.00  0.00     0.019 A 
ATOM     24  C16 NON d   1     -47.367  16.829  -2.639  0.00  0.00     0.259 A 
ATOM     25  O1  NON d   1     -47.439  17.028  -1.431  0.00  0.00    -0.267 OA
ATOM     26  N6  NON d   1     -46.382  17.410  -3.405  0.00  0.00    -0.311 N 
ATOM     27  H19 NON d   1     -45.765  17.986  -2.857  0.00  0.00     0.170 HD
ENDBRANCH  15  16
ENDBRANCH   1  15
TORSDOF 5
ENDMDL
MODEL 2
REMARK VINA RESULT:   -27.623      1.140      3.040
REMARK INTER + INTRA:         -29.230
REMARK INTER:                 -29.114
REMARK INTRA:                  -0.116
REMARK CONF_INDEPENDENT:        1.492
REMARK UNBOUND:                -0.116
REMARK  5 active torsions:
REMARK  status: ('A' for Active; 'I' for Inactive)
REMARK    1  A    between atoms: C3_4  and  N2_5 
REMARK    2  A    between atoms: C6_9  and  N4_10 
REMARK    3  A    between atoms: N4_10  and  C7_11 
REMARK    4  A    between atoms: C7_11  and  C8_12 
REMARK    5  A    between atoms: C8_12  and  C9_13 
ROOT
ATOM      1  C7  NON d   1     -43.968  18.410  -4.682  0.00  0.00     0.129 C 
ENDROOT
BRANCH   1   2
ATOM      2  N4  NON d   1     -43.018  19.441  -5.119  0.00  0.00    -0.373 N 
ATOM      3  H10 NON d   1     -43.266  20.044  -5.897  0.00  0.00     0.161 HD
BRANCH   2   4
ATOM      4  C6  NON d   1     -41.603  19.253  -5.085  0.00  0.00     0.150 A 
ATOM      5  N3  NON d   1     -41.116  18.648  -3.892  0.00  0.00    -0.045 NA
ATOM      6  C3  NON d   1     -39.790  18.375  -3.715  0.00  0.00     0.726 A 
ATOM      7  N1  NON d   1     -38.952  18.822  -4.786  0.00  0.00    -0.067 NA
ATOM      8  C2  NON d   1     -39.444  19.472  -6.037  0.00  0.00     0.059 A 
ATOM      9  C1  NON d   1     -38.497  19.875  -7.182  0.00  0.00     0.072 C 
ATOM     10  C17 NON d   1     -40.796  19.617  -6.207  0.00  0.00     0.009 A 
ATOM     11  C18 NON d   1     -41.260  20.111  -7.552  0.00  0.00     0.054 C 
BRANCH   6  12
ATOM     12  N2  NON d   1     -39.283  17.601  -2.421  0.00  0.00    -0.223 N 
ATOM     13  C4  NON d   1     -40.353  16.967  -1.696  0.00  0.00     0.168 C 
ATOM     14  C5  NON d   1     -37.789  17.360  -2.135  0.00  0.00     0.168 C 
ENDBRANCH   6  12
ENDBRANCH   2   4
ENDBRANCH   1   2
BRANCH   1  15
ATOM     15  C8  NON d   1     -45.172  18.048  -5.554  0.00  0.00     0.098 C 
BRANCH  15  16
ATOM     16  C9  NON d   1     -46.290  17.271  -4.793  0.00  0.00     0.108 A 
ATOM     17  N5  NON d   1     -47.110  16.505  -5.453  0.00  0.00    -0.234 NA
ATOM     18  C10 NON d   1     -48.135  15.831  -4.743  0.00  0.00     0.074 A 
ATOM     19  C11 NON d   1     -49.020  14.997  -5.433  0.00  0.00     0.032 A 
ATOM     20  C15 NON d   1     -48.315  15.965  -3.366  0.00  0.00     0.061 A 
ATOM     21  C12 NON d   1     -50.053  14.326  -4.762  0.00  0.00     0.002 A 
ATOM     22  C13 NON d   1     -50.220  14.482  -3.386  0.00  0.00     0.001 A 
ATOM     23  C14 NON d   1     -49.348  15.305  -2.680  0.00  0.00     0.019 A 
ATOM     24  C16 NON d   1     -47.372  16.831  -2.655  0.00  0.00     0.259 A 
ATOM     25  O1  NON d   1     -47.436  17.031  -1.447  0.00  0.00    -0.267 OA
ATOM     26  N6  NON d   1     -46.399  17.419  -3.430  0.00  0.00    -0.311 N 
ATOM     27  H19 NON d   1     -45.782  18.000  -2.887  0.00  0.00     0.170 HD
ENDBRANCH  15  16
ENDBRANCH   1  15
TORSDOF 5
ENDMDL
MODEL 3
REMARK VINA RESULT:   -27.223      2.031      2.304
REMARK INTER + INTRA:         -28.552
REMARK INTER:                 -28.715
REMARK INTRA:                   0.163
REMARK CONF_INDEPENDENT:        1.492
REMARK UNBOUND:                 0.163
REMARK  5 active torsions:
REMARK  status: ('A' for Active; 'I' for Inactive)
REMARK    1  A    between atoms: C3_4  and  N2_5 
REMARK    2  A    between atoms: C6_9  and  N4_10 
REMARK    3  A    between atoms: N4_10  and  C7_11 
REMARK    4  A    between atoms: C7_11  and  C8_12 
REMARK    5  A    between atoms: C8_12  and  C9_13 
ROOT
ATOM      1  C7  NON d   1     -44.028  18.487  -4.641  0.00  0.00     0.129 C 
ENDROOT
BRANCH   1   2
ATOM      2  N4  NON d   1     -43.042  19.460  -5.128  0.00  0.00    -0.373 N 
ATOM      3  H10 NON d   1     -42.975  19.638  -6.126  0.00  0.00     0.161 HD
BRANCH   2   4
ATOM      4  C6  NON d   1     -41.763  19.636  -4.520  0.00  0.00     0.150 A 
ATOM      5  N3  NON d   1     -41.195  20.929  -4.702  0.00  0.00    -0.045 NA
ATOM      6  C3  NON d   1     -39.989  21.267  -4.159  0.00  0.00     0.726 A 
ATOM      7  N1  NON d   1     -39.333  20.193  -3.477  0.00  0.00    -0.067 NA
ATOM      8  C2  NON d   1     -39.906  18.828  -3.289  0.00  0.00     0.059 A 
ATOM      9  C1  NON d   1     -39.177  17.731  -2.491  0.00  0.00     0.072 C 
ATOM     10  C17 NON d   1     -41.170  18.582  -3.759  0.00  0.00     0.009 A 
ATOM     11  C18 NON d   1     -41.780  17.253  -3.396  0.00  0.00     0.054 C 
BRANCH   6  12
ATOM     12  N2  NON d   1     -39.426  22.749  -4.284  0.00  0.00    -0.223 N 
ATOM     13  C4  NON d   1     -38.480  22.896  -5.360  0.00  0.00     0.168 C 
ATOM     14  C5  NON d   1     -40.024  23.930  -3.497  0.00  0.00     0.168 C 
ENDBRANCH   6  12
ENDBRANCH   2   4
ENDBRANCH   1   2
BRANCH   1  15
ATOM     15  C8  NON d   1     -45.187  18.045  -5.536  0.00  0.00     0.098 C 
BRANCH  15  16
ATOM     16  C9  NON d   1     -46.305  17.263  -4.780  0.00  0.00     0.108 A 
ATOM     17  N5  NON d   1     -47.128  16.505  -5.444  0.00  0.00    -0.234 NA
ATOM     18  C10 NON d   1     -48.153  15.827  -4.738  0.00  0.00     0.074 A 
ATOM     19  C11 NON d   1     -49.041  15.002  -5.434  0.00  0.00     0.032 A 
ATOM     20  C15 NON d   1     -48.330  15.949  -3.359  0.00  0.00     0.061 A 
ATOM     21  C12 NON d   1     -50.075  14.327  -4.766  0.00  0.00     0.002 A 
ATOM     22  C13 NON d   1     -50.239  14.471  -3.389  0.00  0.00     0.001 A 
ATOM     23  C14 NON d   1     -49.362  15.286  -2.677  0.00  0.00     0.019 A 
ATOM     24  C16 NON d   1     -47.383  16.806  -2.643  0.00  0.00     0.259 A 
ATOM     25  O1  NON d   1     -47.444  16.996  -1.433  0.00  0.00    -0.267 OA
ATOM     26  N6  NON d   1     -46.411  17.399  -3.415  0.00  0.00    -0.311 N 
ATOM     27  H19 NON d   1     -45.791  17.974  -2.868  0.00  0.00     0.170 HD
ENDBRANCH  15  16
ENDBRANCH   1  15
TORSDOF 5
ENDMDL
