MODEL 1
REMARK VINA RESULT:   -35.429      0.000      0.000
REMARK INTER + INTRA:         -37.159
REMARK INTER:                 -36.622
REMARK INTRA:                  -0.537
REMARK CONF_INDEPENDENT:        1.193
REMARK UNBOUND:                -0.537
REMARK  4 active torsions:
REMARK  status: ('A' for Active; 'I' for Inactive)
REMARK    1  A    between atoms: C4_4  and  N1_5 
REMARK       I    between atoms: N1_5  and  C5_6 
REMARK    2  A    between atoms: C5_6  and  C6_8 
REMARK    3  A    between atoms: C8_10  and  C9_11 
REMARK    4  A    between atoms: C14_18  and  C15_19 
REMARK       I    between atoms: C15_19  and  N3_20 
ROOT
ATOM      1  C1  NON d   1     -39.367  20.197  -5.215  0.00  0.00     0.049 C 
ATOM      2  C2  NON d   1     -40.103  19.262  -4.238  0.00  0.00    -0.044 A 
ATOM      3  C3  NON d   1     -41.484  18.973  -4.338  0.00  0.00     0.037 A 
ATOM      4  C4  NON d   1     -42.096  18.052  -3.469  0.00  0.00     0.035 A 
ATOM      5  C12 NON d   1     -41.316  17.462  -2.470  0.00  0.00     0.030 A 
ATOM      6  C13 NON d   1     -39.956  17.751  -2.347  0.00  0.00     0.020 A 
ATOM      7  C14 NON d   1     -39.338  18.648  -3.222  0.00  0.00     0.037 A 
ENDROOT
BRANCH   4   8
ATOM      8  N1  NON d   1     -43.471  17.748  -3.657  0.00  0.00    -0.321 N 
ATOM      9  C5  NON d   1     -44.002  16.879  -4.612  0.00  0.00     0.282 C 
ATOM     10  O1  NON d   1     -43.322  16.277  -5.438  0.00  0.00    -0.265 OA
ATOM     11  H5  NON d   1     -44.122  18.262  -3.082  0.00  0.00     0.169 HD
BRANCH   9  12
ATOM     12  C6  NON d   1     -45.444  16.723  -4.592  0.00  0.00     0.171 A 
ATOM     13  C7  NON d   1     -46.418  16.577  -3.626  0.00  0.00     0.075 A 
ATOM     14  C8  NON d   1     -47.638  16.445  -4.350  0.00  0.00     0.068 A 
ATOM     15  N2  NON d   1     -47.408  16.505  -5.665  0.00  0.00    -0.132 NA
ATOM     16  O2  NON d   1     -46.054  16.684  -5.814  0.00  0.00    -0.207 OA
BRANCH  14  17
ATOM     17  C9  NON d   1     -49.033  16.199  -3.835  0.00  0.00     0.032 C 
ATOM     18  C10 NON d   1     -49.149  16.338  -2.309  0.00  0.00     0.016 C 
ATOM     19  C11 NON d   1     -49.578  14.828  -4.249  0.00  0.00     0.016 C 
ENDBRANCH  14  17
ENDBRANCH   9  12
ENDBRANCH   4   8
BRANCH   7  20
ATOM     20  C15 NON d   1     -37.871  18.893  -3.093  0.00  0.00     0.249 C 
ATOM     21  N3  NON d   1     -37.406  19.248  -1.855  0.00  0.00    -0.366 N 
ATOM     22  H16 NON d   1     -36.422  19.477  -1.784  0.00  0.00     0.159 HD
ATOM     23  H17 NON d   1     -38.010  19.503  -1.086  0.00  0.00     0.159 HD
ATOM     24  O3  NON d   1     -37.098  18.803  -4.036  0.00  0.00    -0.268 OA
ENDBRANCH   7  20
TORSDOF 4
ENDMDL
MODEL 2
REMARK VINA RESULT:   -34.603      1.026      1.766
REMARK INTER + INTRA:         -36.393
REMARK INTER:                 -35.796
REMARK INTRA:                  -0.597
REMARK CONF_INDEPENDENT:        1.193
REMARK UNBOUND:                -0.597
REMARK  4 active torsions:
REMARK  status: ('A' for Active; 'I' for Inactive)
REMARK    1  A    between atoms: C4_4  and  N1_5 
REMARK       I    between atoms: N1_5  and  C5_6 
REMARK    2  A    between atoms: C5_6  and  C6_8 
REMARK    3  A    between atoms: C8_10  and  C9_11 
REMARK    4  A    between atoms: C14_18  and  C15_19 
REMARK       I    between atoms: C15_19  and  N3_20 
ROOT
ATOM      1  C1  NON d   1     -38.769  18.129  -2.673  0.00  0.00     0.049 C 
ATOM      2  C2  NON d   1     -39.794  18.599  -3.723  0.00  0.00    -0.044 A 
ATOM      3  C3  NON d   1     -41.143  18.175  -3.729  0.00  0.00     0.037 A 
ATOM      4  C4  NON d   1     -42.060  18.690  -4.661  0.00  0.00     0.035 A 
ATOM      5  C12 NON d   1     -41.597  19.601  -5.616  0.00  0.00     0.030 A 
ATOM      6  C13 NON d   1     -40.263  20.016  -5.633  0.00  0.00     0.020 A 
ATOM      7  C14 NON d   1     -39.353  19.523  -4.696  0.00  0.00     0.037 A 
ENDROOT
BRANCH   4   8
ATOM      8  N1  NON d   1     -43.418  18.281  -4.579  0.00  0.00    -0.321 N 
ATOM      9  C5  NON d   1     -43.911  16.999  -4.832  0.00  0.00     0.282 C 
ATOM     10  O1  NON d   1     -43.209  16.057  -5.188  0.00  0.00    -0.265 OA
ATOM     11  H5  NON d   1     -44.090  19.007  -4.378  0.00  0.00     0.169 HD
BRANCH   9  12
ATOM     12  C6  NON d   1     -45.341  16.828  -4.662  0.00  0.00     0.171 A 
ATOM     13  C7  NON d   1     -46.217  16.744  -3.599  0.00  0.00     0.075 A 
ATOM     14  C8  NON d   1     -47.497  16.542  -4.190  0.00  0.00     0.068 A 
ATOM     15  N2  NON d   1     -47.394  16.505  -5.522  0.00  0.00    -0.132 NA
ATOM     16  O2  NON d   1     -46.064  16.689  -5.813  0.00  0.00    -0.207 OA
BRANCH  14  17
ATOM     17  C9  NON d   1     -48.832  16.319  -3.527  0.00  0.00     0.032 C 
ATOM     18  C10 NON d   1     -48.797  16.539  -2.006  0.00  0.00     0.016 C 
ATOM     19  C11 NON d   1     -49.403  14.926  -3.811  0.00  0.00     0.016 C 
ENDBRANCH  14  17
ENDBRANCH   9  12
ENDBRANCH   4   8
BRANCH   7  20
ATOM     20  C15 NON d   1     -37.949  20.028  -4.713  0.00  0.00     0.249 C 
ATOM     21  N3  NON d   1     -37.716  21.242  -4.125  0.00  0.00    -0.366 N 
ATOM     22  H16 NON d   1     -36.776  21.612  -4.195  0.00  0.00     0.159 HD
ATOM     23  H17 NON d   1     -38.453  21.868  -3.832  0.00  0.00     0.159 HD
ATOM     24  O3  NON d   1     -37.029  19.413  -5.236  0.00  0.00    -0.268 OA
ENDBRANCH   7  20
TORSDOF 4
ENDMDL
