MODEL 1
REMARK VINA RESULT:   -34.573      0.000      0.000
REMARK INTER + INTRA:         -38.768
REMARK INTER:                 -37.258
REMARK INTRA:                  -1.511
REMARK CONF_INDEPENDENT:        2.685
REMARK UNBOUND:                -1.511
REMARK  9 active torsions:
REMARK  status: ('A' for Active; 'I' for Inactive)
REMARK    1  A    between atoms: C1_2  and  C2_3 
REMARK       I    between atoms: C1_2  and  N3_18 
REMARK    2  A    between atoms: C2_3  and  C3_4 
REMARK    3  A    between atoms: C3_4  and  C4_5 
REMARK    4  A    between atoms: C4_5  and  C5_6 
REMARK    5  A    between atoms: C6_8  and  C7_9 
REMARK    6  A    between atoms: N3_18  and  C13_19 
REMARK    7  A    between atoms: C14_20  and  C13_19 
REMARK    8  A    between atoms: C14_20  and  O3_21 
REMARK    9  A    between atoms: C14_20  and  C15_22 
ROOT
ATOM      1  C2  NON d   1     -42.124  19.020  -4.222  0.00  0.00     0.103 C 
ENDROOT
BRANCH   1   2
ATOM      2  C1  NON d   1     -40.831  18.884  -5.013  0.00  0.00     0.217 C 
ATOM      3  O1  NON d   1     -39.794  18.462  -4.513  0.00  0.00    -0.274 OA
ATOM      4  N3  NON d   1     -40.962  19.162  -6.361  0.00  0.00    -0.359 N 
ATOM      5  H11 NON d   1     -41.746  19.725  -6.662  0.00  0.00     0.162 HD
BRANCH   4   6
ATOM      6  C13 NON d   1     -39.843  18.945  -7.267  0.00  0.00     0.154 C 
BRANCH   6   7
ATOM      7  C14 NON d   1     -40.024  19.509  -8.815  0.00  0.00     0.140 C 
BRANCH   7   8
ATOM      8  O3  NON d   1     -41.448  19.965  -8.957  0.00  0.00    -0.394 OA
ATOM      9  H15 NON d   1     -41.809  19.462  -9.704  0.00  0.00     0.210 HD
ENDBRANCH   7   8
BRANCH   7  10
ATOM     10  C15 NON d   1     -39.435  20.923  -8.659  0.00  0.00     0.016 C 
ATOM     11  C16 NON d   1     -40.114  21.849  -7.636  0.00  0.00     0.007 C 
ATOM     12  C17 NON d   1     -39.162  22.984  -7.239  0.00  0.00     0.000 C 
ATOM     13  C18 NON d   1     -38.663  23.782  -8.443  0.00  0.00     0.000 C 
ATOM     14  C19 NON d   1     -38.154  22.910  -9.589  0.00  0.00     0.000 C 
ATOM     15  C20 NON d   1     -39.100  21.757  -9.924  0.00  0.00     0.007 C 
ENDBRANCH   7  10
ENDBRANCH   6   7
ENDBRANCH   4   6
ENDBRANCH   1   2
BRANCH   1  16
ATOM     16  C3  NON d   1     -43.355  18.440  -4.933  0.00  0.00     0.017 C 
BRANCH  16  17
ATOM     17  C4  NON d   1     -43.828  17.110  -4.341  0.00  0.00     0.089 C 
BRANCH  17  18
ATOM     18  C5  NON d   1     -45.271  16.841  -4.535  0.00  0.00     0.173 A 
ATOM     19  N1  NON d   1     -46.225  16.615  -3.665  0.00  0.00    -0.204 NA
ATOM     20  C6  NON d   1     -47.319  16.380  -4.470  0.00  0.00     0.189 A 
ATOM     21  N2  NON d   1     -47.065  16.520  -5.781  0.00  0.00    -0.106 NA
ATOM     22  O2  NON d   1     -45.707  16.819  -5.827  0.00  0.00    -0.196 OA
BRANCH  20  23
ATOM     23  C7  NON d   1     -48.621  16.001  -3.927  0.00  0.00     0.014 A 
ATOM     24  C8  NON d   1     -49.188  14.760  -4.258  0.00  0.00     0.018 A 
ATOM     25  C9  NON d   1     -50.439  14.394  -3.752  0.00  0.00     0.043 A 
ATOM     26  C10 NON d   1     -51.125  15.269  -2.917  0.00  0.00     0.116 A 
ATOM     27  F1  NON d   1     -52.323  14.917  -2.433  0.00  0.00    -0.206 F 
ATOM     28  C11 NON d   1     -50.586  16.503  -2.580  0.00  0.00     0.043 A 
ATOM     29  C12 NON d   1     -49.335  16.871  -3.084  0.00  0.00     0.018 A 
ENDBRANCH  20  23
ENDBRANCH  17  18
ENDBRANCH  16  17
ENDBRANCH   1  16
TORSDOF 9
ENDMDL
MODEL 2
REMARK VINA RESULT:   -34.409      1.381      1.833
REMARK INTER + INTRA:         -38.658
REMARK INTER:                 -37.093
REMARK INTRA:                  -1.565
REMARK CONF_INDEPENDENT:        2.685
REMARK UNBOUND:                -1.565
REMARK  9 active torsions:
REMARK  status: ('A' for Active; 'I' for Inactive)
REMARK    1  A    between atoms: C1_2  and  C2_3 
REMARK       I    between atoms: C1_2  and  N3_18 
REMARK    2  A    between atoms: C2_3  and  C3_4 
REMARK    3  A    between atoms: C3_4  and  C4_5 
REMARK    4  A    between atoms: C4_5  and  C5_6 
REMARK    5  A    between atoms: C6_8  and  C7_9 
REMARK    6  A    between atoms: N3_18  and  C13_19 
REMARK    7  A    between atoms: C14_20  and  C13_19 
REMARK    8  A    between atoms: C14_20  and  O3_21 
REMARK    9  A    between atoms: C14_20  and  C15_22 
ROOT
ATOM      1  C2  NON d   1     -41.861  18.319  -3.669  0.00  0.00     0.103 C 
ENDROOT
BRANCH   1   2
ATOM      2  C1  NON d   1     -41.342  18.773  -5.026  0.00  0.00     0.217 C 
ATOM      3  O1  NON d   1     -42.089  19.088  -5.946  0.00  0.00    -0.274 OA
ATOM      4  N3  NON d   1     -39.968  18.913  -5.087  0.00  0.00    -0.359 N 
ATOM      5  H11 NON d   1     -39.404  18.420  -4.408  0.00  0.00     0.162 HD
BRANCH   4   6
ATOM      6  C13 NON d   1     -39.339  19.467  -6.276  0.00  0.00     0.154 C 
BRANCH   6   7
ATOM      7  C14 NON d   1     -39.868  18.883  -7.734  0.00  0.00     0.140 C 
BRANCH   7   8
ATOM      8  O3  NON d   1     -40.883  19.857  -8.260  0.00  0.00    -0.394 OA
ATOM      9  H15 NON d   1     -41.727  19.599  -7.854  0.00  0.00     0.210 HD
ENDBRANCH   7   8
BRANCH   7  10
ATOM     10  C15 NON d   1     -38.725  19.361  -8.648  0.00  0.00     0.016 C 
ATOM     11  C16 NON d   1     -37.299  18.947  -8.252  0.00  0.00     0.007 C 
ATOM     12  C17 NON d   1     -36.362  19.054  -9.461  0.00  0.00     0.000 C 
ATOM     13  C18 NON d   1     -36.365  20.449 -10.087  0.00  0.00     0.000 C 
ATOM     14  C19 NON d   1     -37.765  21.009 -10.327  0.00  0.00     0.000 C 
ATOM     15  C20 NON d   1     -38.690  20.839  -9.121  0.00  0.00     0.007 C 
ENDBRANCH   7  10
ENDBRANCH   6   7
ENDBRANCH   4   6
ENDBRANCH   1   2
BRANCH   1  16
ATOM     16  C3  NON d   1     -43.374  18.060  -3.633  0.00  0.00     0.017 C 
BRANCH  16  17
ATOM     17  C4  NON d   1     -43.785  16.766  -4.342  0.00  0.00     0.089 C 
BRANCH  17  18
ATOM     18  C5  NON d   1     -45.246  16.620  -4.530  0.00  0.00     0.173 A 
ATOM     19  N1  NON d   1     -46.206  16.418  -3.660  0.00  0.00    -0.204 NA
ATOM     20  C6  NON d   1     -47.322  16.312  -4.461  0.00  0.00     0.189 A 
ATOM     21  N2  NON d   1     -47.072  16.505  -5.766  0.00  0.00    -0.106 NA
ATOM     22  O2  NON d   1     -45.696  16.702  -5.815  0.00  0.00    -0.196 OA
BRANCH  20  23
ATOM     23  C7  NON d   1     -48.644  16.003  -3.921  0.00  0.00     0.014 A 
ATOM     24  C8  NON d   1     -49.173  14.709  -4.049  0.00  0.00     0.018 A 
ATOM     25  C9  NON d   1     -50.442  14.408  -3.546  0.00  0.00     0.043 A 
ATOM     26  C10 NON d   1     -51.184  15.401  -2.914  0.00  0.00     0.116 A 
ATOM     27  F1  NON d   1     -52.400  15.111  -2.433  0.00  0.00    -0.206 F 
ATOM     28  C11 NON d   1     -50.683  16.688  -2.780  0.00  0.00     0.043 A 
ATOM     29  C12 NON d   1     -49.415  16.992  -3.282  0.00  0.00     0.018 A 
ENDBRANCH  20  23
ENDBRANCH  17  18
ENDBRANCH  16  17
ENDBRANCH   1  16
TORSDOF 9
ENDMDL
MODEL 3
REMARK VINA RESULT:   -33.880      3.288      4.572
REMARK INTER + INTRA:         -38.136
REMARK INTER:                 -36.565
REMARK INTRA:                  -1.571
REMARK CONF_INDEPENDENT:        2.685
REMARK UNBOUND:                -1.571
REMARK  9 active torsions:
REMARK  status: ('A' for Active; 'I' for Inactive)
REMARK    1  A    between atoms: C1_2  and  C2_3 
REMARK       I    between atoms: C1_2  and  N3_18 
REMARK    2  A    between atoms: C2_3  and  C3_4 
REMARK    3  A    between atoms: C3_4  and  C4_5 
REMARK    4  A    between atoms: C4_5  and  C5_6 
REMARK    5  A    between atoms: C6_8  and  C7_9 
REMARK    6  A    between atoms: N3_18  and  C13_19 
REMARK    7  A    between atoms: C14_20  and  C13_19 
REMARK    8  A    between atoms: C14_20  and  O3_21 
REMARK    9  A    between atoms: C14_20  and  C15_22 
ROOT
ATOM      1  C2  NON d   1     -41.987  18.893  -5.070  0.00  0.00     0.103 C 
ENDROOT
BRANCH   1   2
ATOM      2  C1  NON d   1     -41.291  18.879  -3.717  0.00  0.00     0.217 C 
ATOM      3  O1  NON d   1     -41.612  18.109  -2.818  0.00  0.00    -0.274 OA
ATOM      4  N3  NON d   1     -40.196  19.720  -3.635  0.00  0.00    -0.359 N 
ATOM      5  H11 NON d   1     -40.130  20.486  -4.291  0.00  0.00     0.162 HD
BRANCH   4   6
ATOM      6  C13 NON d   1     -39.352  19.714  -2.450  0.00  0.00     0.154 C 
BRANCH   6   7
ATOM      7  C14 NON d   1     -38.397  21.047  -2.214  0.00  0.00     0.140 C 
BRANCH   7   8
ATOM      8  O3  NON d   1     -38.492  21.886  -3.456  0.00  0.00    -0.394 OA
ATOM      9  H15 NON d   1     -38.014  21.391  -4.141  0.00  0.00     0.210 HD
ENDBRANCH   7   8
BRANCH   7  10
ATOM     10  C15 NON d   1     -39.353  21.920  -1.379  0.00  0.00     0.016 C 
ATOM     11  C16 NON d   1     -39.762  21.379   0.001  0.00  0.00     0.007 C 
ATOM     12  C17 NON d   1     -40.278  22.522   0.883  0.00  0.00     0.000 C 
ATOM     13  C18 NON d   1     -41.433  23.288   0.239  0.00  0.00     0.000 C 
ATOM     14  C19 NON d   1     -41.171  23.687  -1.211  0.00  0.00     0.000 C 
ATOM     15  C20 NON d   1     -40.607  22.540  -2.051  0.00  0.00     0.007 C 
ENDBRANCH   7  10
ENDBRANCH   6   7
ENDBRANCH   4   6
ENDBRANCH   1   2
BRANCH   1  16
ATOM     16  C3  NON d   1     -43.510  18.720  -4.991  0.00  0.00     0.017 C 
BRANCH  16  17
ATOM     17  C4  NON d   1     -43.939  17.432  -4.283  0.00  0.00     0.089 C 
BRANCH  17  18
ATOM     18  C5  NON d   1     -45.355  17.061  -4.511  0.00  0.00     0.173 A 
ATOM     19  N1  NON d   1     -46.338  16.875  -3.663  0.00  0.00    -0.204 NA
ATOM     20  C6  NON d   1     -47.376  16.492  -4.485  0.00  0.00     0.189 A 
ATOM     21  N2  NON d   1     -47.065  16.505  -5.791  0.00  0.00    -0.106 NA
ATOM     22  O2  NON d   1     -45.724  16.875  -5.810  0.00  0.00    -0.196 OA
BRANCH  20  23
ATOM     23  C7  NON d   1     -48.682  16.099  -3.961  0.00  0.00     0.014 A 
ATOM     24  C8  NON d   1     -49.468  17.028  -3.261  0.00  0.00     0.018 A 
ATOM     25  C9  NON d   1     -50.714  16.658  -2.746  0.00  0.00     0.043 A 
ATOM     26  C10 NON d   1     -51.175  15.358  -2.929  0.00  0.00     0.116 A 
ATOM     27  F1  NON d   1     -52.368  15.005  -2.435  0.00  0.00    -0.206 F 
ATOM     28  C11 NON d   1     -50.412  14.422  -3.614  0.00  0.00     0.043 A 
ATOM     29  C12 NON d   1     -49.167  14.789  -4.130  0.00  0.00     0.018 A 
ENDBRANCH  20  23
ENDBRANCH  17  18
ENDBRANCH  16  17
ENDBRANCH   1  16
TORSDOF 9
ENDMDL
MODEL 4
REMARK VINA RESULT:   -33.679      1.612      2.499
REMARK INTER + INTRA:         -38.111
REMARK INTER:                 -36.364
REMARK INTRA:                  -1.748
REMARK CONF_INDEPENDENT:        2.685
REMARK UNBOUND:                -1.748
REMARK  9 active torsions:
REMARK  status: ('A' for Active; 'I' for Inactive)
REMARK    1  A    between atoms: C1_2  and  C2_3 
REMARK       I    between atoms: C1_2  and  N3_18 
REMARK    2  A    between atoms: C2_3  and  C3_4 
REMARK    3  A    between atoms: C3_4  and  C4_5 
REMARK    4  A    between atoms: C4_5  and  C5_6 
REMARK    5  A    between atoms: C6_8  and  C7_9 
REMARK    6  A    between atoms: N3_18  and  C13_19 
REMARK    7  A    between atoms: C14_20  and  C13_19 
REMARK    8  A    between atoms: C14_20  and  O3_21 
REMARK    9  A    between atoms: C14_20  and  C15_22 
ROOT
ATOM      1  C2  NON d   1     -41.951  17.911  -3.016  0.00  0.00     0.103 C 
ENDROOT
BRANCH   1   2
ATOM      2  C1  NON d   1     -40.934  18.697  -3.829  0.00  0.00     0.217 C 
ATOM      3  O1  NON d   1     -41.000  18.796  -5.050  0.00  0.00    -0.274 OA
ATOM      4  N3  NON d   1     -40.008  19.384  -3.065  0.00  0.00    -0.359 N 
ATOM      5  H11 NON d   1     -39.851  19.080  -2.114  0.00  0.00     0.162 HD
BRANCH   4   6
ATOM      6  C13 NON d   1     -39.058  20.285  -3.699  0.00  0.00     0.154 C 
BRANCH   6   7
ATOM      7  C14 NON d   1     -37.951  19.595  -4.721  0.00  0.00     0.140 C 
BRANCH   7   8
ATOM      8  O3  NON d   1     -38.117  18.106  -4.613  0.00  0.00    -0.394 OA
ATOM      9  H15 NON d   1     -39.062  17.938  -4.758  0.00  0.00     0.210 HD
ENDBRANCH   7   8
BRANCH   7  10
ATOM     10  C15 NON d   1     -38.701  19.726  -6.060  0.00  0.00     0.016 C 
ATOM     11  C16 NON d   1     -38.129  18.946  -7.255  0.00  0.00     0.007 C 
ATOM     12  C17 NON d   1     -39.205  18.770  -8.333  0.00  0.00     0.000 C 
ATOM     13  C18 NON d   1     -39.803  20.100  -8.792  0.00  0.00     0.000 C 
ATOM     14  C19 NON d   1     -40.213  21.016  -7.642  0.00  0.00     0.000 C 
ATOM     15  C20 NON d   1     -39.140  21.128  -6.558  0.00  0.00     0.007 C 
ENDBRANCH   7  10
ENDBRANCH   6   7
ENDBRANCH   4   6
ENDBRANCH   1   2
BRANCH   1  16
ATOM     16  C3  NON d   1     -43.384  17.993  -3.560  0.00  0.00     0.017 C 
BRANCH  16  17
ATOM     17  C4  NON d   1     -43.793  16.767  -4.382  0.00  0.00     0.089 C 
BRANCH  17  18
ATOM     18  C5  NON d   1     -45.255  16.623  -4.565  0.00  0.00     0.173 A 
ATOM     19  N1  NON d   1     -46.212  16.429  -3.690  0.00  0.00    -0.204 NA
ATOM     20  C6  NON d   1     -47.332  16.320  -4.487  0.00  0.00     0.189 A 
ATOM     21  N2  NON d   1     -47.085  16.504  -5.794  0.00  0.00    -0.106 NA
ATOM     22  O2  NON d   1     -45.708  16.697  -5.849  0.00  0.00    -0.196 OA
BRANCH  20  23
ATOM     23  C7  NON d   1     -48.652  16.019  -3.941  0.00  0.00     0.014 A 
ATOM     24  C8  NON d   1     -49.185  14.726  -4.059  0.00  0.00     0.018 A 
ATOM     25  C9  NON d   1     -50.454  14.431  -3.550  0.00  0.00     0.043 A 
ATOM     26  C10 NON d   1     -51.191  15.430  -2.922  0.00  0.00     0.116 A 
ATOM     27  F1  NON d   1     -52.406  15.146  -2.435  0.00  0.00    -0.206 F 
ATOM     28  C11 NON d   1     -50.686  16.717  -2.798  0.00  0.00     0.043 A 
ATOM     29  C12 NON d   1     -49.418  17.014  -3.306  0.00  0.00     0.018 A 
ENDBRANCH  20  23
ENDBRANCH  17  18
ENDBRANCH  16  17
ENDBRANCH   1  16
TORSDOF 9
ENDMDL
MODEL 5
REMARK VINA RESULT:   -33.298      1.935      3.030
REMARK INTER + INTRA:         -37.646
REMARK INTER:                 -35.983
REMARK INTRA:                  -1.663
REMARK CONF_INDEPENDENT:        2.685
REMARK UNBOUND:                -1.663
REMARK  9 active torsions:
REMARK  status: ('A' for Active; 'I' for Inactive)
REMARK    1  A    between atoms: C1_2  and  C2_3 
REMARK       I    between atoms: C1_2  and  N3_18 
REMARK    2  A    between atoms: C2_3  and  C3_4 
REMARK    3  A    between atoms: C3_4  and  C4_5 
REMARK    4  A    between atoms: C4_5  and  C5_6 
REMARK    5  A    between atoms: C6_8  and  C7_9 
REMARK    6  A    between atoms: N3_18  and  C13_19 
REMARK    7  A    between atoms: C14_20  and  C13_19 
REMARK    8  A    between atoms: C14_20  and  O3_21 
REMARK    9  A    between atoms: C14_20  and  C15_22 
ROOT
ATOM      1  C2  NON d   1     -41.892  18.739  -4.483  0.00  0.00     0.103 C 
ENDROOT
BRANCH   1   2
ATOM      2  C1  NON d   1     -41.302  19.187  -5.812  0.00  0.00     0.217 C 
ATOM      3  O1  NON d   1     -41.481  20.311  -6.268  0.00  0.00    -0.274 OA
ATOM      4  N3  NON d   1     -40.454  18.263  -6.394  0.00  0.00    -0.359 N 
ATOM      5  H11 NON d   1     -40.535  17.295  -6.115  0.00  0.00     0.162 HD
BRANCH   4   6
ATOM      6  C13 NON d   1     -39.711  18.604  -7.597  0.00  0.00     0.154 C 
BRANCH   6   7
ATOM      7  C14 NON d   1     -38.276  19.404  -7.380  0.00  0.00     0.140 C 
BRANCH   7   8
ATOM      8  O3  NON d   1     -38.608  20.783  -6.887  0.00  0.00    -0.394 OA
ATOM      9  H15 NON d   1     -39.383  20.674  -6.312  0.00  0.00     0.210 HD
ENDBRANCH   7   8
BRANCH   7  10
ATOM     10  C15 NON d   1     -37.865  18.854  -6.001  0.00  0.00     0.016 C 
ATOM     11  C16 NON d   1     -38.420  19.586  -4.769  0.00  0.00     0.007 C 
ATOM     12  C17 NON d   1     -38.349  18.675  -3.538  0.00  0.00     0.000 C 
ATOM     13  C18 NON d   1     -36.936  18.157  -3.268  0.00  0.00     0.000 C 
ATOM     14  C19 NON d   1     -36.244  17.592  -4.507  0.00  0.00     0.000 C 
ATOM     15  C20 NON d   1     -36.379  18.499  -5.730  0.00  0.00     0.007 C 
ENDBRANCH   7  10
ENDBRANCH   6   7
ENDBRANCH   4   6
ENDBRANCH   1   2
BRANCH   1  16
ATOM     16  C3  NON d   1     -43.412  18.523  -4.516  0.00  0.00     0.017 C 
BRANCH  16  17
ATOM     17  C4  NON d   1     -43.820  17.057  -4.349  0.00  0.00     0.089 C 
BRANCH  17  18
ATOM     18  C5  NON d   1     -45.267  16.808  -4.543  0.00  0.00     0.173 A 
ATOM     19  N1  NON d   1     -46.224  16.598  -3.672  0.00  0.00    -0.204 NA
ATOM     20  C6  NON d   1     -47.321  16.374  -4.477  0.00  0.00     0.189 A 
ATOM     21  N2  NON d   1     -47.065  16.505  -5.788  0.00  0.00    -0.106 NA
ATOM     22  O2  NON d   1     -45.703  16.786  -5.835  0.00  0.00    -0.196 OA
BRANCH  20  23
ATOM     23  C7  NON d   1     -48.628  16.016  -3.932  0.00  0.00     0.014 A 
ATOM     24  C8  NON d   1     -49.212  14.781  -4.259  0.00  0.00     0.018 A 
ATOM     25  C9  NON d   1     -50.468  14.435  -3.752  0.00  0.00     0.043 A 
ATOM     26  C10 NON d   1     -51.142  15.322  -2.919  0.00  0.00     0.116 A 
ATOM     27  F1  NON d   1     -52.345  14.989  -2.435  0.00  0.00    -0.206 F 
ATOM     28  C11 NON d   1     -50.585  16.550  -2.587  0.00  0.00     0.043 A 
ATOM     29  C12 NON d   1     -49.330  16.899  -3.092  0.00  0.00     0.018 A 
ENDBRANCH  20  23
ENDBRANCH  17  18
ENDBRANCH  16  17
ENDBRANCH   1  16
TORSDOF 9
ENDMDL
MODEL 6
REMARK VINA RESULT:   -32.774      2.314      4.053
REMARK INTER + INTRA:         -36.918
REMARK INTER:                 -35.459
REMARK INTRA:                  -1.460
REMARK CONF_INDEPENDENT:        2.685
REMARK UNBOUND:                -1.460
REMARK  9 active torsions:
REMARK  status: ('A' for Active; 'I' for Inactive)
REMARK    1  A    between atoms: C1_2  and  C2_3 
REMARK       I    between atoms: C1_2  and  N3_18 
REMARK    2  A    between atoms: C2_3  and  C3_4 
REMARK    3  A    between atoms: C3_4  and  C4_5 
REMARK    4  A    between atoms: C4_5  and  C5_6 
REMARK    5  A    between atoms: C6_8  and  C7_9 
REMARK    6  A    between atoms: N3_18  and  C13_19 
REMARK    7  A    between atoms: C14_20  and  C13_19 
REMARK    8  A    between atoms: C14_20  and  O3_21 
REMARK    9  A    between atoms: C14_20  and  C15_22 
ROOT
ATOM      1  C2  NON d   1     -42.931  18.862  -5.424  0.00  0.00     0.103 C 
ENDROOT
BRANCH   1   2
ATOM      2  C1  NON d   1     -41.564  19.529  -5.391  0.00  0.00     0.217 C 
ATOM      3  O1  NON d   1     -40.544  18.963  -5.768  0.00  0.00    -0.274 OA
ATOM      4  N3  NON d   1     -41.594  20.860  -5.015  0.00  0.00    -0.359 N 
ATOM      5  H11 NON d   1     -42.393  21.193  -4.494  0.00  0.00     0.162 HD
BRANCH   4   6
ATOM      6  C13 NON d   1     -40.383  21.665  -5.067  0.00  0.00     0.154 C 
BRANCH   6   7
ATOM      7  C14 NON d   1     -39.405  21.617  -3.730  0.00  0.00     0.140 C 
BRANCH   7   8
ATOM      8  O3  NON d   1     -40.164  22.255  -2.602  0.00  0.00    -0.394 OA
ATOM      9  H15 NON d   1     -40.427  23.131  -2.928  0.00  0.00     0.210 HD
ENDBRANCH   7   8
BRANCH   7  10
ATOM     10  C15 NON d   1     -39.649  20.169  -3.267  0.00  0.00     0.016 C 
ATOM     11  C16 NON d   1     -40.307  19.982  -1.890  0.00  0.00     0.007 C 
ATOM     12  C17 NON d   1     -40.922  18.581  -1.785  0.00  0.00     0.000 C 
ATOM     13  C18 NON d   1     -39.907  17.470  -2.054  0.00  0.00     0.000 C 
ATOM     14  C19 NON d   1     -39.072  17.695  -3.313  0.00  0.00     0.000 C 
ATOM     15  C20 NON d   1     -38.518  19.117  -3.413  0.00  0.00     0.007 C 
ENDBRANCH   7  10
ENDBRANCH   6   7
ENDBRANCH   4   6
ENDBRANCH   1   2
BRANCH   1  16
ATOM     16  C3  NON d   1     -43.288  18.104  -4.137  0.00  0.00     0.017 C 
BRANCH  16  17
ATOM     17  C4  NON d   1     -43.768  16.672  -4.389  0.00  0.00     0.089 C 
BRANCH  17  18
ATOM     18  C5  NON d   1     -45.232  16.551  -4.577  0.00  0.00     0.173 A 
ATOM     19  N1  NON d   1     -46.190  16.315  -3.713  0.00  0.00    -0.204 NA
ATOM     20  C6  NON d   1     -47.311  16.263  -4.513  0.00  0.00     0.189 A 
ATOM     21  N2  NON d   1     -47.065  16.520  -5.807  0.00  0.00    -0.106 NA
ATOM     22  O2  NON d   1     -45.687  16.705  -5.853  0.00  0.00    -0.196 OA
BRANCH  20  23
ATOM     23  C7  NON d   1     -48.634  15.941  -3.982  0.00  0.00     0.014 A 
ATOM     24  C8  NON d   1     -49.349  16.899  -3.247  0.00  0.00     0.018 A 
ATOM     25  C9  NON d   1     -50.611  16.596  -2.725  0.00  0.00     0.043 A 
ATOM     26  C10 NON d   1     -51.157  15.335  -2.937  0.00  0.00     0.116 A 
ATOM     27  F1  NON d   1     -52.365  15.046  -2.437  0.00  0.00    -0.206 F 
ATOM     28  C11 NON d   1     -50.466  14.371  -3.658  0.00  0.00     0.043 A 
ATOM     29  C12 NON d   1     -49.205  14.671  -4.180  0.00  0.00     0.018 A 
ENDBRANCH  20  23
ENDBRANCH  17  18
ENDBRANCH  16  17
ENDBRANCH   1  16
TORSDOF 9
ENDMDL
MODEL 7
REMARK VINA RESULT:   -32.639      1.860      2.476
REMARK INTER + INTRA:         -37.095
REMARK INTER:                 -35.323
REMARK INTRA:                  -1.772
REMARK CONF_INDEPENDENT:        2.685
REMARK UNBOUND:                -1.772
REMARK  9 active torsions:
REMARK  status: ('A' for Active; 'I' for Inactive)
REMARK    1  A    between atoms: C1_2  and  C2_3 
REMARK       I    between atoms: C1_2  and  N3_18 
REMARK    2  A    between atoms: C2_3  and  C3_4 
REMARK    3  A    between atoms: C3_4  and  C4_5 
REMARK    4  A    between atoms: C4_5  and  C5_6 
REMARK    5  A    between atoms: C6_8  and  C7_9 
REMARK    6  A    between atoms: N3_18  and  C13_19 
REMARK    7  A    between atoms: C14_20  and  C13_19 
REMARK    8  A    between atoms: C14_20  and  O3_21 
REMARK    9  A    between atoms: C14_20  and  C15_22 
ROOT
ATOM      1  C2  NON d   1     -42.009  18.767  -4.064  0.00  0.00     0.103 C 
ENDROOT
BRANCH   1   2
ATOM      2  C1  NON d   1     -41.014  18.937  -5.202  0.00  0.00     0.217 C 
ATOM      3  O1  NON d   1     -41.365  19.128  -6.362  0.00  0.00    -0.274 OA
ATOM      4  N3  NON d   1     -39.693  18.980  -4.796  0.00  0.00    -0.359 N 
ATOM      5  H11 NON d   1     -39.453  18.583  -3.898  0.00  0.00     0.162 HD
BRANCH   4   6
ATOM      6  C13 NON d   1     -38.639  19.272  -5.756  0.00  0.00     0.154 C 
BRANCH   6   7
ATOM      7  C14 NON d   1     -38.640  20.793  -6.416  0.00  0.00     0.140 C 
BRANCH   7   8
ATOM      8  O3  NON d   1     -39.890  20.918  -7.239  0.00  0.00    -0.394 OA
ATOM      9  H15 NON d   1     -39.966  20.081  -7.726  0.00  0.00     0.210 HD
ENDBRANCH   7   8
BRANCH   7  10
ATOM     10  C15 NON d   1     -39.174  21.606  -5.222  0.00  0.00     0.016 C 
ATOM     11  C16 NON d   1     -40.593  22.183  -5.353  0.00  0.00     0.007 C 
ATOM     12  C17 NON d   1     -41.157  22.516  -3.966  0.00  0.00     0.000 C 
ATOM     13  C18 NON d   1     -40.257  23.467  -3.177  0.00  0.00     0.000 C 
ATOM     14  C19 NON d   1     -38.787  23.058  -3.173  0.00  0.00     0.000 C 
ATOM     15  C20 NON d   1     -38.269  22.681  -4.561  0.00  0.00     0.007 C 
ENDBRANCH   7  10
ENDBRANCH   6   7
ENDBRANCH   4   6
ENDBRANCH   1   2
BRANCH   1  16
ATOM     16  C3  NON d   1     -43.444  18.479  -4.526  0.00  0.00     0.017 C 
BRANCH  16  17
ATOM     17  C4  NON d   1     -43.849  17.011  -4.373  0.00  0.00     0.089 C 
BRANCH  17  18
ATOM     18  C5  NON d   1     -45.295  16.760  -4.567  0.00  0.00     0.173 A 
ATOM     19  N1  NON d   1     -46.257  16.580  -3.694  0.00  0.00    -0.204 NA
ATOM     20  C6  NON d   1     -47.351  16.334  -4.497  0.00  0.00     0.189 A 
ATOM     21  N2  NON d   1     -47.088  16.424  -5.811  0.00  0.00    -0.106 NA
ATOM     22  O2  NON d   1     -45.725  16.699  -5.859  0.00  0.00    -0.196 OA
BRANCH  20  23
ATOM     23  C7  NON d   1     -48.662  15.997  -3.948  0.00  0.00     0.014 A 
ATOM     24  C8  NON d   1     -49.160  14.690  -4.069  0.00  0.00     0.018 A 
ATOM     25  C9  NON d   1     -50.419  14.361  -3.557  0.00  0.00     0.043 A 
ATOM     26  C10 NON d   1     -51.181  15.338  -2.926  0.00  0.00     0.116 A 
ATOM     27  F1  NON d   1     -52.387  15.021  -2.436  0.00  0.00    -0.206 F 
ATOM     28  C11 NON d   1     -50.710  16.638  -2.799  0.00  0.00     0.043 A 
ATOM     29  C12 NON d   1     -49.452  16.969  -3.309  0.00  0.00     0.018 A 
ENDBRANCH  20  23
ENDBRANCH  17  18
ENDBRANCH  16  17
ENDBRANCH   1  16
TORSDOF 9
ENDMDL
