MODEL 1
REMARK VINA RESULT:    -9.812      0.000      0.000
REMARK INTER + INTRA:         -12.649
REMARK INTER:                 -11.303
REMARK INTRA:                  -1.345
REMARK CONF_INDEPENDENT:        1.492
REMARK UNBOUND:                -1.345
REMARK  5 active torsions:
REMARK  status: ('A' for Active; 'I' for Inactive)
REMARK    1  A    between atoms: O1_1  and  C1_2 
REMARK    2  A    between atoms: C1_2  and  C2_3 
REMARK    3  A    between atoms: N1_5  and  C4_6 
REMARK    4  A    between atoms: C4_6  and  C5_7 
REMARK    5  A    between atoms: N2_16  and  O2_17 
ROOT
ATOM      1  C2  NON d   1     -46.867  16.941  -3.571  0.00  0.00    -0.005 C 
ATOM      2  C3  NON d   1     -47.065  17.271  -2.235  0.00  0.00     0.101 C 
ATOM      3  N1  NON d   1     -48.279  16.806  -1.826  0.00  0.00    -0.354 N 
ATOM      4  C11 NON d   1     -48.762  15.979  -2.818  0.00  0.00     0.024 C 
ATOM      5  C12 NON d   1     -47.923  16.036  -3.931  0.00  0.00     0.023 C 
ATOM      6  C13 NON d   1     -48.286  15.253  -5.127  0.00  0.00     0.074 C 
ATOM      7  N2  NON d   1     -47.585  15.005  -6.196  0.00  0.00    -0.140 NA
ATOM      8  C14 NON d   1     -49.689  14.630  -5.123  0.00  0.00     0.063 C 
ATOM      9  C15 NON d   1     -50.036  14.068  -3.745  0.00  0.00     0.012 C 
ATOM     10  C16 NON d   1     -50.023  15.177  -2.693  0.00  0.00     0.058 C 
ENDROOT
BRANCH   3  11
ATOM     11  C4  NON d   1     -48.988  17.039  -0.560  0.00  0.00     0.166 C 
BRANCH  11  12
ATOM     12  C5  NON d   1     -50.381  17.630  -0.553  0.00  0.00    -0.040 A 
ATOM     13  C6  NON d   1     -50.708  18.508   0.500  0.00  0.00     0.009 A 
ATOM     14  C7  NON d   1     -51.994  19.037   0.633  0.00  0.00     0.001 A 
ATOM     15  C8  NON d   1     -52.979  18.700  -0.287  0.00  0.00     0.000 A 
ATOM     16  C9  NON d   1     -52.685  17.811  -1.318  0.00  0.00     0.001 A 
ATOM     17  C10 NON d   1     -51.405  17.256  -1.430  0.00  0.00     0.009 A 
ENDBRANCH  11  12
ENDBRANCH   3  11
BRANCH   1  18
ATOM     18  C1  NON d   1     -45.742  17.456  -4.408  0.00  0.00     0.205 C 
BRANCH  18  19
ATOM     19  O1  NON d   1     -46.117  17.625  -5.779  0.00  0.00    -0.396 OA
ATOM     20  H1  NON d   1     -46.910  17.080  -5.904  0.00  0.00     0.209 HD
ENDBRANCH  18  19
ENDBRANCH   1  18
BRANCH   7  21
ATOM     21  O2  NON d   1     -46.281  15.471  -6.182  0.00  0.00    -0.266 OA
ATOM     22  H12 NON d   1     -46.244  16.001  -7.000  0.00  0.00     0.247 HD
ENDBRANCH   7  21
TORSDOF 5
ENDMDL
MODEL 2
REMARK VINA RESULT:    -8.045      4.966      7.767
REMARK INTER + INTRA:         -10.674
REMARK INTER:                  -9.537
REMARK INTRA:                  -1.138
REMARK CONF_INDEPENDENT:        1.492
REMARK UNBOUND:                -1.138
REMARK  5 active torsions:
REMARK  status: ('A' for Active; 'I' for Inactive)
REMARK    1  A    between atoms: O1_1  and  C1_2 
REMARK    2  A    between atoms: C1_2  and  C2_3 
REMARK    3  A    between atoms: N1_5  and  C4_6 
REMARK    4  A    between atoms: C4_6  and  C5_7 
REMARK    5  A    between atoms: N2_16  and  O2_17 
ROOT
ATOM      1  C2  NON d   1     -41.693  17.948  -2.757  0.00  0.00    -0.005 C 
ATOM      2  C3  NON d   1     -42.916  17.440  -3.176  0.00  0.00     0.101 C 
ATOM      3  N1  NON d   1     -43.296  18.059  -4.329  0.00  0.00    -0.354 N 
ATOM      4  C11 NON d   1     -42.221  18.794  -4.780  0.00  0.00     0.024 C 
ATOM      5  C12 NON d   1     -41.198  18.765  -3.831  0.00  0.00     0.023 C 
ATOM      6  C13 NON d   1     -39.966  19.530  -4.100  0.00  0.00     0.074 C 
ATOM      7  N2  NON d   1     -38.828  19.511  -3.469  0.00  0.00    -0.140 NA
ATOM      8  C14 NON d   1     -40.017  20.487  -5.299  0.00  0.00     0.063 C 
ATOM      9  C15 NON d   1     -40.759  19.855  -6.475  0.00  0.00     0.012 C 
ATOM     10  C16 NON d   1     -42.201  19.527  -6.088  0.00  0.00     0.058 C 
ENDROOT
BRANCH   3  11
ATOM     11  C4  NON d   1     -44.569  17.970  -5.059  0.00  0.00     0.166 C 
BRANCH  11  12
ATOM     12  C5  NON d   1     -45.708  17.128  -4.525  0.00  0.00    -0.040 A 
ATOM     13  C6  NON d   1     -46.354  16.262  -5.430  0.00  0.00     0.009 A 
ATOM     14  C7  NON d   1     -47.466  15.508  -5.047  0.00  0.00     0.001 A 
ATOM     15  C8  NON d   1     -47.952  15.603  -3.748  0.00  0.00     0.000 A 
ATOM     16  C9  NON d   1     -47.346  16.476  -2.847  0.00  0.00     0.001 A 
ATOM     17  C10 NON d   1     -46.253  17.255  -3.242  0.00  0.00     0.009 A 
ENDBRANCH  11  12
ENDBRANCH   3  11
BRANCH   1  18
ATOM     18  C1  NON d   1     -41.065  17.650  -1.434  0.00  0.00     0.205 C 
BRANCH  18  19
ATOM     19  O1  NON d   1     -39.925  16.793  -1.555  0.00  0.00    -0.396 OA
ATOM     20  H1  NON d   1     -39.265  17.143  -0.936  0.00  0.00     0.209 HD
ENDBRANCH  18  19
ENDBRANCH   1  18
BRANCH   7  21
ATOM     21  O2  NON d   1     -38.723  18.584  -2.445  0.00  0.00    -0.266 OA
ATOM     22  H12 NON d   1     -39.326  18.952  -1.772  0.00  0.00     0.247 HD
ENDBRANCH   7  21
TORSDOF 5
ENDMDL
