MODEL 1
REMARK VINA RESULT:    -9.489      0.000      0.000
REMARK INTER + INTRA:          -9.768
REMARK INTER:                  -9.787
REMARK INTRA:                   0.020
REMARK CONF_INDEPENDENT:        0.298
REMARK UNBOUND:                 0.020
REMARK  1 active torsions:
REMARK  status: ('A' for Active; 'I' for Inactive)
REMARK    1  A    between atoms: C5_7  and  O3_8 
ROOT
ATOM      1  O1  NON d   1     -44.214  17.441  -4.730  0.00  0.00    -0.271 OA
ATOM      2  C1  NON d   1     -45.331  16.932  -4.664  0.00  0.00     0.246 A 
ATOM      3  C2  NON d   1     -45.949  16.130  -5.810  0.00  0.00     0.278 A 
ATOM      4  O2  NON d   1     -47.221  15.518  -5.690  0.00  0.00    -0.340 OA
ATOM      5  C3  NON d   1     -47.885  15.746  -4.519  0.00  0.00     0.098 A 
ATOM      6  C4  NON d   1     -49.153  15.176  -4.411  0.00  0.00     0.075 A 
ATOM      7  C5  NON d   1     -49.893  15.356  -3.247  0.00  0.00     0.068 A 
ATOM      8  C6  NON d   1     -49.386  16.097  -2.184  0.00  0.00     0.039 A 
ATOM      9  C7  NON d   1     -48.116  16.669  -2.290  0.00  0.00     0.035 A 
ATOM     10  C8  NON d   1     -47.370  16.492  -3.457  0.00  0.00     0.068 A 
ATOM     11  N1  NON d   1     -46.103  17.065  -3.548  0.00  0.00    -0.323 N 
ATOM     12  H7  NON d   1     -45.713  17.600  -2.784  0.00  0.00     0.169 HD
ENDROOT
BRANCH   7  13
ATOM     13  O3  NON d   1     -51.128  14.781  -3.185  0.00  0.00    -0.361 OA
ATOM     14  H4  NON d   1     -51.077  13.882  -3.550  0.00  0.00     0.217 HD
ENDBRANCH   7  13
TORSDOF 1
ENDMDL
MODEL 2
REMARK VINA RESULT:    -9.338      1.815      2.618
REMARK INTER + INTRA:          -9.618
REMARK INTER:                  -9.637
REMARK INTRA:                   0.019
REMARK CONF_INDEPENDENT:        0.298
REMARK UNBOUND:                 0.019
REMARK  1 active torsions:
REMARK  status: ('A' for Active; 'I' for Inactive)
REMARK    1  A    between atoms: C5_7  and  O3_8 
ROOT
ATOM      1  O1  NON d   1     -46.315  15.005  -6.560  0.00  0.00    -0.271 OA
ATOM      2  C1  NON d   1     -46.694  15.510  -5.506  0.00  0.00     0.246 A 
ATOM      3  C2  NON d   1     -45.851  16.505  -4.708  0.00  0.00     0.278 A 
ATOM      4  O2  NON d   1     -46.331  17.105  -3.518  0.00  0.00    -0.340 OA
ATOM      5  C3  NON d   1     -47.561  16.688  -3.095  0.00  0.00     0.098 A 
ATOM      6  C4  NON d   1     -48.022  17.247  -1.903  0.00  0.00     0.075 A 
ATOM      7  C5  NON d   1     -49.269  16.880  -1.407  0.00  0.00     0.068 A 
ATOM      8  C6  NON d   1     -50.065  15.961  -2.081  0.00  0.00     0.039 A 
ATOM      9  C7  NON d   1     -49.605  15.399  -3.274  0.00  0.00     0.035 A 
ATOM     10  C8  NON d   1     -48.354  15.764  -3.777  0.00  0.00     0.068 A 
ATOM     11  N1  NON d   1     -47.909  15.198  -4.970  0.00  0.00    -0.323 N 
ATOM     12  H7  NON d   1     -48.477  14.534  -5.480  0.00  0.00     0.169 HD
ENDROOT
BRANCH   7  13
ATOM     13  O3  NON d   1     -49.679  17.453  -0.238  0.00  0.00    -0.361 OA
ATOM     14  H4  NON d   1     -48.916  17.867   0.196  0.00  0.00     0.217 HD
ENDBRANCH   7  13
TORSDOF 1
ENDMDL
MODEL 3
REMARK VINA RESULT:    -8.964      1.724      4.114
REMARK INTER + INTRA:          -9.240
REMARK INTER:                  -9.262
REMARK INTRA:                   0.022
REMARK CONF_INDEPENDENT:        0.298
REMARK UNBOUND:                 0.022
REMARK  1 active torsions:
REMARK  status: ('A' for Active; 'I' for Inactive)
REMARK    1  A    between atoms: C5_7  and  O3_8 
ROOT
ATOM      1  O1  NON d   1     -49.692  17.402  -0.228  0.00  0.00    -0.271 OA
ATOM      2  C1  NON d   1     -49.306  16.897  -1.280  0.00  0.00     0.246 A 
ATOM      3  C2  NON d   1     -50.123  15.865  -2.057  0.00  0.00     0.278 A 
ATOM      4  O2  NON d   1     -49.671  15.331  -3.290  0.00  0.00    -0.340 OA
ATOM      5  C3  NON d   1     -48.437  15.744  -3.702  0.00  0.00     0.098 A 
ATOM      6  C4  NON d   1     -47.972  15.194  -4.896  0.00  0.00     0.075 A 
ATOM      7  C5  NON d   1     -46.726  15.567  -5.389  0.00  0.00     0.068 A 
ATOM      8  C6  NON d   1     -45.933  16.485  -4.708  0.00  0.00     0.039 A 
ATOM      9  C7  NON d   1     -46.396  17.038  -3.512  0.00  0.00     0.035 A 
ATOM     10  C8  NON d   1     -47.646  16.666  -3.012  0.00  0.00     0.068 A 
ATOM     11  N1  NON d   1     -48.098  17.227  -1.820  0.00  0.00    -0.323 N 
ATOM     12  H7  NON d   1     -47.540  17.902  -1.314  0.00  0.00     0.169 HD
ENDROOT
BRANCH   7  13
ATOM     13  O3  NON d   1     -46.312  15.003  -6.560  0.00  0.00    -0.361 OA
ATOM     14  H4  NON d   1     -46.480  15.625  -7.287  0.00  0.00     0.217 HD
ENDBRANCH   7  13
TORSDOF 1
ENDMDL
MODEL 4
REMARK VINA RESULT:    -8.035      3.561      6.676
REMARK INTER + INTRA:          -8.314
REMARK INTER:                  -8.333
REMARK INTRA:                   0.019
REMARK CONF_INDEPENDENT:        0.298
REMARK UNBOUND:                 0.019
REMARK  1 active torsions:
REMARK  status: ('A' for Active; 'I' for Inactive)
REMARK    1  A    between atoms: C5_7  and  O3_8 
ROOT
ATOM      1  O1  NON d   1     -46.315  17.630  -5.810  0.00  0.00    -0.271 OA
ATOM      2  C1  NON d   1     -45.288  17.630  -5.135  0.00  0.00     0.246 A 
ATOM      3  C2  NON d   1     -45.084  16.713  -3.929  0.00  0.00     0.278 A 
ATOM      4  O2  NON d   1     -43.873  16.704  -3.195  0.00  0.00    -0.340 OA
ATOM      5  C3  NON d   1     -42.930  17.610  -3.589  0.00  0.00     0.098 A 
ATOM      6  C4  NON d   1     -41.750  17.630  -2.846  0.00  0.00     0.075 A 
ATOM      7  C5  NON d   1     -40.736  18.520  -3.186  0.00  0.00     0.068 A 
ATOM      8  C6  NON d   1     -40.881  19.393  -4.260  0.00  0.00     0.039 A 
ATOM      9  C7  NON d   1     -42.061  19.374  -5.006  0.00  0.00     0.035 A 
ATOM     10  C8  NON d   1     -43.083  18.483  -4.668  0.00  0.00     0.068 A 
ATOM     11  N1  NON d   1     -44.254  18.472  -5.422  0.00  0.00    -0.323 N 
ATOM     12  H7  NON d   1     -44.376  19.092  -6.211  0.00  0.00     0.169 HD
ENDROOT
BRANCH   7  13
ATOM     13  O3  NON d   1     -39.600  18.506  -2.432  0.00  0.00    -0.361 OA
ATOM     14  H4  NON d   1     -39.841  18.380  -1.500  0.00  0.00     0.217 HD
ENDBRANCH   7  13
TORSDOF 1
ENDMDL
MODEL 5
REMARK VINA RESULT:    -7.664      2.041      5.046
REMARK INTER + INTRA:          -7.940
REMARK INTER:                  -7.963
REMARK INTRA:                   0.023
REMARK CONF_INDEPENDENT:        0.298
REMARK UNBOUND:                 0.023
REMARK  1 active torsions:
REMARK  status: ('A' for Active; 'I' for Inactive)
REMARK    1  A    between atoms: C5_7  and  O3_8 
ROOT
ATOM      1  O1  NON d   1     -48.376  15.016  -4.014  0.00  0.00    -0.271 OA
ATOM      2  C1  NON d   1     -47.492  15.805  -4.342  0.00  0.00     0.246 A 
ATOM      3  C2  NON d   1     -47.590  16.698  -5.579  0.00  0.00     0.278 A 
ATOM      4  O2  NON d   1     -46.575  17.629  -5.909  0.00  0.00    -0.340 OA
ATOM      5  C3  NON d   1     -45.479  17.630  -5.093  0.00  0.00     0.098 A 
ATOM      6  C4  NON d   1     -44.460  18.520  -5.435  0.00  0.00     0.075 A 
ATOM      7  C5  NON d   1     -43.313  18.587  -4.652  0.00  0.00     0.068 A 
ATOM      8  C6  NON d   1     -43.164  17.779  -3.529  0.00  0.00     0.039 A 
ATOM      9  C7  NON d   1     -44.182  16.888  -3.185  0.00  0.00     0.035 A 
ATOM     10  C8  NON d   1     -45.337  16.816  -3.968  0.00  0.00     0.068 A 
ATOM     11  N1  NON d   1     -46.347  15.925  -3.612  0.00  0.00    -0.323 N 
ATOM     12  H7  NON d   1     -46.262  15.335  -2.795  0.00  0.00     0.169 HD
ENDROOT
BRANCH   7  13
ATOM     13  O3  NON d   1     -42.342  19.471  -5.024  0.00  0.00    -0.361 OA
ATOM     14  H4  NON d   1     -41.786  19.672  -4.253  0.00  0.00     0.217 HD
ENDBRANCH   7  13
TORSDOF 1
ENDMDL
MODEL 6
REMARK VINA RESULT:    -7.617      3.858      5.518
REMARK INTER + INTRA:          -7.894
REMARK INTER:                  -7.916
REMARK INTRA:                   0.022
REMARK CONF_INDEPENDENT:        0.298
REMARK UNBOUND:                 0.022
REMARK  1 active torsions:
REMARK  status: ('A' for Active; 'I' for Inactive)
REMARK    1  A    between atoms: C5_7  and  O3_8 
ROOT
ATOM      1  O1  NON d   1     -39.618  18.953  -2.718  0.00  0.00    -0.271 OA
ATOM      2  C1  NON d   1     -40.690  18.905  -3.317  0.00  0.00     0.246 A 
ATOM      3  C2  NON d   1     -41.143  19.984  -4.301  0.00  0.00     0.278 A 
ATOM      4  O2  NON d   1     -42.365  19.882  -5.011  0.00  0.00    -0.340 OA
ATOM      5  C3  NON d   1     -43.139  18.798  -4.710  0.00  0.00     0.098 A 
ATOM      6  C4  NON d   1     -44.360  18.712  -5.379  0.00  0.00     0.075 A 
ATOM      7  C5  NON d   1     -45.206  17.635  -5.134  0.00  0.00     0.068 A 
ATOM      8  C6  NON d   1     -44.852  16.639  -4.230  0.00  0.00     0.039 A 
ATOM      9  C7  NON d   1     -43.631  16.722  -3.560  0.00  0.00     0.035 A 
ATOM     10  C8  NON d   1     -42.778  17.802  -3.801  0.00  0.00     0.068 A 
ATOM     11  N1  NON d   1     -41.560  17.872  -3.128  0.00  0.00    -0.323 N 
ATOM     12  H7  NON d   1     -41.281  17.154  -2.473  0.00  0.00     0.169 HD
ENDROOT
BRANCH   7  13
ATOM     13  O3  NON d   1     -46.390  17.592  -5.811  0.00  0.00    -0.361 OA
ATOM     14  H4  NON d   1     -47.080  18.004  -5.266  0.00  0.00     0.217 HD
ENDBRANCH   7  13
TORSDOF 1
ENDMDL
MODEL 7
REMARK VINA RESULT:    -7.557      1.673      4.539
REMARK INTER + INTRA:          -7.833
REMARK INTER:                  -7.855
REMARK INTRA:                   0.023
REMARK CONF_INDEPENDENT:        0.298
REMARK UNBOUND:                 0.023
REMARK  1 active torsions:
REMARK  status: ('A' for Active; 'I' for Inactive)
REMARK    1  A    between atoms: C5_7  and  O3_8 
ROOT
ATOM      1  O1  NON d   1     -48.933  14.253  -3.185  0.00  0.00    -0.271 OA
ATOM      2  C1  NON d   1     -48.206  15.047  -3.778  0.00  0.00     0.246 A 
ATOM      3  C2  NON d   1     -48.498  15.547  -5.193  0.00  0.00     0.278 A 
ATOM      4  O2  NON d   1     -47.665  16.496  -5.836  0.00  0.00    -0.340 OA
ATOM      5  C3  NON d   1     -46.554  16.882  -5.141  0.00  0.00     0.098 A 
ATOM      6  C4  NON d   1     -45.712  17.788  -5.785  0.00  0.00     0.075 A 
ATOM      7  C5  NON d   1     -44.562  18.236  -5.143  0.00  0.00     0.068 A 
ATOM      8  C6  NON d   1     -44.238  17.794  -3.864  0.00  0.00     0.039 A 
ATOM      9  C7  NON d   1     -45.080  16.887  -3.218  0.00  0.00     0.035 A 
ATOM     10  C8  NON d   1     -46.236  16.433  -3.858  0.00  0.00     0.068 A 
ATOM     11  N1  NON d   1     -47.069  15.531  -3.200  0.00  0.00    -0.323 N 
ATOM     12  H7  NON d   1     -46.856  15.204  -2.268  0.00  0.00     0.169 HD
ENDROOT
BRANCH   7  13
ATOM     13  O3  NON d   1     -43.767  19.122  -5.810  0.00  0.00    -0.361 OA
ATOM     14  H4  NON d   1     -43.137  19.514  -5.184  0.00  0.00     0.217 HD
ENDBRANCH   7  13
TORSDOF 1
ENDMDL
MODEL 8
REMARK VINA RESULT:    -7.296      2.043      3.204
REMARK INTER + INTRA:          -7.575
REMARK INTER:                  -7.594
REMARK INTRA:                   0.019
REMARK CONF_INDEPENDENT:        0.298
REMARK UNBOUND:                 0.019
REMARK  1 active torsions:
REMARK  status: ('A' for Active; 'I' for Inactive)
REMARK    1  A    between atoms: C5_7  and  O3_8 
ROOT
ATOM      1  O1  NON d   1     -41.750  18.044  -2.592  0.00  0.00    -0.271 OA
ATOM      2  C1  NON d   1     -42.681  17.629  -3.278  0.00  0.00     0.246 A 
ATOM      3  C2  NON d   1     -42.495  17.096  -4.699  0.00  0.00     0.278 A 
ATOM      4  O2  NON d   1     -43.580  16.583  -5.452  0.00  0.00    -0.340 OA
ATOM      5  C3  NON d   1     -44.807  16.660  -4.857  0.00  0.00     0.098 A 
ATOM      6  C4  NON d   1     -45.884  16.191  -5.608  0.00  0.00     0.075 A 
ATOM      7  C5  NON d   1     -47.167  16.227  -5.072  0.00  0.00     0.068 A 
ATOM      8  C6  NON d   1     -47.394  16.725  -3.793  0.00  0.00     0.039 A 
ATOM      9  C7  NON d   1     -46.317  17.195  -3.038  0.00  0.00     0.035 A 
ATOM     10  C8  NON d   1     -45.027  17.161  -3.573  0.00  0.00     0.068 A 
ATOM     11  N1  NON d   1     -43.961  17.630  -2.807  0.00  0.00    -0.323 N 
ATOM     12  H7  NON d   1     -44.104  17.988  -1.873  0.00  0.00     0.169 HD
ENDROOT
BRANCH   7  13
ATOM     13  O3  NON d   1     -48.190  15.758  -5.843  0.00  0.00    -0.361 OA
ATOM     14  H4  NON d   1     -47.971  15.899  -6.778  0.00  0.00     0.217 HD
ENDBRANCH   7  13
TORSDOF 1
ENDMDL
MODEL 9
REMARK VINA RESULT:    -6.887      2.276      5.503
REMARK INTER + INTRA:          -7.164
REMARK INTER:                  -7.185
REMARK INTRA:                   0.021
REMARK CONF_INDEPENDENT:        0.298
REMARK UNBOUND:                 0.021
REMARK  1 active torsions:
REMARK  status: ('A' for Active; 'I' for Inactive)
REMARK    1  A    between atoms: C5_7  and  O3_8 
ROOT
ATOM      1  O1  NON d   1     -47.766  15.571  -5.810  0.00  0.00    -0.271 OA
ATOM      2  C1  NON d   1     -46.855  16.042  -5.132  0.00  0.00     0.246 A 
ATOM      3  C2  NON d   1     -47.062  16.570  -3.712  0.00  0.00     0.278 A 
ATOM      4  O2  NON d   1     -45.985  17.067  -2.937  0.00  0.00    -0.340 OA
ATOM      5  C3  NON d   1     -44.771  17.107  -3.560  0.00  0.00     0.098 A 
ATOM      6  C4  NON d   1     -43.715  17.630  -2.813  0.00  0.00     0.075 A 
ATOM      7  C5  NON d   1     -42.443  17.700  -3.373  0.00  0.00     0.068 A 
ATOM      8  C6  NON d   1     -42.206  17.255  -4.670  0.00  0.00     0.039 A 
ATOM      9  C7  NON d   1     -43.262  16.731  -5.419  0.00  0.00     0.035 A 
ATOM     10  C8  NON d   1     -44.541  16.659  -4.862  0.00  0.00     0.068 A 
ATOM     11  N1  NON d   1     -45.584  16.130  -5.619  0.00  0.00    -0.323 N 
ATOM     12  H7  NON d   1     -45.431  15.794  -6.560  0.00  0.00     0.169 HD
ENDROOT
BRANCH   7  13
ATOM     13  O3  NON d   1     -41.441  18.219  -2.607  0.00  0.00    -0.361 OA
ATOM     14  H4  NON d   1     -41.252  17.607  -1.877  0.00  0.00     0.217 HD
ENDBRANCH   7  13
TORSDOF 1
ENDMDL
