MODEL 1
REMARK VINA RESULT:   -30.952      0.000      0.000
REMARK INTER + INTRA:         -34.606
REMARK INTER:                 -33.339
REMARK INTRA:                  -1.268
REMARK CONF_INDEPENDENT:        2.386
REMARK UNBOUND:                -1.268
REMARK  8 active torsions:
REMARK  status: ('A' for Active; 'I' for Inactive)
REMARK    1  A    between atoms: C1_2  and  N2_3 
REMARK    2  A    between atoms: C1_2  and  C11_16 
REMARK    3  A    between atoms: N2_3  and  N3_4 
REMARK    4  A    between atoms: C2_5  and  C3_6 
REMARK    5  A    between atoms: C8_11  and  O1_12 
REMARK    6  A    between atoms: O1_12  and  C9_13 
REMARK    7  A    between atoms: C9_13  and  C10_14 
REMARK    8  A    between atoms: C10_14  and  O2_15 
ROOT
ATOM      1  N3  NON d   1     -44.843  17.181  -4.614  0.00  0.00    -0.185 NA
ATOM      2  C2  NON d   1     -43.764  17.340  -3.911  0.00  0.00     0.152 C 
ENDROOT
BRANCH   1   3
ATOM      3  N2  NON d   1     -45.876  16.476  -4.064  0.00  0.00    -0.261 N 
ATOM      4  H2  NON d   1     -45.782  16.094  -3.130  0.00  0.00     0.191 HD
BRANCH   3   5
ATOM      5  C1  NON d   1     -47.083  16.352  -4.731  0.00  0.00     0.146 C 
ATOM      6  N1  NON d   1     -47.084  16.505  -6.028  0.00  0.00    -0.282 NA
ATOM      7  H1  NON d   1     -46.089  16.701  -6.230  0.00  0.00     0.188 HD
BRANCH   5   8
ATOM      8  C11 NON d   1     -48.378  16.049  -4.040  0.00  0.00     0.011 A 
ATOM      9  C12 NON d   1     -48.885  16.843  -3.007  0.00  0.00     0.015 A 
ATOM     10  C13 NON d   1     -50.100  16.508  -2.396  0.00  0.00     0.001 A 
ATOM     11  C14 NON d   1     -50.814  15.383  -2.810  0.00  0.00     0.000 A 
ATOM     12  C15 NON d   1     -50.318  14.586  -3.836  0.00  0.00     0.001 A 
ATOM     13  C16 NON d   1     -49.108  14.919  -4.448  0.00  0.00     0.015 A 
ENDBRANCH   5   8
ENDBRANCH   3   5
ENDBRANCH   1   3
BRANCH   2  14
ATOM     14  C3  NON d   1     -42.629  18.119  -4.470  0.00  0.00     0.016 A 
ATOM     15  C4  NON d   1     -42.919  19.099  -5.439  0.00  0.00     0.016 A 
ATOM     16  C5  NON d   1     -41.906  19.880  -5.988  0.00  0.00     0.001 A 
ATOM     17  C6  NON d   1     -40.596  19.694  -5.568  0.00  0.00     0.003 A 
ATOM     18  C7  NON d   1     -40.297  18.723  -4.607  0.00  0.00     0.037 A 
ATOM     19  C8  NON d   1     -41.303  17.912  -4.054  0.00  0.00     0.080 A 
BRANCH  19  20
ATOM     20  O1  NON d   1     -41.061  16.918  -3.134  0.00  0.00    -0.348 OA
BRANCH  20  21
ATOM     21  C9  NON d   1     -40.526  17.336  -1.868  0.00  0.00     0.201 C 
BRANCH  21  22
ATOM     22  C10 NON d   1     -41.064  18.714  -1.487  0.00  0.00     0.190 C 
BRANCH  22  23
ATOM     23  O2  NON d   1     -40.070  19.715  -1.684  0.00  0.00    -0.399 OA
ATOM     24  H12 NON d   1     -39.296  19.454  -1.156  0.00  0.00     0.209 HD
ENDBRANCH  22  23
ENDBRANCH  21  22
ENDBRANCH  20  21
ENDBRANCH  19  20
ENDBRANCH   2  14
TORSDOF 8
ENDMDL
MODEL 2
REMARK VINA RESULT:   -30.126      1.916      3.084
REMARK INTER + INTRA:         -33.840
REMARK INTER:                 -32.512
REMARK INTRA:                  -1.327
REMARK CONF_INDEPENDENT:        2.386
REMARK UNBOUND:                -1.327
REMARK  8 active torsions:
REMARK  status: ('A' for Active; 'I' for Inactive)
REMARK    1  A    between atoms: C1_2  and  N2_3 
REMARK    2  A    between atoms: C1_2  and  C11_16 
REMARK    3  A    between atoms: N2_3  and  N3_4 
REMARK    4  A    between atoms: C2_5  and  C3_6 
REMARK    5  A    between atoms: C8_11  and  O1_12 
REMARK    6  A    between atoms: O1_12  and  C9_13 
REMARK    7  A    between atoms: C9_13  and  C10_14 
REMARK    8  A    between atoms: C10_14  and  O2_15 
ROOT
ATOM      1  N3  NON d   1     -44.800  17.448  -4.759  0.00  0.00    -0.185 NA
ATOM      2  C2  NON d   1     -43.921  18.402  -4.725  0.00  0.00     0.152 C 
ENDROOT
BRANCH   1   3
ATOM      3  N2  NON d   1     -46.030  17.720  -5.288  0.00  0.00    -0.261 N 
ATOM      4  H2  NON d   1     -46.163  18.553  -5.849  0.00  0.00     0.191 HD
BRANCH   3   5
ATOM      5  C1  NON d   1     -47.077  16.826  -5.140  0.00  0.00     0.146 C 
ATOM      6  N1  NON d   1     -47.440  16.130  -6.184  0.00  0.00    -0.282 NA
ATOM      7  H1  NON d   1     -46.789  16.467  -6.913  0.00  0.00     0.188 HD
BRANCH   5   8
ATOM      8  C11 NON d   1     -47.806  16.619  -3.847  0.00  0.00     0.011 A 
ATOM      9  C12 NON d   1     -47.432  17.256  -2.660  0.00  0.00     0.015 A 
ATOM     10  C13 NON d   1     -48.150  17.020  -1.480  0.00  0.00     0.001 A 
ATOM     11  C14 NON d   1     -49.240  16.151  -1.477  0.00  0.00     0.000 A 
ATOM     12  C15 NON d   1     -49.621  15.511  -2.652  0.00  0.00     0.001 A 
ATOM     13  C16 NON d   1     -48.907  15.745  -3.830  0.00  0.00     0.015 A 
ENDBRANCH   5   8
ENDBRANCH   3   5
ENDBRANCH   1   3
BRANCH   2  14
ATOM     14  C3  NON d   1     -42.566  18.137  -4.176  0.00  0.00     0.016 A 
ATOM     15  C4  NON d   1     -42.477  17.631  -2.865  0.00  0.00     0.016 A 
ATOM     16  C5  NON d   1     -41.241  17.339  -2.296  0.00  0.00     0.001 A 
ATOM     17  C6  NON d   1     -40.083  17.541  -3.036  0.00  0.00     0.003 A 
ATOM     18  C7  NON d   1     -40.161  18.045  -4.339  0.00  0.00     0.037 A 
ATOM     19  C8  NON d   1     -41.398  18.363  -4.923  0.00  0.00     0.080 A 
BRANCH  19  20
ATOM     20  O1  NON d   1     -41.531  18.894  -6.185  0.00  0.00    -0.348 OA
BRANCH  20  21
ATOM     21  C9  NON d   1     -40.927  20.179  -6.405  0.00  0.00     0.201 C 
BRANCH  21  22
ATOM     22  C10 NON d   1     -40.861  20.493  -7.898  0.00  0.00     0.190 C 
BRANCH  22  23
ATOM     23  O2  NON d   1     -40.392  19.363  -8.629  0.00  0.00    -0.399 OA
ATOM     24  H12 NON d   1     -40.289  18.636  -7.992  0.00  0.00     0.209 HD
ENDBRANCH  22  23
ENDBRANCH  21  22
ENDBRANCH  20  21
ENDBRANCH  19  20
ENDBRANCH   2  14
TORSDOF 8
ENDMDL
MODEL 3
REMARK VINA RESULT:   -28.691      1.015      1.520
REMARK INTER + INTRA:         -32.089
REMARK INTER:                 -31.077
REMARK INTRA:                  -1.012
REMARK CONF_INDEPENDENT:        2.386
REMARK UNBOUND:                -1.012
REMARK  8 active torsions:
REMARK  status: ('A' for Active; 'I' for Inactive)
REMARK    1  A    between atoms: C1_2  and  N2_3 
REMARK    2  A    between atoms: C1_2  and  C11_16 
REMARK    3  A    between atoms: N2_3  and  N3_4 
REMARK    4  A    between atoms: C2_5  and  C3_6 
REMARK    5  A    between atoms: C8_11  and  O1_12 
REMARK    6  A    between atoms: O1_12  and  C9_13 
REMARK    7  A    between atoms: C9_13  and  C10_14 
REMARK    8  A    between atoms: C10_14  and  O2_15 
ROOT
ATOM      1  N3  NON d   1     -44.849  16.979  -4.334  0.00  0.00    -0.185 NA
ATOM      2  C2  NON d   1     -43.879  17.372  -3.567  0.00  0.00     0.152 C 
ENDROOT
BRANCH   1   3
ATOM      3  N2  NON d   1     -46.030  16.618  -3.750  0.00  0.00    -0.261 N 
ATOM      4  H2  NON d   1     -46.096  16.566  -2.740  0.00  0.00     0.191 HD
BRANCH   3   5
ATOM      5  C1  NON d   1     -47.164  16.408  -4.517  0.00  0.00     0.146 C 
ATOM      6  N1  NON d   1     -47.065  16.562  -5.810  0.00  0.00    -0.282 NA
ATOM      7  H1  NON d   1     -46.073  16.827  -5.928  0.00  0.00     0.188 HD
BRANCH   5   8
ATOM      8  C11 NON d   1     -48.489  16.014  -3.937  0.00  0.00     0.011 A 
ATOM      9  C12 NON d   1     -49.190  14.882  -4.361  0.00  0.00     0.015 A 
ATOM     10  C13 NON d   1     -50.427  14.566  -3.784  0.00  0.00     0.001 A 
ATOM     11  C14 NON d   1     -50.969  15.374  -2.785  0.00  0.00     0.000 A 
ATOM     12  C15 NON d   1     -50.279  16.503  -2.356  0.00  0.00     0.001 A 
ATOM     13  C16 NON d   1     -49.046  16.820  -2.929  0.00  0.00     0.015 A 
ENDBRANCH   5   8
ENDBRANCH   3   5
ENDBRANCH   1   3
BRANCH   2  14
ATOM     14  C3  NON d   1     -42.587  17.791  -4.170  0.00  0.00     0.016 A 
ATOM     15  C4  NON d   1     -42.369  17.494  -5.529  0.00  0.00     0.016 A 
ATOM     16  C5  NON d   1     -41.191  17.877  -6.163  0.00  0.00     0.001 A 
ATOM     17  C6  NON d   1     -40.223  18.569  -5.446  0.00  0.00     0.003 A 
ATOM     18  C7  NON d   1     -40.429  18.868  -4.095  0.00  0.00     0.037 A 
ATOM     19  C8  NON d   1     -41.604  18.473  -3.433  0.00  0.00     0.080 A 
BRANCH  19  20
ATOM     20  O1  NON d   1     -41.843  18.709  -2.099  0.00  0.00    -0.348 OA
BRANCH  20  21
ATOM     21  C9  NON d   1     -40.711  19.103  -1.307  0.00  0.00     0.201 C 
BRANCH  21  22
ATOM     22  C10 NON d   1     -40.289  20.530  -1.649  0.00  0.00     0.190 C 
BRANCH  22  23
ATOM     23  O2  NON d   1     -38.981  20.547  -2.214  0.00  0.00    -0.399 OA
ATOM     24  H12 NON d   1     -39.089  20.508  -3.180  0.00  0.00     0.209 HD
ENDBRANCH  22  23
ENDBRANCH  21  22
ENDBRANCH  20  21
ENDBRANCH  19  20
ENDBRANCH   2  14
TORSDOF 8
ENDMDL
MODEL 4
REMARK VINA RESULT:   -28.493      4.439      8.930
REMARK INTER + INTRA:         -31.930
REMARK INTER:                 -30.879
REMARK INTRA:                  -1.050
REMARK CONF_INDEPENDENT:        2.386
REMARK UNBOUND:                -1.050
REMARK  8 active torsions:
REMARK  status: ('A' for Active; 'I' for Inactive)
REMARK    1  A    between atoms: C1_2  and  N2_3 
REMARK    2  A    between atoms: C1_2  and  C11_16 
REMARK    3  A    between atoms: N2_3  and  N3_4 
REMARK    4  A    between atoms: C2_5  and  C3_6 
REMARK    5  A    between atoms: C8_11  and  O1_12 
REMARK    6  A    between atoms: O1_12  and  C9_13 
REMARK    7  A    between atoms: C9_13  and  C10_14 
REMARK    8  A    between atoms: C10_14  and  O2_15 
ROOT
ATOM      1  N3  NON d   1     -48.344  16.370  -2.994  0.00  0.00    -0.185 NA
ATOM      2  C2  NON d   1     -49.610  16.187  -2.774  0.00  0.00     0.152 C 
ENDROOT
BRANCH   1   3
ATOM      3  N2  NON d   1     -47.761  15.686  -4.022  0.00  0.00    -0.261 N 
ATOM      4  H2  NON d   1     -47.952  14.698  -4.141  0.00  0.00     0.191 HD
BRANCH   3   5
ATOM      5  C1  NON d   1     -46.980  16.344  -4.957  0.00  0.00     0.146 C 
ATOM      6  N1  NON d   1     -47.435  16.437  -6.178  0.00  0.00    -0.282 NA
ATOM      7  H1  NON d   1     -48.342  15.944  -6.116  0.00  0.00     0.188 HD
BRANCH   5   8
ATOM      8  C11 NON d   1     -45.649  16.954  -4.636  0.00  0.00     0.011 A 
ATOM      9  C12 NON d   1     -44.852  16.508  -3.577  0.00  0.00     0.015 A 
ATOM     10  C13 NON d   1     -43.617  17.119  -3.323  0.00  0.00     0.001 A 
ATOM     11  C14 NON d   1     -43.172  18.174  -4.120  0.00  0.00     0.000 A 
ATOM     12  C15 NON d   1     -43.957  18.625  -5.175  0.00  0.00     0.001 A 
ATOM     13  C16 NON d   1     -45.188  18.017  -5.432  0.00  0.00     0.015 A 
ENDBRANCH   5   8
ENDBRANCH   3   5
ENDBRANCH   1   3
BRANCH   2  14
ATOM     14  C3  NON d   1     -50.283  16.930  -1.677  0.00  0.00     0.016 A 
ATOM     15  C4  NON d   1     -49.503  17.312  -0.568  0.00  0.00     0.016 A 
ATOM     16  C5  NON d   1     -50.063  18.029   0.484  0.00  0.00     0.001 A 
ATOM     17  C6  NON d   1     -51.406  18.380   0.434  0.00  0.00     0.003 A 
ATOM     18  C7  NON d   1     -52.189  18.004  -0.662  0.00  0.00     0.037 A 
ATOM     19  C8  NON d   1     -51.646  17.264  -1.726  0.00  0.00     0.080 A 
BRANCH  19  20
ATOM     20  O1  NON d   1     -52.378  16.838  -2.809  0.00  0.00    -0.348 OA
BRANCH  20  21
ATOM     21  C9  NON d   1     -53.566  16.082  -2.522  0.00  0.00     0.201 C 
BRANCH  21  22
ATOM     22  C10 NON d   1     -54.789  16.996  -2.490  0.00  0.00     0.190 C 
BRANCH  22  23
ATOM     23  O2  NON d   1     -54.939  17.678  -3.732  0.00  0.00    -0.399 OA
ATOM     24  H12 NON d   1     -54.186  17.419  -4.291  0.00  0.00     0.209 HD
ENDBRANCH  22  23
ENDBRANCH  21  22
ENDBRANCH  20  21
ENDBRANCH  19  20
ENDBRANCH   2  14
TORSDOF 8
ENDMDL
