MODEL 1
REMARK VINA RESULT:   -17.332      0.000      0.000
REMARK INTER + INTRA:         -19.848
REMARK INTER:                 -19.719
REMARK INTRA:                  -0.129
REMARK CONF_INDEPENDENT:        2.386
REMARK UNBOUND:                -0.129
REMARK  8 active torsions:
REMARK  status: ('A' for Active; 'I' for Inactive)
REMARK    1  A    between atoms: O1_2  and  C2_3 
REMARK    2  A    between atoms: C6_7  and  C7_8 
REMARK    3  A    between atoms: C7_8  and  S1_9 
REMARK    4  A    between atoms: S1_9  and  C8_10 
REMARK    5  A    between atoms: C8_10  and  C9_11 
REMARK    6  A    between atoms: C9_11  and  C10_12 
REMARK    7  A    between atoms: C10_12  and  O3_14 
REMARK    8  A    between atoms: O3_14  and  C11_15 
ROOT
ATOM      1  S1  NON d   1     -45.881  17.627  -5.810  0.00  0.00    -0.164 SA
ENDROOT
BRANCH   1   2
ATOM      2  C7  NON d   1     -44.802  19.092  -5.589  0.00  0.00     0.112 C 
BRANCH   2   3
ATOM      3  C6  NON d   1     -43.367  18.868  -5.148  0.00  0.00    -0.046 A 
ATOM      4  C5  NON d   1     -42.329  19.508  -5.852  0.00  0.00     0.008 A 
ATOM      5  C4  NON d   1     -40.981  19.292  -5.524  0.00  0.00     0.003 A 
ATOM      6  C3  NON d   1     -40.631  18.423  -4.489  0.00  0.00     0.037 A 
ATOM      7  C2  NON d   1     -41.638  17.776  -3.792  0.00  0.00     0.068 A 
ATOM      8  C15 NON d   1     -42.989  17.997  -4.121  0.00  0.00     0.044 A 
BRANCH   7   9
ATOM      9  O1  NON d   1     -41.464  16.905  -2.769  0.00  0.00    -0.356 OA
ATOM     10  C1  NON d   1     -40.359  17.167  -1.728  0.00  0.00     0.210 C 
ENDBRANCH   7   9
ENDBRANCH   2   3
ENDBRANCH   1   2
BRANCH   1  11
ATOM     11  C8  NON d   1     -45.802  16.886  -4.127  0.00  0.00     0.084 C 
BRANCH  11  12
ATOM     12  C9  NON d   1     -46.827  15.759  -3.924  0.00  0.00     0.121 C 
BRANCH  12  13
ATOM     13  C10 NON d   1     -47.586  15.387  -5.193  0.00  0.00     0.260 C 
ATOM     14  O2  NON d   1     -47.073  15.005  -6.231  0.00  0.00    -0.265 OA
BRANCH  13  15
ATOM     15  O3  NON d   1     -48.917  15.598  -5.010  0.00  0.00    -0.311 OA
BRANCH  15  16
ATOM     16  C11 NON d   1     -49.644  15.738  -3.660  0.00  0.00     0.060 C 
ATOM     17  C12 NON d   1     -50.372  15.878  -2.310  0.00  0.00     0.045 C 
ATOM     18  C13 NON d   1     -49.220  17.216  -3.585  0.00  0.00     0.045 C 
ATOM     19  C14 NON d   1     -50.069  14.260  -3.736  0.00  0.00     0.045 C 
ENDBRANCH  15  16
ENDBRANCH  13  15
ENDBRANCH  12  13
ENDBRANCH  11  12
ENDBRANCH   1  11
TORSDOF 8
ENDMDL
MODEL 2
REMARK VINA RESULT:   -17.165      1.170      2.243
REMARK INTER + INTRA:         -19.740
REMARK INTER:                 -19.552
REMARK INTRA:                  -0.188
REMARK CONF_INDEPENDENT:        2.386
REMARK UNBOUND:                -0.188
REMARK  8 active torsions:
REMARK  status: ('A' for Active; 'I' for Inactive)
REMARK    1  A    between atoms: O1_2  and  C2_3 
REMARK    2  A    between atoms: C6_7  and  C7_8 
REMARK    3  A    between atoms: C7_8  and  S1_9 
REMARK    4  A    between atoms: S1_9  and  C8_10 
REMARK    5  A    between atoms: C8_10  and  C9_11 
REMARK    6  A    between atoms: C9_11  and  C10_12 
REMARK    7  A    between atoms: C10_12  and  O3_14 
REMARK    8  A    between atoms: O3_14  and  C11_15 
ROOT
ATOM      1  S1  NON d   1     -45.885  17.630  -5.810  0.00  0.00    -0.164 SA
ENDROOT
BRANCH   1   2
ATOM      2  C7  NON d   1     -44.723  19.028  -5.571  0.00  0.00     0.112 C 
BRANCH   2   3
ATOM      3  C6  NON d   1     -43.314  18.719  -5.102  0.00  0.00    -0.046 A 
ATOM      4  C5  NON d   1     -43.136  17.971  -3.922  0.00  0.00     0.008 A 
ATOM      5  C4  NON d   1     -41.855  17.705  -3.411  0.00  0.00     0.003 A 
ATOM      6  C3  NON d   1     -40.716  18.186  -4.059  0.00  0.00     0.037 A 
ATOM      7  C2  NON d   1     -40.872  18.932  -5.215  0.00  0.00     0.068 A 
ATOM      8  C15 NON d   1     -42.157  19.195  -5.727  0.00  0.00     0.044 A 
BRANCH   7   9
ATOM      9  O1  NON d   1     -39.872  19.469  -5.955  0.00  0.00    -0.356 OA
ATOM     10  C1  NON d   1     -39.412  18.756  -7.240  0.00  0.00     0.210 C 
ENDBRANCH   7   9
ENDBRANCH   2   3
ENDBRANCH   1   2
BRANCH   1  11
ATOM     11  C8  NON d   1     -45.885  16.893  -4.123  0.00  0.00     0.084 C 
BRANCH  11  12
ATOM     12  C9  NON d   1     -46.854  15.707  -3.992  0.00  0.00     0.121 C 
BRANCH  12  13
ATOM     13  C10 NON d   1     -47.611  15.391  -5.277  0.00  0.00     0.260 C 
ATOM     14  O2  NON d   1     -47.102  15.005  -6.315  0.00  0.00    -0.265 OA
BRANCH  13  15
ATOM     15  O3  NON d   1     -48.934  15.659  -5.107  0.00  0.00    -0.311 OA
BRANCH  15  16
ATOM     16  C11 NON d   1     -49.693  15.708  -3.768  0.00  0.00     0.060 C 
ATOM     17  C12 NON d   1     -50.450  15.757  -2.428  0.00  0.00     0.045 C 
ATOM     18  C13 NON d   1     -50.080  14.227  -3.933  0.00  0.00     0.045 C 
ATOM     19  C14 NON d   1     -49.304  17.189  -3.602  0.00  0.00     0.045 C 
ENDBRANCH  15  16
ENDBRANCH  13  15
ENDBRANCH  12  13
ENDBRANCH  11  12
ENDBRANCH   1  11
TORSDOF 8
ENDMDL
MODEL 3
REMARK VINA RESULT:   -14.686      1.773      7.916
REMARK INTER + INTRA:         -17.342
REMARK INTER:                 -17.073
REMARK INTRA:                  -0.269
REMARK CONF_INDEPENDENT:        2.386
REMARK UNBOUND:                -0.269
REMARK  8 active torsions:
REMARK  status: ('A' for Active; 'I' for Inactive)
REMARK    1  A    between atoms: O1_2  and  C2_3 
REMARK    2  A    between atoms: C6_7  and  C7_8 
REMARK    3  A    between atoms: C7_8  and  S1_9 
REMARK    4  A    between atoms: S1_9  and  C8_10 
REMARK    5  A    between atoms: C8_10  and  C9_11 
REMARK    6  A    between atoms: C9_11  and  C10_12 
REMARK    7  A    between atoms: C10_12  and  O3_14 
REMARK    8  A    between atoms: O3_14  and  C11_15 
ROOT
ATOM      1  S1  NON d   1     -46.339  16.667  -5.809  0.00  0.00    -0.164 SA
ENDROOT
BRANCH   1   2
ATOM      2  C7  NON d   1     -47.429  15.395  -5.066  0.00  0.00     0.112 C 
BRANCH   2   3
ATOM      3  C6  NON d   1     -48.323  15.801  -3.909  0.00  0.00    -0.046 A 
ATOM      4  C5  NON d   1     -47.748  16.446  -2.797  0.00  0.00     0.008 A 
ATOM      5  C4  NON d   1     -48.517  16.793  -1.674  0.00  0.00     0.003 A 
ATOM      6  C3  NON d   1     -49.881  16.497  -1.627  0.00  0.00     0.037 A 
ATOM      7  C2  NON d   1     -50.462  15.854  -2.707  0.00  0.00     0.068 A 
ATOM      8  C15 NON d   1     -49.689  15.510  -3.833  0.00  0.00     0.044 A 
BRANCH   7   9
ATOM      9  O1  NON d   1     -51.764  15.497  -2.814  0.00  0.00    -0.356 OA
ATOM     10  C1  NON d   1     -52.862  16.508  -2.432  0.00  0.00     0.210 C 
ENDBRANCH   7   9
ENDBRANCH   2   3
ENDBRANCH   1   2
BRANCH   1  11
ATOM     11  C8  NON d   1     -45.304  17.122  -4.356  0.00  0.00     0.084 C 
BRANCH  11  12
ATOM     12  C9  NON d   1     -44.193  18.124  -4.707  0.00  0.00     0.121 C 
BRANCH  12  13
ATOM     13  C10 NON d   1     -42.801  17.502  -4.754  0.00  0.00     0.260 C 
ATOM     14  O2  NON d   1     -42.339  16.888  -5.700  0.00  0.00    -0.265 OA
BRANCH  13  15
ATOM     15  O3  NON d   1     -42.175  17.690  -3.562  0.00  0.00    -0.311 OA
BRANCH  15  16
ATOM     16  C11 NON d   1     -40.811  18.371  -3.342  0.00  0.00     0.060 C 
ATOM     17  C12 NON d   1     -39.448  19.053  -3.121  0.00  0.00     0.045 C 
ATOM     18  C13 NON d   1     -40.921  19.038  -4.725  0.00  0.00     0.045 C 
ATOM     19  C14 NON d   1     -40.702  17.704  -1.958  0.00  0.00     0.045 C 
ENDBRANCH  15  16
ENDBRANCH  13  15
ENDBRANCH  12  13
ENDBRANCH  11  12
ENDBRANCH   1  11
TORSDOF 8
ENDMDL
MODEL 4
REMARK VINA RESULT:   -14.686      1.963      7.950
REMARK INTER + INTRA:         -17.507
REMARK INTER:                 -17.072
REMARK INTRA:                  -0.435
REMARK CONF_INDEPENDENT:        2.386
REMARK UNBOUND:                -0.435
REMARK  8 active torsions:
REMARK  status: ('A' for Active; 'I' for Inactive)
REMARK    1  A    between atoms: O1_2  and  C2_3 
REMARK    2  A    between atoms: C6_7  and  C7_8 
REMARK    3  A    between atoms: C7_8  and  S1_9 
REMARK    4  A    between atoms: S1_9  and  C8_10 
REMARK    5  A    between atoms: C8_10  and  C9_11 
REMARK    6  A    between atoms: C9_11  and  C10_12 
REMARK    7  A    between atoms: C10_12  and  O3_14 
REMARK    8  A    between atoms: O3_14  and  C11_15 
ROOT
ATOM      1  S1  NON d   1     -46.315  16.689  -5.801  0.00  0.00    -0.164 SA
ENDROOT
BRANCH   1   2
ATOM      2  C7  NON d   1     -47.359  15.403  -5.015  0.00  0.00     0.112 C 
BRANCH   2   3
ATOM      3  C6  NON d   1     -48.276  15.816  -3.879  0.00  0.00    -0.046 A 
ATOM      4  C5  NON d   1     -47.731  16.511  -2.781  0.00  0.00     0.008 A 
ATOM      5  C4  NON d   1     -48.522  16.868  -1.676  0.00  0.00     0.003 A 
ATOM      6  C3  NON d   1     -49.876  16.534  -1.633  0.00  0.00     0.037 A 
ATOM      7  C2  NON d   1     -50.427  15.842  -2.699  0.00  0.00     0.068 A 
ATOM      8  C15 NON d   1     -49.633  15.488  -3.807  0.00  0.00     0.044 A 
BRANCH   7   9
ATOM      9  O1  NON d   1     -51.718  15.444  -2.807  0.00  0.00    -0.356 OA
ATOM     10  C1  NON d   1     -52.848  16.422  -2.434  0.00  0.00     0.210 C 
ENDBRANCH   7   9
ENDBRANCH   2   3
ENDBRANCH   1   2
BRANCH   1  11
ATOM     11  C8  NON d   1     -45.205  17.131  -4.400  0.00  0.00     0.084 C 
BRANCH  11  12
ATOM     12  C9  NON d   1     -43.731  16.794  -4.679  0.00  0.00     0.121 C 
BRANCH  12  13
ATOM     13  C10 NON d   1     -42.843  18.023  -4.837  0.00  0.00     0.260 C 
ATOM     14  O2  NON d   1     -43.148  19.036  -5.442  0.00  0.00    -0.265 OA
BRANCH  13  15
ATOM     15  O3  NON d   1     -41.637  17.795  -4.249  0.00  0.00    -0.311 OA
BRANCH  15  16
ATOM     16  C11 NON d   1     -40.875  18.761  -3.324  0.00  0.00     0.060 C 
ATOM     17  C12 NON d   1     -40.111  19.727  -2.398  0.00  0.00     0.045 C 
ATOM     18  C13 NON d   1     -41.440  18.029  -2.093  0.00  0.00     0.045 C 
ATOM     19  C14 NON d   1     -40.308  19.493  -4.555  0.00  0.00     0.045 C 
ENDBRANCH  15  16
ENDBRANCH  13  15
ENDBRANCH  12  13
ENDBRANCH  11  12
ENDBRANCH   1  11
TORSDOF 8
ENDMDL
