MODEL 1
REMARK VINA RESULT:   -17.427      0.000      0.000
REMARK INTER + INTRA:         -19.472
REMARK INTER:                 -18.919
REMARK INTRA:                  -0.553
REMARK CONF_INDEPENDENT:        1.492
REMARK UNBOUND:                -0.553
REMARK  5 active torsions:
REMARK  status: ('A' for Active; 'I' for Inactive)
REMARK    1  A    between atoms: C2_2  and  C3_3 
REMARK    2  A    between atoms: C3_3  and  C9_13 
REMARK    3  A    between atoms: N1_4  and  N2_5 
REMARK       I    between atoms: N2_5  and  C4_6 
REMARK    4  A    between atoms: C4_6  and  C5_8 
REMARK    5  A    between atoms: C12_16  and  O2_17 
ROOT
ATOM      1  C3  NON d   1     -42.445  18.062  -4.445  0.00  0.00     0.064 C 
ATOM      2  N1  NON d   1     -43.615  18.114  -5.018  0.00  0.00    -0.176 NA
ENDROOT
BRANCH   1   3
ATOM      3  C2  NON d   1     -42.017  17.263  -3.198  0.00  0.00     0.057 C 
ATOM      4  C1  NON d   1     -41.005  17.963  -2.273  0.00  0.00     0.011 C 
ENDBRANCH   1   3
BRANCH   1   5
ATOM      5  C9  NON d   1     -41.368  18.914  -5.095  0.00  0.00    -0.010 A 
ATOM      6  C10 NON d   1     -41.049  20.201  -4.642  0.00  0.00     0.016 A 
ATOM      7  C11 NON d   1     -40.037  20.938  -5.266  0.00  0.00     0.037 A 
ATOM      8  C12 NON d   1     -39.342  20.396  -6.340  0.00  0.00     0.065 A 
ATOM      9  C13 NON d   1     -39.640  19.124  -6.807  0.00  0.00     0.037 A 
ATOM     10  C14 NON d   1     -40.651  18.386  -6.185  0.00  0.00     0.016 A 
BRANCH   8  11
ATOM     11  O2  NON d   1     -38.363  21.151  -6.912  0.00  0.00    -0.361 OA
ATOM     12  H12 NON d   1     -38.092  21.838  -6.280  0.00  0.00     0.217 HD
ENDBRANCH   8  11
ENDBRANCH   1   5
BRANCH   2  13
ATOM     13  N2  NON d   1     -44.695  17.395  -4.641  0.00  0.00    -0.242 N 
ATOM     14  C4  NON d   1     -45.850  17.387  -5.419  0.00  0.00     0.278 C 
ATOM     15  O1  NON d   1     -45.951  18.005  -6.479  0.00  0.00    -0.265 OA
ATOM     16  H6  NON d   1     -44.664  16.771  -3.852  0.00  0.00     0.192 HD
BRANCH  14  17
ATOM     17  C5  NON d   1     -46.961  16.598  -4.879  0.00  0.00     0.074 A 
ATOM     18  C6  NON d   1     -47.453  16.644  -3.584  0.00  0.00     0.025 A 
ATOM     19  C7  NON d   1     -48.509  15.714  -3.360  0.00  0.00     0.009 A 
ATOM     20  C8  NON d   1     -48.799  14.986  -4.492  0.00  0.00     0.050 A 
ATOM     21  S1  NON d   1     -47.815  15.441  -5.810  0.00  0.00    -0.097 SA
ENDBRANCH  14  17
ENDBRANCH   2  13
TORSDOF 5
ENDMDL
MODEL 2
REMARK VINA RESULT:   -14.910      1.988      2.617
REMARK INTER + INTRA:         -16.985
REMARK INTER:                 -16.401
REMARK INTRA:                  -0.584
REMARK CONF_INDEPENDENT:        1.492
REMARK UNBOUND:                -0.584
REMARK  5 active torsions:
REMARK  status: ('A' for Active; 'I' for Inactive)
REMARK    1  A    between atoms: C2_2  and  C3_3 
REMARK    2  A    between atoms: C3_3  and  C9_13 
REMARK    3  A    between atoms: N1_4  and  N2_5 
REMARK       I    between atoms: N2_5  and  C4_6 
REMARK    4  A    between atoms: C4_6  and  C5_8 
REMARK    5  A    between atoms: C12_16  and  O2_17 
ROOT
ATOM      1  C3  NON d   1     -42.081  17.816  -3.847  0.00  0.00     0.064 C 
ATOM      2  N1  NON d   1     -42.956  17.467  -2.945  0.00  0.00    -0.176 NA
ENDROOT
BRANCH   1   3
ATOM      3  C2  NON d   1     -42.129  17.600  -5.372  0.00  0.00     0.057 C 
ATOM      4  C1  NON d   1     -41.062  18.354  -6.186  0.00  0.00     0.011 C 
ENDBRANCH   1   3
BRANCH   1   5
ATOM      5  C9  NON d   1     -40.849  18.524  -3.309  0.00  0.00    -0.010 A 
ATOM      6  C10 NON d   1     -40.790  19.914  -3.141  0.00  0.00     0.016 A 
ATOM      7  C11 NON d   1     -39.637  20.514  -2.626  0.00  0.00     0.037 A 
ATOM      8  C12 NON d   1     -38.541  19.734  -2.278  0.00  0.00     0.065 A 
ATOM      9  C13 NON d   1     -38.575  18.356  -2.435  0.00  0.00     0.037 A 
ATOM     10  C14 NON d   1     -39.727  17.754  -2.950  0.00  0.00     0.016 A 
BRANCH   8  11
ATOM     11  O2  NON d   1     -37.443  20.365  -1.778  0.00  0.00    -0.361 OA
ATOM     12  H12 NON d   1     -37.213  19.959  -0.925  0.00  0.00     0.217 HD
ENDBRANCH   8  11
ENDBRANCH   1   5
BRANCH   2  13
ATOM     13  N2  NON d   1     -44.146  16.881  -3.206  0.00  0.00    -0.242 N 
ATOM     14  C4  NON d   1     -45.016  17.426  -4.147  0.00  0.00     0.278 C 
ATOM     15  O1  NON d   1     -44.756  18.440  -4.794  0.00  0.00    -0.265 OA
ATOM     16  H6  NON d   1     -44.393  15.988  -2.810  0.00  0.00     0.192 HD
BRANCH  14  17
ATOM     17  C5  NON d   1     -46.287  16.715  -4.306  0.00  0.00     0.074 A 
ATOM     18  C6  NON d   1     -47.232  16.480  -3.320  0.00  0.00     0.025 A 
ATOM     19  C7  NON d   1     -48.340  15.714  -3.786  0.00  0.00     0.009 A 
ATOM     20  C8  NON d   1     -48.215  15.389  -5.117  0.00  0.00     0.050 A 
ATOM     21  S1  NON d   1     -46.781  16.022  -5.793  0.00  0.00    -0.097 SA
ENDBRANCH  14  17
ENDBRANCH   2  13
TORSDOF 5
ENDMDL
