MODEL 1
REMARK VINA RESULT:   -15.556      0.000      0.000
REMARK INTER + INTRA:         -19.332
REMARK INTER:                 -17.942
REMARK INTRA:                  -1.389
REMARK CONF_INDEPENDENT:        2.386
REMARK UNBOUND:                -1.389
REMARK  8 active torsions:
REMARK  status: ('A' for Active; 'I' for Inactive)
REMARK       I    between atoms: C1_2  and  N1_3 
REMARK    1  A    between atoms: C1_2  and  C11_14 
REMARK    2  A    between atoms: N1_3  and  C2_4 
REMARK    3  A    between atoms: C2_4  and  C3_5 
REMARK    4  A    between atoms: C3_5  and  C4_6 
REMARK    5  A    between atoms: C4_6  and  O2_7 
REMARK    6  A    between atoms: O2_7  and  C5_8 
REMARK    7  A    between atoms: C12_15  and  O3_16 
REMARK    8  A    between atoms: C16_20  and  O4_21 
ROOT
ATOM      1  O1  NON d   1     -45.566  16.860  -5.810  0.00  0.00    -0.267 OA
ATOM      2  C1  NON d   1     -45.799  16.720  -4.610  0.00  0.00     0.257 C 
ATOM      3  N1  NON d   1     -44.845  16.946  -3.644  0.00  0.00    -0.357 N 
ATOM      4  H1  NON d   1     -45.091  16.719  -2.682  0.00  0.00     0.162 HD
ENDROOT
BRANCH   2   5
ATOM      5  C11 NON d   1     -47.162  16.277  -4.177  0.00  0.00     0.098 A 
ATOM      6  C12 NON d   1     -47.903  15.444  -5.040  0.00  0.00     0.084 A 
ATOM      7  C13 NON d   1     -49.183  15.004  -4.702  0.00  0.00     0.038 A 
ATOM      8  C14 NON d   1     -49.752  15.388  -3.492  0.00  0.00     0.005 A 
ATOM      9  C15 NON d   1     -49.039  16.208  -2.618  0.00  0.00     0.038 A 
ATOM     10  C16 NON d   1     -47.752  16.648  -2.956  0.00  0.00     0.084 A 
BRANCH   6  11
ATOM     11  O3  NON d   1     -47.439  15.005  -6.256  0.00  0.00    -0.360 OA
ATOM     12  H13 NON d   1     -47.173  15.795  -6.780  0.00  0.00     0.217 HD
ENDBRANCH   6  11
BRANCH  10  13
ATOM     13  O4  NON d   1     -47.085  17.446  -2.059  0.00  0.00    -0.360 OA
ATOM     14  H17 NON d   1     -46.919  16.935  -1.247  0.00  0.00     0.217 HD
ENDBRANCH  10  13
ENDBRANCH   2   5
BRANCH   3  15
ATOM     15  C2  NON d   1     -43.492  17.305  -4.003  0.00  0.00     0.125 C 
BRANCH  15  16
ATOM     16  C3  NON d   1     -43.400  18.549  -4.871  0.00  0.00     0.046 C 
BRANCH  16  17
ATOM     17  C4  NON d   1     -42.034  19.226  -4.803  0.00  0.00     0.177 C 
BRANCH  17  18
ATOM     18  O2  NON d   1     -41.131  18.441  -5.585  0.00  0.00    -0.351 OA
BRANCH  18  19
ATOM     19  C5  NON d   1     -40.508  19.059  -6.633  0.00  0.00     0.068 A 
ATOM     20  C6  NON d   1     -41.251  20.076  -7.236  0.00  0.00     0.037 A 
ATOM     21  C7  NON d   1     -40.741  20.781  -8.328  0.00  0.00     0.003 A 
ATOM     22  C8  NON d   1     -39.476  20.470  -8.822  0.00  0.00     0.000 A 
ATOM     23  C9  NON d   1     -38.725  19.460  -8.221  0.00  0.00     0.003 A 
ATOM     24  C10 NON d   1     -39.239  18.756  -7.127  0.00  0.00     0.037 A 
ENDBRANCH  18  19
ENDBRANCH  17  18
ENDBRANCH  16  17
ENDBRANCH  15  16
ENDBRANCH   3  15
TORSDOF 8
ENDMDL
MODEL 2
REMARK VINA RESULT:   -15.406      0.269      1.852
REMARK INTER + INTRA:         -19.092
REMARK INTER:                 -17.793
REMARK INTRA:                  -1.299
REMARK CONF_INDEPENDENT:        2.386
REMARK UNBOUND:                -1.299
REMARK  8 active torsions:
REMARK  status: ('A' for Active; 'I' for Inactive)
REMARK       I    between atoms: C1_2  and  N1_3 
REMARK    1  A    between atoms: C1_2  and  C11_14 
REMARK    2  A    between atoms: N1_3  and  C2_4 
REMARK    3  A    between atoms: C2_4  and  C3_5 
REMARK    4  A    between atoms: C3_5  and  C4_6 
REMARK    5  A    between atoms: C4_6  and  O2_7 
REMARK    6  A    between atoms: O2_7  and  C5_8 
REMARK    7  A    between atoms: C12_15  and  O3_16 
REMARK    8  A    between atoms: C16_20  and  O4_21 
ROOT
ATOM      1  O1  NON d   1     -45.790  17.022  -5.809  0.00  0.00    -0.267 OA
ATOM      2  C1  NON d   1     -45.981  16.784  -4.617  0.00  0.00     0.257 C 
ATOM      3  N1  NON d   1     -44.997  16.945  -3.668  0.00  0.00    -0.357 N 
ATOM      4  H1  NON d   1     -45.208  16.640  -2.720  0.00  0.00     0.162 HD
ENDROOT
BRANCH   2   5
ATOM      5  C11 NON d   1     -47.324  16.291  -4.176  0.00  0.00     0.098 A 
ATOM      6  C12 NON d   1     -47.809  16.701  -2.917  0.00  0.00     0.084 A 
ATOM      7  C13 NON d   1     -49.047  16.270  -2.441  0.00  0.00     0.038 A 
ATOM      8  C14 NON d   1     -49.830  15.418  -3.213  0.00  0.00     0.005 A 
ATOM      9  C15 NON d   1     -49.376  15.000  -4.464  0.00  0.00     0.038 A 
ATOM     10  C16 NON d   1     -48.133  15.435  -4.944  0.00  0.00     0.084 A 
BRANCH   6  11
ATOM     11  O3  NON d   1     -47.121  17.540  -2.074  0.00  0.00    -0.360 OA
ATOM     12  H13 NON d   1     -46.690  16.986  -1.383  0.00  0.00     0.217 HD
ENDBRANCH   6  11
BRANCH  10  13
ATOM     13  O4  NON d   1     -47.732  15.005  -6.185  0.00  0.00    -0.360 OA
ATOM     14  H17 NON d   1     -47.460  15.778  -6.712  0.00  0.00     0.217 HD
ENDBRANCH  10  13
ENDBRANCH   2   5
BRANCH   3  15
ATOM     15  C2  NON d   1     -43.660  17.348  -4.043  0.00  0.00     0.125 C 
BRANCH  15  16
ATOM     16  C3  NON d   1     -43.610  18.655  -4.815  0.00  0.00     0.046 C 
BRANCH  16  17
ATOM     17  C4  NON d   1     -42.211  19.259  -4.880  0.00  0.00     0.177 C 
BRANCH  17  18
ATOM     18  O2  NON d   1     -41.416  18.403  -5.702  0.00  0.00    -0.351 OA
BRANCH  18  19
ATOM     19  C5  NON d   1     -40.708  18.986  -6.717  0.00  0.00     0.068 A 
ATOM     20  C6  NON d   1     -41.167  20.251  -7.095  0.00  0.00     0.037 A 
ATOM     21  C7  NON d   1     -40.545  20.954  -8.128  0.00  0.00     0.003 A 
ATOM     22  C8  NON d   1     -39.455  20.394  -8.790  0.00  0.00     0.000 A 
ATOM     23  C9  NON d   1     -38.987  19.135  -8.413  0.00  0.00     0.003 A 
ATOM     24  C10 NON d   1     -39.611  18.432  -7.377  0.00  0.00     0.037 A 
ENDBRANCH  18  19
ENDBRANCH  17  18
ENDBRANCH  16  17
ENDBRANCH  15  16
ENDBRANCH   3  15
TORSDOF 8
ENDMDL
MODEL 3
REMARK VINA RESULT:   -15.383      0.963      1.357
REMARK INTER + INTRA:         -19.232
REMARK INTER:                 -17.769
REMARK INTRA:                  -1.463
REMARK CONF_INDEPENDENT:        2.386
REMARK UNBOUND:                -1.463
REMARK  8 active torsions:
REMARK  status: ('A' for Active; 'I' for Inactive)
REMARK       I    between atoms: C1_2  and  N1_3 
REMARK    1  A    between atoms: C1_2  and  C11_14 
REMARK    2  A    between atoms: N1_3  and  C2_4 
REMARK    3  A    between atoms: C2_4  and  C3_5 
REMARK    4  A    between atoms: C3_5  and  C4_6 
REMARK    5  A    between atoms: C4_6  and  O2_7 
REMARK    6  A    between atoms: O2_7  and  C5_8 
REMARK    7  A    between atoms: C12_15  and  O3_16 
REMARK    8  A    between atoms: C16_20  and  O4_21 
ROOT
ATOM      1  O1  NON d   1     -45.940  16.999  -5.817  0.00  0.00    -0.267 OA
ATOM      2  C1  NON d   1     -46.147  16.900  -4.609  0.00  0.00     0.257 C 
ATOM      3  N1  NON d   1     -45.216  17.282  -3.669  0.00  0.00    -0.357 N 
ATOM      4  H1  NON d   1     -45.429  17.082  -2.693  0.00  0.00     0.162 HD
ENDROOT
BRANCH   2   5
ATOM      5  C11 NON d   1     -47.450  16.335  -4.134  0.00  0.00     0.098 A 
ATOM      6  C12 NON d   1     -48.126  15.419  -4.965  0.00  0.00     0.084 A 
ATOM      7  C13 NON d   1     -49.349  14.863  -4.588  0.00  0.00     0.038 A 
ATOM      8  C14 NON d   1     -49.924  15.212  -3.371  0.00  0.00     0.005 A 
ATOM      9  C15 NON d   1     -49.275  16.113  -2.528  0.00  0.00     0.038 A 
ATOM     10  C16 NON d   1     -48.045  16.670  -2.905  0.00  0.00     0.084 A 
BRANCH   6  11
ATOM     11  O3  NON d   1     -47.650  15.005  -6.185  0.00  0.00    -0.360 OA
ATOM     12  H13 NON d   1     -47.494  15.806  -6.736  0.00  0.00     0.217 HD
ENDBRANCH   6  11
BRANCH  10  13
ATOM     13  O4  NON d   1     -47.437  17.545  -2.038  0.00  0.00    -0.360 OA
ATOM     14  H17 NON d   1     -46.865  17.041  -1.432  0.00  0.00     0.217 HD
ENDBRANCH  10  13
ENDBRANCH   2   5
BRANCH   3  15
ATOM     15  C2  NON d   1     -43.914  17.766  -4.065  0.00  0.00     0.125 C 
BRANCH  15  16
ATOM     16  C3  NON d   1     -42.767  16.881  -3.604  0.00  0.00     0.046 C 
BRANCH  16  17
ATOM     17  C4  NON d   1     -41.629  17.664  -2.959  0.00  0.00     0.177 C 
BRANCH  17  18
ATOM     18  O2  NON d   1     -41.645  18.978  -3.519  0.00  0.00    -0.351 OA
BRANCH  18  19
ATOM     19  C5  NON d   1     -41.037  19.151  -4.731  0.00  0.00     0.068 A 
ATOM     20  C6  NON d   1     -41.846  19.729  -5.713  0.00  0.00     0.037 A 
ATOM     21  C7  NON d   1     -41.357  19.949  -7.001  0.00  0.00     0.003 A 
ATOM     22  C8  NON d   1     -40.048  19.593  -7.315  0.00  0.00     0.000 A 
ATOM     23  C9  NON d   1     -39.231  19.023  -6.339  0.00  0.00     0.003 A 
ATOM     24  C10 NON d   1     -39.723  18.803  -5.048  0.00  0.00     0.037 A 
ENDBRANCH  18  19
ENDBRANCH  17  18
ENDBRANCH  16  17
ENDBRANCH  15  16
ENDBRANCH   3  15
TORSDOF 8
ENDMDL
MODEL 4
REMARK VINA RESULT:   -15.083      1.725      2.558
REMARK INTER + INTRA:         -18.699
REMARK INTER:                 -17.470
REMARK INTRA:                  -1.229
REMARK CONF_INDEPENDENT:        2.386
REMARK UNBOUND:                -1.229
REMARK  8 active torsions:
REMARK  status: ('A' for Active; 'I' for Inactive)
REMARK       I    between atoms: C1_2  and  N1_3 
REMARK    1  A    between atoms: C1_2  and  C11_14 
REMARK    2  A    between atoms: N1_3  and  C2_4 
REMARK    3  A    between atoms: C2_4  and  C3_5 
REMARK    4  A    between atoms: C3_5  and  C4_6 
REMARK    5  A    between atoms: C4_6  and  O2_7 
REMARK    6  A    between atoms: O2_7  and  C5_8 
REMARK    7  A    between atoms: C12_15  and  O3_16 
REMARK    8  A    between atoms: C16_20  and  O4_21 
ROOT
ATOM      1  O1  NON d   1     -45.824  17.055  -5.809  0.00  0.00    -0.267 OA
ATOM      2  C1  NON d   1     -46.032  16.894  -4.607  0.00  0.00     0.257 C 
ATOM      3  N1  NON d   1     -45.078  17.170  -3.653  0.00  0.00    -0.357 N 
ATOM      4  H1  NON d   1     -45.297  16.923  -2.689  0.00  0.00     0.162 HD
ENDROOT
BRANCH   2   5
ATOM      5  C11 NON d   1     -47.360  16.370  -4.158  0.00  0.00     0.098 A 
ATOM      6  C12 NON d   1     -48.036  15.454  -4.989  0.00  0.00     0.084 A 
ATOM      7  C13 NON d   1     -49.282  14.935  -4.635  0.00  0.00     0.038 A 
ATOM      8  C14 NON d   1     -49.881  15.322  -3.440  0.00  0.00     0.005 A 
ATOM      9  C15 NON d   1     -49.232  16.223  -2.597  0.00  0.00     0.038 A 
ATOM     10  C16 NON d   1     -47.979  16.742  -2.951  0.00  0.00     0.084 A 
BRANCH   6  11
ATOM     11  O3  NON d   1     -47.539  15.005  -6.188  0.00  0.00    -0.360 OA
ATOM     12  H13 NON d   1     -47.332  15.792  -6.742  0.00  0.00     0.217 HD
ENDBRANCH   6  11
BRANCH  10  13
ATOM     13  O4  NON d   1     -47.373  17.620  -2.085  0.00  0.00    -0.360 OA
ATOM     14  H17 NON d   1     -46.680  17.146  -1.592  0.00  0.00     0.217 HD
ENDBRANCH  10  13
ENDBRANCH   2   5
BRANCH   3  15
ATOM     15  C2  NON d   1     -43.754  17.609  -4.029  0.00  0.00     0.125 C 
BRANCH  15  16
ATOM     16  C3  NON d   1     -43.750  18.723  -5.062  0.00  0.00     0.046 C 
BRANCH  16  17
ATOM     17  C4  NON d   1     -42.508  19.606  -4.986  0.00  0.00     0.177 C 
BRANCH  17  18
ATOM     18  O2  NON d   1     -41.416  18.849  -5.510  0.00  0.00    -0.351 OA
BRANCH  18  19
ATOM     19  C5  NON d   1     -40.375  18.581  -4.664  0.00  0.00     0.068 A 
ATOM     20  C6  NON d   1     -40.755  18.149  -3.391  0.00  0.00     0.037 A 
ATOM     21  C7  NON d   1     -39.795  17.853  -2.422  0.00  0.00     0.003 A 
ATOM     22  C8  NON d   1     -38.442  17.988  -2.725  0.00  0.00     0.000 A 
ATOM     23  C9  NON d   1     -38.055  18.412  -3.995  0.00  0.00     0.003 A 
ATOM     24  C10 NON d   1     -39.019  18.707  -4.965  0.00  0.00     0.037 A 
ENDBRANCH  18  19
ENDBRANCH  17  18
ENDBRANCH  16  17
ENDBRANCH  15  16
ENDBRANCH   3  15
TORSDOF 8
ENDMDL
MODEL 5
REMARK VINA RESULT:   -14.337      2.035      3.452
REMARK INTER + INTRA:         -17.716
REMARK INTER:                 -16.724
REMARK INTRA:                  -0.992
REMARK CONF_INDEPENDENT:        2.386
REMARK UNBOUND:                -0.992
REMARK  8 active torsions:
REMARK  status: ('A' for Active; 'I' for Inactive)
REMARK       I    between atoms: C1_2  and  N1_3 
REMARK    1  A    between atoms: C1_2  and  C11_14 
REMARK    2  A    between atoms: N1_3  and  C2_4 
REMARK    3  A    between atoms: C2_4  and  C3_5 
REMARK    4  A    between atoms: C3_5  and  C4_6 
REMARK    5  A    between atoms: C4_6  and  O2_7 
REMARK    6  A    between atoms: O2_7  and  C5_8 
REMARK    7  A    between atoms: C12_15  and  O3_16 
REMARK    8  A    between atoms: C16_20  and  O4_21 
ROOT
ATOM      1  O1  NON d   1     -45.770  17.053  -5.810  0.00  0.00    -0.267 OA
ATOM      2  C1  NON d   1     -45.992  16.870  -4.614  0.00  0.00     0.257 C 
ATOM      3  N1  NON d   1     -45.050  17.127  -3.643  0.00  0.00    -0.357 N 
ATOM      4  H1  NON d   1     -45.281  16.862  -2.687  0.00  0.00     0.162 HD
ENDROOT
BRANCH   2   5
ATOM      5  C11 NON d   1     -47.327  16.340  -4.191  0.00  0.00     0.098 A 
ATOM      6  C12 NON d   1     -47.851  16.754  -2.949  0.00  0.00     0.084 A 
ATOM      7  C13 NON d   1     -49.084  16.290  -2.490  0.00  0.00     0.038 A 
ATOM      8  C14 NON d   1     -49.821  15.398  -3.263  0.00  0.00     0.005 A 
ATOM      9  C15 NON d   1     -49.328  14.975  -4.496  0.00  0.00     0.038 A 
ATOM     10  C16 NON d   1     -48.091  15.443  -4.959  0.00  0.00     0.084 A 
BRANCH   6  11
ATOM     11  O3  NON d   1     -47.209  17.630  -2.108  0.00  0.00    -0.360 OA
ATOM     12  H13 NON d   1     -46.469  17.145  -1.675  0.00  0.00     0.217 HD
ENDBRANCH   6  11
BRANCH  10  13
ATOM     13  O4  NON d   1     -47.650  15.006  -6.184  0.00  0.00    -0.360 OA
ATOM     14  H17 NON d   1     -46.699  14.805  -6.122  0.00  0.00     0.217 HD
ENDBRANCH  10  13
ENDBRANCH   2   5
BRANCH   3  15
ATOM     15  C2  NON d   1     -43.721  17.570  -3.995  0.00  0.00     0.125 C 
BRANCH  15  16
ATOM     16  C3  NON d   1     -43.703  18.697  -5.015  0.00  0.00     0.046 C 
BRANCH  16  17
ATOM     17  C4  NON d   1     -42.302  19.238  -5.283  0.00  0.00     0.177 C 
BRANCH  17  18
ATOM     18  O2  NON d   1     -41.800  19.751  -4.048  0.00  0.00    -0.351 OA
BRANCH  18  19
ATOM     19  C5  NON d   1     -40.750  19.089  -3.473  0.00  0.00     0.068 A 
ATOM     20  C6  NON d   1     -39.536  19.778  -3.508  0.00  0.00     0.037 A 
ATOM     21  C7  NON d   1     -38.379  19.212  -2.971  0.00  0.00     0.003 A 
ATOM     22  C8  NON d   1     -38.432  17.947  -2.390  0.00  0.00     0.000 A 
ATOM     23  C9  NON d   1     -39.642  17.255  -2.346  0.00  0.00     0.003 A 
ATOM     24  C10 NON d   1     -40.801  17.824  -2.885  0.00  0.00     0.037 A 
ENDBRANCH  18  19
ENDBRANCH  17  18
ENDBRANCH  16  17
ENDBRANCH  15  16
ENDBRANCH   3  15
TORSDOF 8
ENDMDL
MODEL 6
REMARK VINA RESULT:   -14.202      1.891      2.508
REMARK INTER + INTRA:         -17.721
REMARK INTER:                 -16.589
REMARK INTRA:                  -1.132
REMARK CONF_INDEPENDENT:        2.386
REMARK UNBOUND:                -1.132
REMARK  8 active torsions:
REMARK  status: ('A' for Active; 'I' for Inactive)
REMARK       I    between atoms: C1_2  and  N1_3 
REMARK    1  A    between atoms: C1_2  and  C11_14 
REMARK    2  A    between atoms: N1_3  and  C2_4 
REMARK    3  A    between atoms: C2_4  and  C3_5 
REMARK    4  A    between atoms: C3_5  and  C4_6 
REMARK    5  A    between atoms: C4_6  and  O2_7 
REMARK    6  A    between atoms: O2_7  and  C5_8 
REMARK    7  A    between atoms: C12_15  and  O3_16 
REMARK    8  A    between atoms: C16_20  and  O4_21 
ROOT
ATOM      1  O1  NON d   1     -45.921  17.251  -5.813  0.00  0.00    -0.267 OA
ATOM      2  C1  NON d   1     -46.017  16.893  -4.640  0.00  0.00     0.257 C 
ATOM      3  N1  NON d   1     -44.961  16.964  -3.761  0.00  0.00    -0.357 N 
ATOM      4  H1  NON d   1     -45.097  16.563  -2.835  0.00  0.00     0.162 HD
ENDROOT
BRANCH   2   5
ATOM      5  C11 NON d   1     -47.322  16.349  -4.146  0.00  0.00     0.098 A 
ATOM      6  C12 NON d   1     -48.020  15.435  -4.962  0.00  0.00     0.084 A 
ATOM      7  C13 NON d   1     -49.245  14.898  -4.567  0.00  0.00     0.038 A 
ATOM      8  C14 NON d   1     -49.802  15.264  -3.345  0.00  0.00     0.005 A 
ATOM      9  C15 NON d   1     -49.130  16.163  -2.517  0.00  0.00     0.038 A 
ATOM     10  C16 NON d   1     -47.898  16.700  -2.913  0.00  0.00     0.084 A 
BRANCH   6  11
ATOM     11  O3  NON d   1     -47.564  15.006  -6.184  0.00  0.00    -0.360 OA
ATOM     12  H13 NON d   1     -47.035  15.735  -6.582  0.00  0.00     0.217 HD
ENDBRANCH   6  11
BRANCH  10  13
ATOM     13  O4  NON d   1     -47.268  17.574  -2.060  0.00  0.00    -0.360 OA
ATOM     14  H17 NON d   1     -47.724  17.556  -1.200  0.00  0.00     0.217 HD
ENDBRANCH  10  13
ENDBRANCH   2   5
BRANCH   3  15
ATOM     15  C2  NON d   1     -43.658  17.412  -4.197  0.00  0.00     0.125 C 
BRANCH  15  16
ATOM     16  C3  NON d   1     -42.676  17.632  -3.058  0.00  0.00     0.046 C 
BRANCH  16  17
ATOM     17  C4  NON d   1     -41.224  17.695  -3.524  0.00  0.00     0.177 C 
BRANCH  17  18
ATOM     18  O2  NON d   1     -41.141  18.717  -4.520  0.00  0.00    -0.351 OA
BRANCH  18  19
ATOM     19  C5  NON d   1     -40.783  19.970  -4.105  0.00  0.00     0.068 A 
ATOM     20  C6  NON d   1     -40.958  20.973  -5.061  0.00  0.00     0.037 A 
ATOM     21  C7  NON d   1     -40.619  22.297  -4.776  0.00  0.00     0.003 A 
ATOM     22  C8  NON d   1     -40.102  22.625  -3.525  0.00  0.00     0.000 A 
ATOM     23  C9  NON d   1     -39.931  21.630  -2.563  0.00  0.00     0.003 A 
ATOM     24  C10 NON d   1     -40.271  20.304  -2.850  0.00  0.00     0.037 A 
ENDBRANCH  18  19
ENDBRANCH  17  18
ENDBRANCH  16  17
ENDBRANCH  15  16
ENDBRANCH   3  15
TORSDOF 8
ENDMDL
