MODEL 1
REMARK VINA RESULT:   -13.120      0.000      0.000
REMARK INTER + INTRA:         -16.553
REMARK INTER:                 -15.805
REMARK INTRA:                  -0.749
REMARK CONF_INDEPENDENT:        2.685
REMARK UNBOUND:                -0.749
REMARK  9 active torsions:
REMARK  status: ('A' for Active; 'I' for Inactive)
REMARK    1  A    between atoms: O1_2  and  C2_3 
REMARK    2  A    between atoms: C5_6  and  C6_7 
REMARK       I    between atoms: C6_7  and  N1_9 
REMARK    3  A    between atoms: C7_10  and  N1_9 
REMARK    4  A    between atoms: C7_10  and  N2_11 
REMARK    5  A    between atoms: C7_10  and  C16_24 
REMARK    6  A    between atoms: N2_11  and  C8_12 
REMARK    7  A    between atoms: C8_12  and  N3_14 
REMARK    8  A    between atoms: N3_14  and  C9_15 
REMARK    9  A    between atoms: C12_18  and  C13_19 
ROOT
ATOM      1  C7  NON d   1     -38.626  18.899  -2.706  0.00  0.00     0.241 C 
ENDROOT
BRANCH   1   2
ATOM      2  N1  NON d   1     -38.948  20.327  -1.838  0.00  0.00    -0.332 N 
ATOM      3  C6  NON d   1     -39.860  21.399  -1.958  0.00  0.00     0.253 C 
ATOM      4  O2  NON d   1     -40.554  21.579  -2.954  0.00  0.00    -0.268 OA
ATOM      5  H6  NON d   1     -38.593  20.246  -0.893  0.00  0.00     0.165 HD
BRANCH   3   6
ATOM      6  C5  NON d   1     -40.082  22.424  -0.804  0.00  0.00     0.032 A 
ATOM      7  C4  NON d   1     -40.861  23.581  -0.917  0.00  0.00     0.020 A 
ATOM      8  C3  NON d   1     -41.261  24.342   0.249  0.00  0.00     0.038 A 
ATOM      9  C2  NON d   1     -40.909  24.000   1.577  0.00  0.00     0.068 A 
ATOM     10  C18 NON d   1     -40.097  22.871   1.690  0.00  0.00     0.038 A 
ATOM     11  C17 NON d   1     -39.709  22.096   0.526  0.00  0.00     0.020 A 
BRANCH   9  12
ATOM     12  O1  NON d   1     -41.440  24.788   2.605  0.00  0.00    -0.356 OA
ATOM     13  C1  NON d   1     -41.809  26.259   2.339  0.00  0.00     0.210 C 
ENDBRANCH   9  12
ENDBRANCH   3   6
ENDBRANCH   1   2
BRANCH   1  14
ATOM     14  N2  NON d   1     -39.402  18.076  -3.669  0.00  0.00    -0.342 N 
ATOM     15  H8  NON d   1     -38.978  17.207  -3.975  0.00  0.00     0.164 HD
BRANCH  14  16
ATOM     16  C8  NON d   1     -40.334  18.660  -4.527  0.00  0.00     0.173 C 
ATOM     17  S1  NON d   1     -39.958  19.160  -6.087  0.00  0.00    -0.041 SA
BRANCH  16  18
ATOM     18  N3  NON d   1     -41.541  18.871  -3.894  0.00  0.00    -0.333 N 
ATOM     19  H9  NON d   1     -41.565  19.691  -3.303  0.00  0.00     0.168 HD
BRANCH  18  20
ATOM     20  C9  NON d   1     -42.813  18.392  -4.301  0.00  0.00     0.034 A 
ATOM     21  C10 NON d   1     -43.119  17.049  -4.072  0.00  0.00     0.030 A 
ATOM     22  C11 NON d   1     -44.330  16.514  -4.526  0.00  0.00     0.020 A 
ATOM     23  C12 NON d   1     -45.241  17.300  -5.248  0.00  0.00     0.041 A 
ATOM     24  C14 NON d   1     -44.918  18.644  -5.476  0.00  0.00     0.020 A 
ATOM     25  C15 NON d   1     -43.718  19.189  -5.005  0.00  0.00     0.030 A 
BRANCH  23  26
ATOM     26  C13 NON d   1     -46.529  16.703  -5.782  0.00  0.00     0.209 C 
ATOM     27  O3  NON d   1     -46.606  15.437  -5.797  0.00  0.00    -0.644 OA
ATOM     28  O4  NON d   1     -47.420  17.517  -6.178  0.00  0.00    -0.644 OA
ENDBRANCH  23  26
ENDBRANCH  18  20
ENDBRANCH  16  18
ENDBRANCH  14  16
ENDBRANCH   1  14
BRANCH   1  29
ATOM     29  C16 NON d   1     -37.565  17.976  -2.081  0.00  0.00     0.226 C 
ATOM     30 Cl1  NON d   1     -36.708  17.421  -3.862  0.00  0.00    -0.080 Cl
ATOM     31 Cl2  NON d   1     -36.539  19.529  -1.355  0.00  0.00    -0.080 Cl
ATOM     32 Cl3  NON d   1     -36.503  17.051  -1.456  0.00  0.00    -0.080 Cl
ENDBRANCH   1  29
TORSDOF 9
ENDMDL
MODEL 2
REMARK VINA RESULT:   -12.579      1.481      1.893
REMARK INTER + INTRA:         -16.204
REMARK INTER:                 -15.264
REMARK INTRA:                  -0.940
REMARK CONF_INDEPENDENT:        2.685
REMARK UNBOUND:                -0.940
REMARK  9 active torsions:
REMARK  status: ('A' for Active; 'I' for Inactive)
REMARK    1  A    between atoms: O1_2  and  C2_3 
REMARK    2  A    between atoms: C5_6  and  C6_7 
REMARK       I    between atoms: C6_7  and  N1_9 
REMARK    3  A    between atoms: C7_10  and  N1_9 
REMARK    4  A    between atoms: C7_10  and  N2_11 
REMARK    5  A    between atoms: C7_10  and  C16_24 
REMARK    6  A    between atoms: N2_11  and  C8_12 
REMARK    7  A    between atoms: C8_12  and  N3_14 
REMARK    8  A    between atoms: N3_14  and  C9_15 
REMARK    9  A    between atoms: C12_18  and  C13_19 
ROOT
ATOM      1  C7  NON d   1     -39.701  20.926  -3.493  0.00  0.00     0.241 C 
ENDROOT
BRANCH   1   2
ATOM      2  N1  NON d   1     -39.783  22.006  -2.180  0.00  0.00    -0.332 N 
ATOM      3  C6  NON d   1     -40.594  23.108  -1.828  0.00  0.00     0.253 C 
ATOM      4  O2  NON d   1     -41.373  23.643  -2.609  0.00  0.00    -0.268 OA
ATOM      5  H6  NON d   1     -39.334  21.600  -1.369  0.00  0.00     0.165 HD
BRANCH   3   6
ATOM      6  C5  NON d   1     -40.583  23.709  -0.389  0.00  0.00     0.032 A 
ATOM      7  C4  NON d   1     -40.674  25.077  -0.106  0.00  0.00     0.020 A 
ATOM      8  C3  NON d   1     -40.941  25.557   1.234  0.00  0.00     0.038 A 
ATOM      9  C2  NON d   1     -41.129  24.714   2.355  0.00  0.00     0.068 A 
ATOM     10  C18 NON d   1     -40.998  23.351   2.085  0.00  0.00     0.038 A 
ATOM     11  C17 NON d   1     -40.747  22.865   0.741  0.00  0.00     0.020 A 
BRANCH   9  12
ATOM     12  O1  NON d   1     -41.462  25.325   3.569  0.00  0.00    -0.356 OA
ATOM     13  C1  NON d   1     -41.030  24.684   4.901  0.00  0.00     0.210 C 
ENDBRANCH   9  12
ENDBRANCH   3   6
ENDBRANCH   1   2
BRANCH   1  14
ATOM     14  N2  NON d   1     -40.449  20.789  -4.770  0.00  0.00    -0.342 N 
ATOM     15  H8  NON d   1     -40.926  21.616  -5.112  0.00  0.00     0.164 HD
BRANCH  14  16
ATOM     16  C8  NON d   1     -40.950  19.554  -5.181  0.00  0.00     0.173 C 
ATOM     17  S1  NON d   1     -40.573  18.858  -6.664  0.00  0.00    -0.041 SA
BRANCH  16  18
ATOM     18  N3  NON d   1     -41.863  19.053  -4.277  0.00  0.00    -0.333 N 
ATOM     19  H9  NON d   1     -41.789  19.444  -3.347  0.00  0.00     0.168 HD
BRANCH  18  20
ATOM     20  C9  NON d   1     -43.114  18.452  -4.572  0.00  0.00     0.034 A 
ATOM     21  C10 NON d   1     -43.362  17.166  -4.090  0.00  0.00     0.030 A 
ATOM     22  C11 NON d   1     -44.550  16.505  -4.421  0.00  0.00     0.020 A 
ATOM     23  C12 NON d   1     -45.496  17.100  -5.270  0.00  0.00     0.041 A 
ATOM     24  C14 NON d   1     -45.231  18.388  -5.752  0.00  0.00     0.020 A 
ATOM     25  C15 NON d   1     -44.055  19.063  -5.405  0.00  0.00     0.030 A 
BRANCH  23  26
ATOM     26  C13 NON d   1     -46.758  16.359  -5.667  0.00  0.00     0.209 C 
ATOM     27  O3  NON d   1     -47.806  17.058  -5.815  0.00  0.00    -0.644 OA
ATOM     28  O4  NON d   1     -46.665  15.100  -5.810  0.00  0.00    -0.644 OA
ENDBRANCH  23  26
ENDBRANCH  18  20
ENDBRANCH  16  18
ENDBRANCH  14  16
ENDBRANCH   1  14
BRANCH   1  29
ATOM     29  C16 NON d   1     -39.114  19.540  -3.168  0.00  0.00     0.226 C 
ATOM     30 Cl1  NON d   1     -37.369  20.249  -2.351  0.00  0.00    -0.080 Cl
ATOM     31 Cl2  NON d   1     -40.424  19.255  -1.686  0.00  0.00    -0.080 Cl
ATOM     32 Cl3  NON d   1     -38.527  18.154  -2.843  0.00  0.00    -0.080 Cl
ENDBRANCH   1  29
TORSDOF 9
ENDMDL
MODEL 3
REMARK VINA RESULT:   -12.511      3.911      6.479
REMARK INTER + INTRA:         -16.920
REMARK INTER:                 -15.196
REMARK INTRA:                  -1.724
REMARK CONF_INDEPENDENT:        2.685
REMARK UNBOUND:                -1.724
REMARK  9 active torsions:
REMARK  status: ('A' for Active; 'I' for Inactive)
REMARK    1  A    between atoms: O1_2  and  C2_3 
REMARK    2  A    between atoms: C5_6  and  C6_7 
REMARK       I    between atoms: C6_7  and  N1_9 
REMARK    3  A    between atoms: C7_10  and  N1_9 
REMARK    4  A    between atoms: C7_10  and  N2_11 
REMARK    5  A    between atoms: C7_10  and  C16_24 
REMARK    6  A    between atoms: N2_11  and  C8_12 
REMARK    7  A    between atoms: C8_12  and  N3_14 
REMARK    8  A    between atoms: N3_14  and  C9_15 
REMARK    9  A    between atoms: C12_18  and  C13_19 
ROOT
ATOM      1  C7  NON d   1     -39.553  20.718  -3.058  0.00  0.00     0.241 C 
ENDROOT
BRANCH   1   2
ATOM      2  N1  NON d   1     -39.291  20.844  -4.735  0.00  0.00    -0.332 N 
ATOM      3  C6  NON d   1     -39.309  19.952  -5.830  0.00  0.00     0.253 C 
ATOM      4  O2  NON d   1     -39.359  18.733  -5.700  0.00  0.00    -0.268 OA
ATOM      5  H6  NON d   1     -39.416  21.803  -5.035  0.00  0.00     0.165 HD
BRANCH   3   6
ATOM      6  C5  NON d   1     -39.305  20.460  -7.305  0.00  0.00     0.032 A 
ATOM      7  C4  NON d   1     -40.156  21.456  -7.798  0.00  0.00     0.020 A 
ATOM      8  C3  NON d   1     -39.925  22.083  -9.083  0.00  0.00     0.038 A 
ATOM      9  C2  NON d   1     -38.847  21.756  -9.941  0.00  0.00     0.068 A 
ATOM     10  C18 NON d   1     -38.020  20.735  -9.472  0.00  0.00     0.038 A 
ATOM     11  C17 NON d   1     -38.239  20.116  -8.177  0.00  0.00     0.020 A 
BRANCH   9  12
ATOM     12  O1  NON d   1     -38.710  22.508 -11.113  0.00  0.00    -0.356 OA
ATOM     13  C1  NON d   1     -39.173  21.927 -12.462  0.00  0.00     0.210 C 
ENDBRANCH   9  12
ENDBRANCH   3   6
ENDBRANCH   1   2
BRANCH   1  14
ATOM     14  N2  NON d   1     -40.066  19.645  -2.168  0.00  0.00    -0.342 N 
ATOM     15  H8  NON d   1     -39.582  19.510  -1.287  0.00  0.00     0.164 HD
BRANCH  14  16
ATOM     16  C8  NON d   1     -40.751  18.546  -2.687  0.00  0.00     0.173 C 
ATOM     17  S1  NON d   1     -40.612  16.995  -2.054  0.00  0.00    -0.041 SA
BRANCH  16  18
ATOM     18  N3  NON d   1     -41.446  18.879  -3.831  0.00  0.00    -0.333 N 
ATOM     19  H9  NON d   1     -40.869  19.226  -4.585  0.00  0.00     0.168 HD
BRANCH  18  20
ATOM     20  C9  NON d   1     -42.715  18.387  -4.231  0.00  0.00     0.034 A 
ATOM     21  C10 NON d   1     -43.027  17.054  -3.953  0.00  0.00     0.030 A 
ATOM     22  C11 NON d   1     -44.235  16.505  -4.397  0.00  0.00     0.020 A 
ATOM     23  C12 NON d   1     -45.138  17.263  -5.157  0.00  0.00     0.041 A 
ATOM     24  C14 NON d   1     -44.810  18.597  -5.434  0.00  0.00     0.020 A 
ATOM     25  C15 NON d   1     -43.613  19.158  -4.973  0.00  0.00     0.030 A 
BRANCH  23  26
ATOM     26  C13 NON d   1     -46.422  16.649  -5.679  0.00  0.00     0.209 C 
ATOM     27  O3  NON d   1     -46.437  15.387  -5.812  0.00  0.00    -0.644 OA
ATOM     28  O4  NON d   1     -47.374  17.446  -5.948  0.00  0.00    -0.644 OA
ENDBRANCH  23  26
ENDBRANCH  18  20
ENDBRANCH  16  18
ENDBRANCH  14  16
ENDBRANCH   1  14
BRANCH   1  29
ATOM     29  C16 NON d   1     -39.783  22.053  -2.327  0.00  0.00     0.226 C 
ATOM     30 Cl1  NON d   1     -38.045  22.937  -2.971  0.00  0.00    -0.080 Cl
ATOM     31 Cl2  NON d   1     -41.247  22.570  -3.585  0.00  0.00    -0.080 Cl
ATOM     32 Cl3  NON d   1     -40.013  23.389  -1.595  0.00  0.00    -0.080 Cl
ENDBRANCH   1  29
TORSDOF 9
ENDMDL
MODEL 4
REMARK VINA RESULT:   -12.458      4.916      7.024
REMARK INTER + INTRA:         -16.386
REMARK INTER:                 -15.142
REMARK INTRA:                  -1.244
REMARK CONF_INDEPENDENT:        2.685
REMARK UNBOUND:                -1.244
REMARK  9 active torsions:
REMARK  status: ('A' for Active; 'I' for Inactive)
REMARK    1  A    between atoms: O1_2  and  C2_3 
REMARK    2  A    between atoms: C5_6  and  C6_7 
REMARK       I    between atoms: C6_7  and  N1_9 
REMARK    3  A    between atoms: C7_10  and  N1_9 
REMARK    4  A    between atoms: C7_10  and  N2_11 
REMARK    5  A    between atoms: C7_10  and  C16_24 
REMARK    6  A    between atoms: N2_11  and  C8_12 
REMARK    7  A    between atoms: C8_12  and  N3_14 
REMARK    8  A    between atoms: N3_14  and  C9_15 
REMARK    9  A    between atoms: C12_18  and  C13_19 
ROOT
ATOM      1  C7  NON d   1     -39.365  19.922  -5.512  0.00  0.00     0.241 C 
ENDROOT
BRANCH   1   2
ATOM      2  N1  NON d   1     -39.210  20.784  -6.972  0.00  0.00    -0.332 N 
ATOM      3  C6  NON d   1     -39.878  20.792  -8.216  0.00  0.00     0.253 C 
ATOM      4  O2  NON d   1     -40.687  19.931  -8.547  0.00  0.00    -0.268 OA
ATOM      5  H6  NON d   1     -38.714  21.652  -6.810  0.00  0.00     0.165 HD
BRANCH   3   6
ATOM      6  C5  NON d   1     -39.661  21.930  -9.259  0.00  0.00     0.032 A 
ATOM      7  C4  NON d   1     -39.119  21.737 -10.535  0.00  0.00     0.020 A 
ATOM      8  C3  NON d   1     -39.199  22.762 -11.555  0.00  0.00     0.038 A 
ATOM      9  C2  NON d   1     -39.813  24.024 -11.365  0.00  0.00     0.068 A 
ATOM     10  C18 NON d   1     -40.317  24.236 -10.081  0.00  0.00     0.038 A 
ATOM     11  C17 NON d   1     -40.254  23.205  -9.062  0.00  0.00     0.020 A 
BRANCH   9  12
ATOM     12  O1  NON d   1     -39.883  24.877 -12.472  0.00  0.00    -0.356 OA
ATOM     13  C1  NON d   1     -40.750  24.496 -13.687  0.00  0.00     0.210 C 
ENDBRANCH   9  12
ENDBRANCH   3   6
ENDBRANCH   1   2
BRANCH   1  14
ATOM     14  N2  NON d   1     -40.151  18.734  -5.089  0.00  0.00    -0.342 N 
ATOM     15  H8  NON d   1     -40.873  18.413  -5.725  0.00  0.00     0.164 HD
BRANCH  14  16
ATOM     16  C8  NON d   1     -40.312  18.422  -3.739  0.00  0.00     0.173 C 
ATOM     17  S1  NON d   1     -39.135  17.633  -2.834  0.00  0.00    -0.041 SA
BRANCH  16  18
ATOM     18  N3  NON d   1     -41.579  18.737  -3.295  0.00  0.00    -0.333 N 
ATOM     19  H9  NON d   1     -41.633  19.593  -2.759  0.00  0.00     0.168 HD
BRANCH  18  20
ATOM     20  C9  NON d   1     -42.810  18.304  -3.850  0.00  0.00     0.034 A 
ATOM     21  C10 NON d   1     -43.244  17.007  -3.568  0.00  0.00     0.030 A 
ATOM     22  C11 NON d   1     -44.412  16.510  -4.156  0.00  0.00     0.020 A 
ATOM     23  C12 NON d   1     -45.150  17.285  -5.066  0.00  0.00     0.041 A 
ATOM     24  C14 NON d   1     -44.698  18.581  -5.345  0.00  0.00     0.020 A 
ATOM     25  C15 NON d   1     -43.543  19.091  -4.742  0.00  0.00     0.030 A 
BRANCH  23  26
ATOM     26  C13 NON d   1     -46.386  16.724  -5.739  0.00  0.00     0.209 C 
ATOM     27  O3  NON d   1     -46.473  15.460  -5.810  0.00  0.00    -0.644 OA
ATOM     28  O4  NON d   1     -47.230  17.563  -6.185  0.00  0.00    -0.644 OA
ENDBRANCH  23  26
ENDBRANCH  18  20
ENDBRANCH  16  18
ENDBRANCH  14  16
ENDBRANCH   1  14
BRANCH   1  29
ATOM     29  C16 NON d   1     -39.048  20.726  -4.238  0.00  0.00     0.226 C 
ATOM     30 Cl1  NON d   1     -37.250  21.458  -4.904  0.00  0.00    -0.080 Cl
ATOM     31 Cl2  NON d   1     -40.462  22.075  -4.653  0.00  0.00    -0.080 Cl
ATOM     32 Cl3  NON d   1     -38.732  21.529  -2.963  0.00  0.00    -0.080 Cl
ENDBRANCH   1  29
TORSDOF 9
ENDMDL
MODEL 5
REMARK VINA RESULT:   -12.383      1.795      2.630
REMARK INTER + INTRA:         -16.041
REMARK INTER:                 -15.068
REMARK INTRA:                  -0.973
REMARK CONF_INDEPENDENT:        2.685
REMARK UNBOUND:                -0.973
REMARK  9 active torsions:
REMARK  status: ('A' for Active; 'I' for Inactive)
REMARK    1  A    between atoms: O1_2  and  C2_3 
REMARK    2  A    between atoms: C5_6  and  C6_7 
REMARK       I    between atoms: C6_7  and  N1_9 
REMARK    3  A    between atoms: C7_10  and  N1_9 
REMARK    4  A    between atoms: C7_10  and  N2_11 
REMARK    5  A    between atoms: C7_10  and  C16_24 
REMARK    6  A    between atoms: N2_11  and  C8_12 
REMARK    7  A    between atoms: C8_12  and  N3_14 
REMARK    8  A    between atoms: N3_14  and  C9_15 
REMARK    9  A    between atoms: C12_18  and  C13_19 
ROOT
ATOM      1  C7  NON d   1     -39.949  20.906  -1.703  0.00  0.00     0.241 C 
ENDROOT
BRANCH   1   2
ATOM      2  N1  NON d   1     -40.071  22.241  -0.655  0.00  0.00    -0.332 N 
ATOM      3  C6  NON d   1     -40.956  23.331  -0.507  0.00  0.00     0.253 C 
ATOM      4  O2  NON d   1     -41.805  23.623  -1.343  0.00  0.00    -0.268 OA
ATOM      5  H6  NON d   1     -39.561  22.057   0.200  0.00  0.00     0.165 HD
BRANCH   3   6
ATOM      6  C5  NON d   1     -40.942  24.235   0.764  0.00  0.00     0.032 A 
ATOM      7  C4  NON d   1     -41.280  25.594   0.768  0.00  0.00     0.020 A 
ATOM      8  C3  NON d   1     -41.522  26.310   2.003  0.00  0.00     0.038 A 
ATOM      9  C2  NON d   1     -41.440  25.723   3.289  0.00  0.00     0.068 A 
ATOM     10  C18 NON d   1     -41.063  24.380   3.291  0.00  0.00     0.038 A 
ATOM     11  C17 NON d   1     -40.836  23.654   2.055  0.00  0.00     0.020 A 
BRANCH   9  12
ATOM     12  O1  NON d   1     -41.782  26.525   4.384  0.00  0.00    -0.356 OA
ATOM     13  C1  NON d   1     -43.228  27.029   4.550  0.00  0.00     0.210 C 
ENDBRANCH   9  12
ENDBRANCH   3   6
ENDBRANCH   1   2
BRANCH   1  14
ATOM     14  N2  NON d   1     -40.499  19.525  -1.691  0.00  0.00    -0.342 N 
ATOM     15  H8  NON d   1     -40.329  18.972  -0.858  0.00  0.00     0.164 HD
BRANCH  14  16
ATOM     16  C8  NON d   1     -40.720  18.829  -2.879  0.00  0.00     0.173 C 
ATOM     17  S1  NON d   1     -39.687  17.630  -3.446  0.00  0.00    -0.041 SA
BRANCH  16  18
ATOM     18  N3  NON d   1     -41.810  19.327  -3.562  0.00  0.00    -0.333 N 
ATOM     19  H9  NON d   1     -41.658  20.232  -3.987  0.00  0.00     0.168 HD
BRANCH  18  20
ATOM     20  C9  NON d   1     -42.885  18.583  -4.112  0.00  0.00     0.034 A 
ATOM     21  C10 NON d   1     -43.753  19.228  -4.996  0.00  0.00     0.030 A 
ATOM     22  C11 NON d   1     -44.871  18.556  -5.503  0.00  0.00     0.020 A 
ATOM     23  C12 NON d   1     -45.165  17.242  -5.109  0.00  0.00     0.041 A 
ATOM     24  C14 NON d   1     -44.289  16.610  -4.216  0.00  0.00     0.020 A 
ATOM     25  C15 NON d   1     -43.157  17.270  -3.724  0.00  0.00     0.030 A 
BRANCH  23  26
ATOM     26  C13 NON d   1     -46.405  16.536  -5.621  0.00  0.00     0.209 C 
ATOM     27  O3  NON d   1     -47.433  17.255  -5.810  0.00  0.00    -0.644 OA
ATOM     28  O4  NON d   1     -46.318  15.283  -5.810  0.00  0.00    -0.644 OA
ENDBRANCH  23  26
ENDBRANCH  18  20
ENDBRANCH  16  18
ENDBRANCH  14  16
ENDBRANCH   1  14
BRANCH   1  29
ATOM     29  C16 NON d   1     -38.688  20.876  -2.586  0.00  0.00     0.226 C 
ATOM     30 Cl1  NON d   1     -38.946  22.757  -3.366  0.00  0.00    -0.080 Cl
ATOM     31 Cl2  NON d   1     -37.487  21.021  -0.996  0.00  0.00    -0.080 Cl
ATOM     32 Cl3  NON d   1     -37.427  20.846  -3.470  0.00  0.00    -0.080 Cl
ENDBRANCH   1  29
TORSDOF 9
ENDMDL
MODEL 6
REMARK VINA RESULT:   -12.289      1.895      2.389
REMARK INTER + INTRA:         -15.983
REMARK INTER:                 -14.973
REMARK INTRA:                  -1.009
REMARK CONF_INDEPENDENT:        2.685
REMARK UNBOUND:                -1.009
REMARK  9 active torsions:
REMARK  status: ('A' for Active; 'I' for Inactive)
REMARK    1  A    between atoms: O1_2  and  C2_3 
REMARK    2  A    between atoms: C5_6  and  C6_7 
REMARK       I    between atoms: C6_7  and  N1_9 
REMARK    3  A    between atoms: C7_10  and  N1_9 
REMARK    4  A    between atoms: C7_10  and  N2_11 
REMARK    5  A    between atoms: C7_10  and  C16_24 
REMARK    6  A    between atoms: N2_11  and  C8_12 
REMARK    7  A    between atoms: C8_12  and  N3_14 
REMARK    8  A    between atoms: N3_14  and  C9_15 
REMARK    9  A    between atoms: C12_18  and  C13_19 
ROOT
ATOM      1  C7  NON d   1     -39.233  20.463  -3.722  0.00  0.00     0.241 C 
ENDROOT
BRANCH   1   2
ATOM      2  N1  NON d   1     -39.437  21.625  -2.495  0.00  0.00    -0.332 N 
ATOM      3  C6  NON d   1     -40.389  22.625  -2.199  0.00  0.00     0.253 C 
ATOM      4  O2  NON d   1     -41.258  22.978  -2.989  0.00  0.00    -0.268 OA
ATOM      5  H6  NON d   1     -38.912  21.355  -1.672  0.00  0.00     0.165 HD
BRANCH   3   6
ATOM      6  C5  NON d   1     -40.429  23.338  -0.812  0.00  0.00     0.032 A 
ATOM      7  C4  NON d   1     -40.578  24.719  -0.640  0.00  0.00     0.020 A 
ATOM      8  C3  NON d   1     -40.888  25.292   0.654  0.00  0.00     0.038 A 
ATOM      9  C2  NON d   1     -41.064  24.532   1.836  0.00  0.00     0.068 A 
ATOM     10  C18 NON d   1     -40.874  23.159   1.676  0.00  0.00     0.038 A 
ATOM     11  C17 NON d   1     -40.580  22.579   0.379  0.00  0.00     0.020 A 
BRANCH   9  12
ATOM     12  O1  NON d   1     -41.442  25.223   2.992  0.00  0.00    -0.356 OA
ATOM     13  C1  NON d   1     -41.642  24.462   4.316  0.00  0.00     0.210 C 
ENDBRANCH   9  12
ENDBRANCH   3   6
ENDBRANCH   1   2
BRANCH   1  14
ATOM     14  N2  NON d   1     -39.626  19.038  -3.875  0.00  0.00    -0.342 N 
ATOM     15  H8  NON d   1     -39.493  18.622  -4.790  0.00  0.00     0.164 HD
BRANCH  14  16
ATOM     16  C8  NON d   1     -40.604  18.471  -3.058  0.00  0.00     0.173 C 
ATOM     17  S1  NON d   1     -40.296  17.195  -2.009  0.00  0.00    -0.041 SA
BRANCH  16  18
ATOM     18  N3  NON d   1     -41.849  19.011  -3.310  0.00  0.00    -0.333 N 
ATOM     19  H9  NON d   1     -41.867  20.021  -3.341  0.00  0.00     0.168 HD
BRANCH  18  20
ATOM     20  C9  NON d   1     -42.939  18.374  -3.957  0.00  0.00     0.034 A 
ATOM     21  C10 NON d   1     -43.721  19.128  -4.834  0.00  0.00     0.030 A 
ATOM     22  C11 NON d   1     -44.851  18.564  -5.435  0.00  0.00     0.020 A 
ATOM     23  C12 NON d   1     -45.244  17.249  -5.144  0.00  0.00     0.041 A 
ATOM     24  C14 NON d   1     -44.454  16.505  -4.257  0.00  0.00     0.020 A 
ATOM     25  C15 NON d   1     -43.310  17.058  -3.671  0.00  0.00     0.030 A 
BRANCH  23  26
ATOM     26  C13 NON d   1     -46.498  16.659  -5.758  0.00  0.00     0.209 C 
ATOM     27  O3  NON d   1     -47.375  17.480  -6.163  0.00  0.00    -0.644 OA
ATOM     28  O4  NON d   1     -46.573  15.391  -5.809  0.00  0.00    -0.644 OA
ENDBRANCH  23  26
ENDBRANCH  18  20
ENDBRANCH  16  18
ENDBRANCH  14  16
ENDBRANCH   1  14
BRANCH   1  29
ATOM     29  C16 NON d   1     -38.034  20.699  -4.658  0.00  0.00     0.226 C 
ATOM     30 Cl1  NON d   1     -38.596  22.587  -5.234  0.00  0.00    -0.080 Cl
ATOM     31 Cl2  NON d   1     -36.775  20.868  -3.116  0.00  0.00    -0.080 Cl
ATOM     32 Cl3  NON d   1     -36.834  20.934  -5.594  0.00  0.00    -0.080 Cl
ENDBRANCH   1  29
TORSDOF 9
ENDMDL
MODEL 7
REMARK VINA RESULT:   -12.075      4.957      6.729
REMARK INTER + INTRA:         -15.739
REMARK INTER:                 -14.760
REMARK INTRA:                  -0.979
REMARK CONF_INDEPENDENT:        2.685
REMARK UNBOUND:                -0.979
REMARK  9 active torsions:
REMARK  status: ('A' for Active; 'I' for Inactive)
REMARK    1  A    between atoms: O1_2  and  C2_3 
REMARK    2  A    between atoms: C5_6  and  C6_7 
REMARK       I    between atoms: C6_7  and  N1_9 
REMARK    3  A    between atoms: C7_10  and  N1_9 
REMARK    4  A    between atoms: C7_10  and  N2_11 
REMARK    5  A    between atoms: C7_10  and  C16_24 
REMARK    6  A    between atoms: N2_11  and  C8_12 
REMARK    7  A    between atoms: C8_12  and  N3_14 
REMARK    8  A    between atoms: N3_14  and  C9_15 
REMARK    9  A    between atoms: C12_18  and  C13_19 
ROOT
ATOM      1  C7  NON d   1     -38.797  19.594  -6.215  0.00  0.00     0.241 C 
ENDROOT
BRANCH   1   2
ATOM      2  N1  NON d   1     -39.010  20.817  -7.379  0.00  0.00    -0.332 N 
ATOM      3  C6  NON d   1     -39.772  20.967  -8.559  0.00  0.00     0.253 C 
ATOM      4  O2  NON d   1     -40.358  20.036  -9.101  0.00  0.00    -0.268 OA
ATOM      5  H6  NON d   1     -38.742  21.714  -6.992  0.00  0.00     0.165 HD
BRANCH   3   6
ATOM      6  C5  NON d   1     -39.956  22.355  -9.248  0.00  0.00     0.032 A 
ATOM      7  C4  NON d   1     -40.252  23.540  -8.565  0.00  0.00     0.020 A 
ATOM      8  C3  NON d   1     -40.134  24.833  -9.207  0.00  0.00     0.038 A 
ATOM      9  C2  NON d   1     -39.723  25.017 -10.549  0.00  0.00     0.068 A 
ATOM     10  C18 NON d   1     -39.467  23.835 -11.245  0.00  0.00     0.038 A 
ATOM     11  C17 NON d   1     -39.567  22.539 -10.601  0.00  0.00     0.020 A 
BRANCH   9  12
ATOM     12  O1  NON d   1     -39.579  26.334 -11.001  0.00  0.00    -0.356 OA
ATOM     13  C1  NON d   1     -39.019  26.610 -12.409  0.00  0.00     0.210 C 
ENDBRANCH   9  12
ENDBRANCH   3   6
ENDBRANCH   1   2
BRANCH   1  14
ATOM     14  N2  NON d   1     -39.279  19.394  -4.823  0.00  0.00    -0.342 N 
ATOM     15  H8  NON d   1     -38.856  18.637  -4.297  0.00  0.00     0.164 HD
BRANCH  14  16
ATOM     16  C8  NON d   1     -40.560  19.792  -4.442  0.00  0.00     0.173 C 
ATOM     17  S1  NON d   1     -41.082  21.389  -4.506  0.00  0.00    -0.041 SA
BRANCH  16  18
ATOM     18  N3  NON d   1     -41.278  18.742  -3.909  0.00  0.00    -0.333 N 
ATOM     19  H9  NON d   1     -41.005  18.482  -2.971  0.00  0.00     0.168 HD
BRANCH  18  20
ATOM     20  C9  NON d   1     -42.576  18.316  -4.292  0.00  0.00     0.034 A 
ATOM     21  C10 NON d   1     -42.936  16.988  -4.049  0.00  0.00     0.030 A 
ATOM     22  C11 NON d   1     -44.176  16.504  -4.479  0.00  0.00     0.020 A 
ATOM     23  C12 NON d   1     -45.065  17.324  -5.192  0.00  0.00     0.041 A 
ATOM     24  C14 NON d   1     -44.688  18.651  -5.434  0.00  0.00     0.020 A 
ATOM     25  C15 NON d   1     -43.458  19.147  -4.986  0.00  0.00     0.030 A 
BRANCH  23  26
ATOM     26  C13 NON d   1     -46.386  16.779  -5.699  0.00  0.00     0.209 C 
ATOM     27  O3  NON d   1     -46.493  15.518  -5.770  0.00  0.00    -0.644 OA
ATOM     28  O4  NON d   1     -47.273  17.630  -6.021  0.00  0.00    -0.644 OA
ENDBRANCH  23  26
ENDBRANCH  18  20
ENDBRANCH  16  18
ENDBRANCH  14  16
ENDBRANCH   1  14
BRANCH   1  29
ATOM     29  C16 NON d   1     -37.517  18.754  -6.370  0.00  0.00     0.226 C 
ATOM     30 Cl1  NON d   1     -37.770  18.370  -8.371  0.00  0.00    -0.080 Cl
ATOM     31 Cl2  NON d   1     -36.353  20.367  -6.189  0.00  0.00    -0.080 Cl
ATOM     32 Cl3  NON d   1     -36.236  17.913  -6.525  0.00  0.00    -0.080 Cl
ENDBRANCH   1  29
TORSDOF 9
ENDMDL
MODEL 8
REMARK VINA RESULT:   -11.911      3.940      6.551
REMARK INTER + INTRA:         -16.524
REMARK INTER:                 -14.596
REMARK INTRA:                  -1.928
REMARK CONF_INDEPENDENT:        2.685
REMARK UNBOUND:                -1.928
REMARK  9 active torsions:
REMARK  status: ('A' for Active; 'I' for Inactive)
REMARK    1  A    between atoms: O1_2  and  C2_3 
REMARK    2  A    between atoms: C5_6  and  C6_7 
REMARK       I    between atoms: C6_7  and  N1_9 
REMARK    3  A    between atoms: C7_10  and  N1_9 
REMARK    4  A    between atoms: C7_10  and  N2_11 
REMARK    5  A    between atoms: C7_10  and  C16_24 
REMARK    6  A    between atoms: N2_11  and  C8_12 
REMARK    7  A    between atoms: C8_12  and  N3_14 
REMARK    8  A    between atoms: N3_14  and  C9_15 
REMARK    9  A    between atoms: C12_18  and  C13_19 
ROOT
ATOM      1  C7  NON d   1     -38.680  19.259  -3.783  0.00  0.00     0.241 C 
ENDROOT
BRANCH   1   2
ATOM      2  N1  NON d   1     -38.570  19.467  -5.468  0.00  0.00    -0.332 N 
ATOM      3  C6  NON d   1     -39.465  19.377  -6.558  0.00  0.00     0.253 C 
ATOM      4  O2  NON d   1     -40.589  18.896  -6.462  0.00  0.00    -0.268 OA
ATOM      5  H6  NON d   1     -37.764  20.036  -5.695  0.00  0.00     0.165 HD
BRANCH   3   6
ATOM      6  C5  NON d   1     -39.096  19.921  -7.972  0.00  0.00     0.032 A 
ATOM      7  C4  NON d   1     -39.960  20.673  -8.777  0.00  0.00     0.020 A 
ATOM      8  C3  NON d   1     -39.480  21.385  -9.943  0.00  0.00     0.038 A 
ATOM      9  C2  NON d   1     -38.131  21.387 -10.371  0.00  0.00     0.068 A 
ATOM     10  C18 NON d   1     -37.275  20.604  -9.596  0.00  0.00     0.038 A 
ATOM     11  C17 NON d   1     -37.748  19.903  -8.417  0.00  0.00     0.020 A 
BRANCH   9  12
ATOM     12  O1  NON d   1     -37.808  22.191 -11.470  0.00  0.00    -0.356 OA
ATOM     13  C1  NON d   1     -38.924  22.765 -12.362  0.00  0.00     0.210 C 
ENDBRANCH   9  12
ENDBRANCH   3   6
ENDBRANCH   1   2
BRANCH   1  14
ATOM     14  N2  NON d   1     -39.456  18.350  -2.900  0.00  0.00    -0.342 N 
ATOM     15  H8  NON d   1     -39.147  17.385  -2.851  0.00  0.00     0.164 HD
BRANCH  14  16
ATOM     16  C8  NON d   1     -40.797  18.600  -2.611  0.00  0.00     0.173 C 
ATOM     17  S1  NON d   1     -41.464  18.380  -1.084  0.00  0.00    -0.041 SA
BRANCH  16  18
ATOM     18  N3  NON d   1     -41.505  18.932  -3.748  0.00  0.00    -0.333 N 
ATOM     19  H9  NON d   1     -40.941  19.313  -4.495  0.00  0.00     0.168 HD
BRANCH  18  20
ATOM     20  C9  NON d   1     -42.758  18.406  -4.156  0.00  0.00     0.034 A 
ATOM     21  C10 NON d   1     -43.070  17.091  -3.807  0.00  0.00     0.030 A 
ATOM     22  C11 NON d   1     -44.259  16.505  -4.253  0.00  0.00     0.020 A 
ATOM     23  C12 NON d   1     -45.143  17.209  -5.086  0.00  0.00     0.041 A 
ATOM     24  C14 NON d   1     -44.815  18.526  -5.434  0.00  0.00     0.020 A 
ATOM     25  C15 NON d   1     -43.636  19.123  -4.972  0.00  0.00     0.030 A 
BRANCH  23  26
ATOM     26  C13 NON d   1     -46.406  16.553  -5.608  0.00  0.00     0.209 C 
ATOM     27  O3  NON d   1     -46.357  15.302  -5.811  0.00  0.00    -0.644 OA
ATOM     28  O4  NON d   1     -47.407  17.309  -5.810  0.00  0.00    -0.644 OA
ENDBRANCH  23  26
ENDBRANCH  18  20
ENDBRANCH  16  18
ENDBRANCH  14  16
ENDBRANCH   1  14
BRANCH   1  29
ATOM     29  C16 NON d   1     -38.318  20.498  -2.943  0.00  0.00     0.226 C 
ATOM     30 Cl1  NON d   1     -36.508  20.834  -3.850  0.00  0.00    -0.080 Cl
ATOM     31 Cl2  NON d   1     -39.694  21.613  -3.868  0.00  0.00    -0.080 Cl
ATOM     32 Cl3  NON d   1     -37.957  21.737  -2.102  0.00  0.00    -0.080 Cl
ENDBRANCH   1  29
TORSDOF 9
ENDMDL
MODEL 9
REMARK VINA RESULT:   -11.814      3.286      4.092
REMARK INTER + INTRA:         -16.458
REMARK INTER:                 -14.498
REMARK INTRA:                  -1.959
REMARK CONF_INDEPENDENT:        2.685
REMARK UNBOUND:                -1.959
REMARK  9 active torsions:
REMARK  status: ('A' for Active; 'I' for Inactive)
REMARK    1  A    between atoms: O1_2  and  C2_3 
REMARK    2  A    between atoms: C5_6  and  C6_7 
REMARK       I    between atoms: C6_7  and  N1_9 
REMARK    3  A    between atoms: C7_10  and  N1_9 
REMARK    4  A    between atoms: C7_10  and  N2_11 
REMARK    5  A    between atoms: C7_10  and  C16_24 
REMARK    6  A    between atoms: N2_11  and  C8_12 
REMARK    7  A    between atoms: C8_12  and  N3_14 
REMARK    8  A    between atoms: N3_14  and  C9_15 
REMARK    9  A    between atoms: C12_18  and  C13_19 
ROOT
ATOM      1  C7  NON d   1     -40.122  19.462  -5.897  0.00  0.00     0.241 C 
ENDROOT
BRANCH   1   2
ATOM      2  N1  NON d   1     -40.168  21.131  -5.566  0.00  0.00    -0.332 N 
ATOM      3  C6  NON d   1     -40.858  21.962  -4.656  0.00  0.00     0.253 C 
ATOM      4  O2  NON d   1     -41.799  21.571  -3.974  0.00  0.00    -0.268 OA
ATOM      5  H6  NON d   1     -39.326  21.575  -5.911  0.00  0.00     0.165 HD
BRANCH   3   6
ATOM      6  C5  NON d   1     -40.445  23.447  -4.423  0.00  0.00     0.032 A 
ATOM      7  C4  NON d   1     -40.572  24.118  -3.201  0.00  0.00     0.020 A 
ATOM      8  C3  NON d   1     -39.921  25.390  -2.964  0.00  0.00     0.038 A 
ATOM      9  C2  NON d   1     -39.119  26.061  -3.919  0.00  0.00     0.068 A 
ATOM     10  C18 NON d   1     -39.025  25.415  -5.153  0.00  0.00     0.038 A 
ATOM     11  C17 NON d   1     -39.661  24.132  -5.388  0.00  0.00     0.020 A 
BRANCH   9  12
ATOM     12  O1  NON d   1     -38.490  27.243  -3.513  0.00  0.00    -0.356 OA
ATOM     13  C1  NON d   1     -37.362  27.197  -2.466  0.00  0.00     0.210 C 
ENDBRANCH   9  12
ENDBRANCH   3   6
ENDBRANCH   1   2
BRANCH   1  14
ATOM     14  N2  NON d   1     -40.237  18.237  -5.062  0.00  0.00    -0.342 N 
ATOM     15  H8  NON d   1     -40.537  17.390  -5.532  0.00  0.00     0.164 HD
BRANCH  14  16
ATOM     16  C8  NON d   1     -40.480  18.322  -3.692  0.00  0.00     0.173 C 
ATOM     17  S1  NON d   1     -39.407  17.748  -2.532  0.00  0.00    -0.041 SA
BRANCH  16  18
ATOM     18  N3  NON d   1     -41.740  18.820  -3.432  0.00  0.00    -0.333 N 
ATOM     19  H9  NON d   1     -41.752  19.782  -3.122  0.00  0.00     0.168 HD
BRANCH  18  20
ATOM     20  C9  NON d   1     -42.969  18.348  -3.958  0.00  0.00     0.034 A 
ATOM     21  C10 NON d   1     -43.375  17.052  -3.634  0.00  0.00     0.030 A 
ATOM     22  C11 NON d   1     -44.541  16.516  -4.192  0.00  0.00     0.020 A 
ATOM     23  C12 NON d   1     -45.304  17.250  -5.113  0.00  0.00     0.041 A 
ATOM     24  C14 NON d   1     -44.882  18.547  -5.435  0.00  0.00     0.020 A 
ATOM     25  C15 NON d   1     -43.729  19.095  -4.862  0.00  0.00     0.030 A 
BRANCH  23  26
ATOM     26  C13 NON d   1     -46.539  16.647  -5.754  0.00  0.00     0.209 C 
ATOM     27  O3  NON d   1     -47.418  17.459  -6.173  0.00  0.00    -0.644 OA
ATOM     28  O4  NON d   1     -46.597  15.379  -5.810  0.00  0.00    -0.644 OA
ENDBRANCH  23  26
ENDBRANCH  18  20
ENDBRANCH  16  18
ENDBRANCH  14  16
ENDBRANCH   1  14
BRANCH   1  29
ATOM     29  C16 NON d   1     -39.353  19.065  -7.170  0.00  0.00     0.226 C 
ATOM     30 Cl1  NON d   1     -40.241  20.462  -8.384  0.00  0.00    -0.080 Cl
ATOM     31 Cl2  NON d   1     -37.651  19.842  -6.469  0.00  0.00    -0.080 Cl
ATOM     32 Cl3  NON d   1     -38.584  18.667  -8.444  0.00  0.00    -0.080 Cl
ENDBRANCH   1  29
TORSDOF 9
ENDMDL
