MODEL 1
REMARK VINA RESULT:   -15.138      0.000      0.000
REMARK INTER + INTRA:         -19.909
REMARK INTER:                 -18.718
REMARK INTRA:                  -1.192
REMARK CONF_INDEPENDENT:        3.580
REMARK UNBOUND:                -1.192
REMARK  12 active torsions:
REMARK  status: ('A' for Active; 'I' for Inactive)
REMARK    1  A    between atoms: C2_2  and  O1_3 
REMARK    2  A    between atoms: O1_3  and  C3_4 
REMARK    3  A    between atoms: C6_7  and  C7_8 
REMARK       I    between atoms: C7_8  and  N1_10 
REMARK    4  A    between atoms: N1_10  and  C8_11 
REMARK    5  A    between atoms: C8_11  and  N2_13 
REMARK    6  A    between atoms: N2_13  and  C9_14 
REMARK    7  A    between atoms: C12_17  and  C13_18 
REMARK       I    between atoms: C13_18  and  N3_20 
REMARK    8  A    between atoms: N3_20  and  C14_21 
REMARK    9  A    between atoms: C14_21  and  C15_22 
REMARK   10  A    between atoms: C15_22  and  N4_23 
REMARK   11  A    between atoms: N4_23  and  C16_24 
REMARK   12  A    between atoms: N4_23  and  C18_26 
ROOT
ATOM      1  C9  NON d   1     -48.449  16.178  -2.617  0.00  0.00     0.034 A 
ATOM      2  C10 NON d   1     -49.515  15.798  -3.459  0.00  0.00     0.030 A 
ATOM      3  C11 NON d   1     -50.887  16.149  -3.185  0.00  0.00     0.019 A 
ATOM      4  C12 NON d   1     -51.272  16.894  -2.048  0.00  0.00     0.032 A 
ATOM      5  C20 NON d   1     -50.226  17.233  -1.189  0.00  0.00     0.019 A 
ATOM      6  C21 NON d   1     -48.856  16.876  -1.466  0.00  0.00     0.030 A 
ENDROOT
BRANCH   1   7
ATOM      7  N2  NON d   1     -47.065  15.777  -2.948  0.00  0.00    -0.333 N 
ATOM      8  H9  NON d   1     -46.710  15.034  -2.358  0.00  0.00     0.168 HD
BRANCH   7   9
ATOM      9  C8  NON d   1     -46.203  16.193  -4.010  0.00  0.00     0.179 C 
ATOM     10  S1  NON d   1     -46.489  15.868  -5.637  0.00  0.00    -0.040 SA
BRANCH   9  11
ATOM     11  N1  NON d   1     -44.993  16.880  -3.582  0.00  0.00    -0.299 N 
ATOM     12  C7  NON d   1     -44.142  17.636  -4.455  0.00  0.00     0.257 C 
ATOM     13  O2  NON d   1     -44.674  18.294  -5.359  0.00  0.00    -0.267 OA
ATOM     14  H8  NON d   1     -44.605  16.583  -2.700  0.00  0.00     0.171 HD
BRANCH  12  15
ATOM     15  C6  NON d   1     -42.609  17.856  -4.329  0.00  0.00     0.033 A 
ATOM     16  C5  NON d   1     -41.736  17.612  -3.270  0.00  0.00     0.020 A 
ATOM     17  C4  NON d   1     -40.337  18.036  -3.325  0.00  0.00     0.039 A 
ATOM     18  C3  NON d   1     -39.726  18.714  -4.424  0.00  0.00     0.086 A 
ATOM     19  C23 NON d   1     -40.607  18.917  -5.499  0.00  0.00     0.045 A 
ATOM     20  C22 NON d   1     -41.990  18.501  -5.432  0.00  0.00     0.039 A 
ATOM     21 Br1  NON d   1     -40.169  19.726  -7.170  0.00  0.00    -0.048 Br
BRANCH  18  22
ATOM     22  O1  NON d   1     -38.367  19.058  -4.246  0.00  0.00    -0.350 OA
BRANCH  22  23
ATOM     23  C2  NON d   1     -37.955  20.090  -3.290  0.00  0.00     0.171 C 
ATOM     24  C1  NON d   1     -38.904  20.789  -2.299  0.00  0.00     0.034 C 
ENDBRANCH  22  23
ENDBRANCH  18  22
ENDBRANCH  12  15
ENDBRANCH   9  11
ENDBRANCH   7   9
ENDBRANCH   1   7
BRANCH   4  25
ATOM     25  C13 NON d   1     -52.762  17.197  -1.764  0.00  0.00     0.251 C 
ATOM     26  O3  NON d   1     -53.114  17.540  -0.638  0.00  0.00    -0.268 OA
ATOM     27  N3  NON d   1     -53.732  17.074  -2.795  0.00  0.00    -0.355 N 
ATOM     28  H12 NON d   1     -53.443  16.503  -3.575  0.00  0.00     0.162 HD
BRANCH  27  29
ATOM     29  C14 NON d   1     -55.212  17.220  -2.515  0.00  0.00     0.150 C 
BRANCH  29  30
ATOM     30  C15 NON d   1     -55.685  18.643  -1.975  0.00  0.00     0.254 C 
BRANCH  30  31
ATOM     31  N4  NON d   1     -55.264  19.028  -0.436  0.00  0.00    -0.070 N 
ATOM     32  H17 NON d   1     -55.908  17.630  -0.377  0.00  0.00     0.279 HD
BRANCH  31  33
ATOM     33  C16 NON d   1     -55.444  18.318   0.919  0.00  0.00     0.230 C 
ATOM     34  C17 NON d   1     -56.815  18.336   1.622  0.00  0.00     0.034 C 
ENDBRANCH  31  33
BRANCH  31  35
ATOM     35  C18 NON d   1     -54.620  20.426  -0.493  0.00  0.00     0.230 C 
ATOM     36  C19 NON d   1     -53.273  20.682   0.207  0.00  0.00     0.034 C 
ENDBRANCH  31  35
ENDBRANCH  30  31
ENDBRANCH  29  30
ENDBRANCH  27  29
ENDBRANCH   4  25
TORSDOF 12
ENDMDL
MODEL 2
REMARK VINA RESULT:   -14.943      4.209     12.886
REMARK INTER + INTRA:         -19.153
REMARK INTER:                 -18.522
REMARK INTRA:                  -0.631
REMARK CONF_INDEPENDENT:        3.580
REMARK UNBOUND:                -0.631
REMARK  12 active torsions:
REMARK  status: ('A' for Active; 'I' for Inactive)
REMARK    1  A    between atoms: C2_2  and  O1_3 
REMARK    2  A    between atoms: O1_3  and  C3_4 
REMARK    3  A    between atoms: C6_7  and  C7_8 
REMARK       I    between atoms: C7_8  and  N1_10 
REMARK    4  A    between atoms: N1_10  and  C8_11 
REMARK    5  A    between atoms: C8_11  and  N2_13 
REMARK    6  A    between atoms: N2_13  and  C9_14 
REMARK    7  A    between atoms: C12_17  and  C13_18 
REMARK       I    between atoms: C13_18  and  N3_20 
REMARK    8  A    between atoms: N3_20  and  C14_21 
REMARK    9  A    between atoms: C14_21  and  C15_22 
REMARK   10  A    between atoms: C15_22  and  N4_23 
REMARK   11  A    between atoms: N4_23  and  C16_24 
REMARK   12  A    between atoms: N4_23  and  C18_26 
ROOT
ATOM      1  C9  NON d   1     -44.752  17.151  -4.043  0.00  0.00     0.034 A 
ATOM      2  C10 NON d   1     -44.899  18.247  -4.918  0.00  0.00     0.030 A 
ATOM      3  C11 NON d   1     -43.778  19.024  -5.388  0.00  0.00     0.019 A 
ATOM      4  C12 NON d   1     -42.446  18.755  -5.002  0.00  0.00     0.032 A 
ATOM      5  C20 NON d   1     -42.301  17.700  -4.099  0.00  0.00     0.019 A 
ATOM      6  C21 NON d   1     -43.426  16.928  -3.630  0.00  0.00     0.030 A 
ENDROOT
BRANCH   1   7
ATOM      7  N2  NON d   1     -45.943  16.401  -3.588  0.00  0.00    -0.333 N 
ATOM      8  H9  NON d   1     -45.779  15.859  -2.749  0.00  0.00     0.168 HD
BRANCH   7   9
ATOM      9  C8  NON d   1     -47.285  16.399  -4.080  0.00  0.00     0.179 C 
ATOM     10  S1  NON d   1     -47.693  16.184  -5.700  0.00  0.00    -0.040 SA
BRANCH   9  11
ATOM     11  N1  NON d   1     -48.305  16.665  -3.077  0.00  0.00    -0.299 N 
ATOM     12  C7  NON d   1     -49.466  15.847  -2.868  0.00  0.00     0.257 C 
ATOM     13  O2  NON d   1     -49.344  14.623  -2.996  0.00  0.00    -0.267 OA
ATOM     14  H8  NON d   1     -48.327  17.602  -2.707  0.00  0.00     0.171 HD
BRANCH  12  15
ATOM     15  C6  NON d   1     -50.861  16.295  -2.354  0.00  0.00     0.033 A 
ATOM     16  C5  NON d   1     -52.143  15.990  -2.811  0.00  0.00     0.020 A 
ATOM     17  C4  NON d   1     -53.325  16.650  -2.255  0.00  0.00     0.039 A 
ATOM     18  C3  NON d   1     -53.306  17.635  -1.221  0.00  0.00     0.086 A 
ATOM     19  C23 NON d   1     -52.013  17.902  -0.743  0.00  0.00     0.045 A 
ATOM     20  C22 NON d   1     -50.850  17.251  -1.305  0.00  0.00     0.039 A 
ATOM     21 Br1  NON d   1     -51.565  19.103   0.670  0.00  0.00    -0.048 Br
BRANCH  18  22
ATOM     22  O1  NON d   1     -54.567  18.162  -0.861  0.00  0.00    -0.350 OA
BRANCH  22  23
ATOM     23  C2  NON d   1     -54.687  19.353  -0.013  0.00  0.00     0.171 C 
ATOM     24  C1  NON d   1     -54.575  20.802  -0.525  0.00  0.00     0.034 C 
ENDBRANCH  22  23
ENDBRANCH  18  22
ENDBRANCH  12  15
ENDBRANCH   9  11
ENDBRANCH   7   9
ENDBRANCH   1   7
BRANCH   4  25
ATOM     25  C13 NON d   1     -41.282  19.652  -5.485  0.00  0.00     0.251 C 
ATOM     26  O3  NON d   1     -40.752  20.440  -4.705  0.00  0.00    -0.268 OA
ATOM     27  N3  NON d   1     -40.825  19.578  -6.828  0.00  0.00    -0.355 N 
ATOM     28  H12 NON d   1     -41.483  19.165  -7.472  0.00  0.00     0.162 HD
BRANCH  27  29
ATOM     29  C14 NON d   1     -39.791  20.541  -7.369  0.00  0.00     0.150 C 
BRANCH  29  30
ATOM     30  C15 NON d   1     -40.203  21.343  -8.684  0.00  0.00     0.254 C 
BRANCH  30  31
ATOM     31  N4  NON d   1     -39.014  21.631  -9.779  0.00  0.00    -0.070 N 
ATOM     32  H17 NON d   1     -40.313  22.198 -10.382  0.00  0.00     0.279 HD
BRANCH  31  33
ATOM     33  C16 NON d   1     -39.002  22.256 -11.187  0.00  0.00     0.230 C 
ATOM     34  C17 NON d   1     -38.595  23.730 -11.370  0.00  0.00     0.034 C 
ENDBRANCH  31  33
BRANCH  31  35
ATOM     35  C18 NON d   1     -37.715  21.064  -9.177  0.00  0.00     0.230 C 
ATOM     36  C19 NON d   1     -37.430  19.552  -9.245  0.00  0.00     0.034 C 
ENDBRANCH  31  35
ENDBRANCH  30  31
ENDBRANCH  29  30
ENDBRANCH  27  29
ENDBRANCH   4  25
TORSDOF 12
ENDMDL
MODEL 3
REMARK VINA RESULT:   -14.430      3.695     12.389
REMARK INTER + INTRA:         -19.749
REMARK INTER:                 -18.010
REMARK INTRA:                  -1.739
REMARK CONF_INDEPENDENT:        3.580
REMARK UNBOUND:                -1.739
REMARK  12 active torsions:
REMARK  status: ('A' for Active; 'I' for Inactive)
REMARK    1  A    between atoms: C2_2  and  O1_3 
REMARK    2  A    between atoms: O1_3  and  C3_4 
REMARK    3  A    between atoms: C6_7  and  C7_8 
REMARK       I    between atoms: C7_8  and  N1_10 
REMARK    4  A    between atoms: N1_10  and  C8_11 
REMARK    5  A    between atoms: C8_11  and  N2_13 
REMARK    6  A    between atoms: N2_13  and  C9_14 
REMARK    7  A    between atoms: C12_17  and  C13_18 
REMARK       I    between atoms: C13_18  and  N3_20 
REMARK    8  A    between atoms: N3_20  and  C14_21 
REMARK    9  A    between atoms: C14_21  and  C15_22 
REMARK   10  A    between atoms: C15_22  and  N4_23 
REMARK   11  A    between atoms: N4_23  and  C16_24 
REMARK   12  A    between atoms: N4_23  and  C18_26 
ROOT
ATOM      1  C9  NON d   1     -44.696  17.163  -3.976  0.00  0.00     0.034 A 
ATOM      2  C10 NON d   1     -44.768  18.303  -4.804  0.00  0.00     0.030 A 
ATOM      3  C11 NON d   1     -43.601  19.058  -5.191  0.00  0.00     0.019 A 
ATOM      4  C12 NON d   1     -42.297  18.722  -4.764  0.00  0.00     0.032 A 
ATOM      5  C20 NON d   1     -42.227  17.622  -3.907  0.00  0.00     0.019 A 
ATOM      6  C21 NON d   1     -43.397  16.872  -3.521  0.00  0.00     0.030 A 
ENDROOT
BRANCH   1   7
ATOM      7  N2  NON d   1     -45.931  16.438  -3.606  0.00  0.00    -0.333 N 
ATOM      8  H9  NON d   1     -45.808  15.812  -2.819  0.00  0.00     0.168 HD
BRANCH   7   9
ATOM      9  C8  NON d   1     -47.264  16.553  -4.108  0.00  0.00     0.179 C 
ATOM     10  S1  NON d   1     -47.664  16.467  -5.742  0.00  0.00    -0.040 SA
BRANCH   9  11
ATOM     11  N1  NON d   1     -48.277  16.821  -3.099  0.00  0.00    -0.299 N 
ATOM     12  C7  NON d   1     -49.397  15.964  -2.830  0.00  0.00     0.257 C 
ATOM     13  O2  NON d   1     -49.222  14.741  -2.905  0.00  0.00    -0.267 OA
ATOM     14  H8  NON d   1     -48.335  17.773  -2.772  0.00  0.00     0.171 HD
BRANCH  12  15
ATOM     15  C6  NON d   1     -50.802  16.374  -2.311  0.00  0.00     0.033 A 
ATOM     16  C5  NON d   1     -52.075  16.099  -2.810  0.00  0.00     0.020 A 
ATOM     17  C4  NON d   1     -53.268  16.718  -2.230  0.00  0.00     0.039 A 
ATOM     18  C3  NON d   1     -53.269  17.629  -1.131  0.00  0.00     0.086 A 
ATOM     19  C23 NON d   1     -51.985  17.864  -0.614  0.00  0.00     0.045 A 
ATOM     20  C22 NON d   1     -50.811  17.255  -1.198  0.00  0.00     0.039 A 
ATOM     21 Br1  NON d   1     -51.564  18.965   0.886  0.00  0.00    -0.048 Br
BRANCH  18  22
ATOM     22  O1  NON d   1     -54.538  18.129  -0.757  0.00  0.00    -0.350 OA
BRANCH  22  23
ATOM     23  C2  NON d   1     -54.905  19.531  -0.977  0.00  0.00     0.171 C 
ATOM     24  C1  NON d   1     -54.332  20.717  -0.179  0.00  0.00     0.034 C 
ENDBRANCH  22  23
ENDBRANCH  18  22
ENDBRANCH  12  15
ENDBRANCH   9  11
ENDBRANCH   7   9
ENDBRANCH   1   7
BRANCH   4  25
ATOM     25  C13 NON d   1     -41.083  19.596  -5.157  0.00  0.00     0.251 C 
ATOM     26  O3  NON d   1     -40.034  19.063  -5.511  0.00  0.00    -0.268 OA
ATOM     27  N3  NON d   1     -41.166  21.013  -5.103  0.00  0.00    -0.355 N 
ATOM     28  H12 NON d   1     -41.912  21.366  -4.521  0.00  0.00     0.162 HD
BRANCH  27  29
ATOM     29  C14 NON d   1     -39.956  21.890  -5.338  0.00  0.00     0.150 C 
BRANCH  29  30
ATOM     30  C15 NON d   1     -38.999  21.456  -6.536  0.00  0.00     0.254 C 
BRANCH  30  31
ATOM     31  N4  NON d   1     -39.702  20.684  -7.803  0.00  0.00    -0.070 N 
ATOM     32  H17 NON d   1     -39.157  19.587  -6.869  0.00  0.00     0.279 HD
BRANCH  31  33
ATOM     33  C16 NON d   1     -39.837  19.201  -8.195  0.00  0.00     0.230 C 
ATOM     34  C17 NON d   1     -38.582  18.382  -8.552  0.00  0.00     0.034 C 
ENDBRANCH  31  33
BRANCH  31  35
ATOM     35  C18 NON d   1     -40.247  21.780  -8.737  0.00  0.00     0.230 C 
ATOM     36  C19 NON d   1     -39.691  23.214  -8.649  0.00  0.00     0.034 C 
ENDBRANCH  31  35
ENDBRANCH  30  31
ENDBRANCH  29  30
ENDBRANCH  27  29
ENDBRANCH   4  25
TORSDOF 12
ENDMDL
MODEL 4
REMARK VINA RESULT:   -14.274      3.370     12.191
REMARK INTER + INTRA:         -19.681
REMARK INTER:                 -17.853
REMARK INTRA:                  -1.827
REMARK CONF_INDEPENDENT:        3.580
REMARK UNBOUND:                -1.827
REMARK  12 active torsions:
REMARK  status: ('A' for Active; 'I' for Inactive)
REMARK    1  A    between atoms: C2_2  and  O1_3 
REMARK    2  A    between atoms: O1_3  and  C3_4 
REMARK    3  A    between atoms: C6_7  and  C7_8 
REMARK       I    between atoms: C7_8  and  N1_10 
REMARK    4  A    between atoms: N1_10  and  C8_11 
REMARK    5  A    between atoms: C8_11  and  N2_13 
REMARK    6  A    between atoms: N2_13  and  C9_14 
REMARK    7  A    between atoms: C12_17  and  C13_18 
REMARK       I    between atoms: C13_18  and  N3_20 
REMARK    8  A    between atoms: N3_20  and  C14_21 
REMARK    9  A    between atoms: C14_21  and  C15_22 
REMARK   10  A    between atoms: C15_22  and  N4_23 
REMARK   11  A    between atoms: N4_23  and  C16_24 
REMARK   12  A    between atoms: N4_23  and  C18_26 
ROOT
ATOM      1  C9  NON d   1     -44.817  17.273  -4.049  0.00  0.00     0.034 A 
ATOM      2  C10 NON d   1     -43.525  16.879  -3.639  0.00  0.00     0.030 A 
ATOM      3  C11 NON d   1     -42.331  17.573  -4.056  0.00  0.00     0.019 A 
ATOM      4  C12 NON d   1     -42.358  18.694  -4.915  0.00  0.00     0.032 A 
ATOM      5  C20 NON d   1     -43.630  19.058  -5.360  0.00  0.00     0.019 A 
ATOM      6  C21 NON d   1     -44.821  18.360  -4.942  0.00  0.00     0.030 A 
ENDROOT
BRANCH   1   7
ATOM      7  N2  NON d   1     -46.001  16.514  -3.595  0.00  0.00    -0.333 N 
ATOM      8  H9  NON d   1     -45.828  15.958  -2.767  0.00  0.00     0.168 HD
BRANCH   7   9
ATOM      9  C8  NON d   1     -47.348  16.516  -4.074  0.00  0.00     0.179 C 
ATOM     10  S1  NON d   1     -47.769  16.370  -5.698  0.00  0.00    -0.040 SA
BRANCH   9  11
ATOM     11  N1  NON d   1     -48.361  16.722  -3.049  0.00  0.00    -0.299 N 
ATOM     12  C7  NON d   1     -49.541  15.917  -2.906  0.00  0.00     0.257 C 
ATOM     13  O2  NON d   1     -49.447  14.705  -3.135  0.00  0.00    -0.267 OA
ATOM     14  H8  NON d   1     -48.360  17.626  -2.604  0.00  0.00     0.171 HD
BRANCH  12  15
ATOM     15  C6  NON d   1     -50.925  16.354  -2.353  0.00  0.00     0.033 A 
ATOM     16  C5  NON d   1     -52.215  16.086  -2.810  0.00  0.00     0.020 A 
ATOM     17  C4  NON d   1     -53.383  16.730  -2.207  0.00  0.00     0.039 A 
ATOM     18  C3  NON d   1     -53.341  17.661  -1.125  0.00  0.00     0.086 A 
ATOM     19  C23 NON d   1     -52.040  17.890  -0.650  0.00  0.00     0.045 A 
ATOM     20  C22 NON d   1     -50.890  17.255  -1.257  0.00  0.00     0.039 A 
ATOM     21 Br1  NON d   1     -51.562  19.011   0.817  0.00  0.00    -0.048 Br
BRANCH  18  22
ATOM     22  O1  NON d   1     -54.592  18.183  -0.724  0.00  0.00    -0.350 OA
BRANCH  22  23
ATOM     23  C2  NON d   1     -54.712  19.524  -0.141  0.00  0.00     0.171 C 
ATOM     24  C1  NON d   1     -54.569  20.835  -0.935  0.00  0.00     0.034 C 
ENDBRANCH  22  23
ENDBRANCH  18  22
ENDBRANCH  12  15
ENDBRANCH   9  11
ENDBRANCH   7   9
ENDBRANCH   1   7
BRANCH   4  25
ATOM     25  C13 NON d   1     -41.048  19.369  -5.382  0.00  0.00     0.251 C 
ATOM     26  O3  NON d   1     -40.194  18.709  -5.969  0.00  0.00    -0.268 OA
ATOM     27  N3  NON d   1     -40.818  20.749  -5.130  0.00  0.00    -0.355 N 
ATOM     28  H12 NON d   1     -41.388  21.140  -4.394  0.00  0.00     0.162 HD
BRANCH  27  29
ATOM     29  C14 NON d   1     -39.490  21.403  -5.442  0.00  0.00     0.150 C 
BRANCH  29  30
ATOM     30  C15 NON d   1     -38.192  20.626  -4.938  0.00  0.00     0.254 C 
BRANCH  30  31
ATOM     31  N4  NON d   1     -38.233  20.029  -3.409  0.00  0.00    -0.070 N 
ATOM     32  H17 NON d   1     -38.851  18.950  -4.318  0.00  0.00     0.279 HD
BRANCH  31  33
ATOM     33  C16 NON d   1     -38.785  18.728  -2.797  0.00  0.00     0.230 C 
ATOM     34  C17 NON d   1     -40.185  18.712  -2.156  0.00  0.00     0.034 C 
ENDBRANCH  31  33
BRANCH  31  35
ATOM     35  C18 NON d   1     -37.616  21.107  -2.499  0.00  0.00     0.230 C 
ATOM     36  C19 NON d   1     -38.485  21.809  -1.438  0.00  0.00     0.034 C 
ENDBRANCH  31  35
ENDBRANCH  30  31
ENDBRANCH  29  30
ENDBRANCH  27  29
ENDBRANCH   4  25
TORSDOF 12
ENDMDL
MODEL 5
REMARK VINA RESULT:   -14.240      3.955     12.848
REMARK INTER + INTRA:         -19.414
REMARK INTER:                 -17.819
REMARK INTRA:                  -1.595
REMARK CONF_INDEPENDENT:        3.580
REMARK UNBOUND:                -1.595
REMARK  12 active torsions:
REMARK  status: ('A' for Active; 'I' for Inactive)
REMARK    1  A    between atoms: C2_2  and  O1_3 
REMARK    2  A    between atoms: O1_3  and  C3_4 
REMARK    3  A    between atoms: C6_7  and  C7_8 
REMARK       I    between atoms: C7_8  and  N1_10 
REMARK    4  A    between atoms: N1_10  and  C8_11 
REMARK    5  A    between atoms: C8_11  and  N2_13 
REMARK    6  A    between atoms: N2_13  and  C9_14 
REMARK    7  A    between atoms: C12_17  and  C13_18 
REMARK       I    between atoms: C13_18  and  N3_20 
REMARK    8  A    between atoms: N3_20  and  C14_21 
REMARK    9  A    between atoms: C14_21  and  C15_22 
REMARK   10  A    between atoms: C15_22  and  N4_23 
REMARK   11  A    between atoms: N4_23  and  C16_24 
REMARK   12  A    between atoms: N4_23  and  C18_26 
ROOT
ATOM      1  C9  NON d   1     -44.725  17.384  -4.040  0.00  0.00     0.034 A 
ATOM      2  C10 NON d   1     -43.448  16.798  -3.921  0.00  0.00     0.030 A 
ATOM      3  C11 NON d   1     -42.270  17.369  -4.527  0.00  0.00     0.019 A 
ATOM      4  C12 NON d   1     -42.304  18.554  -5.296  0.00  0.00     0.032 A 
ATOM      5  C20 NON d   1     -43.574  19.112  -5.454  0.00  0.00     0.019 A 
ATOM      6  C21 NON d   1     -44.748  18.535  -4.848  0.00  0.00     0.030 A 
ENDROOT
BRANCH   1   7
ATOM      7  N2  NON d   1     -45.896  16.742  -3.405  0.00  0.00    -0.333 N 
ATOM      8  H9  NON d   1     -45.737  16.486  -2.438  0.00  0.00     0.168 HD
BRANCH   7   9
ATOM      9  C8  NON d   1     -47.219  16.521  -3.899  0.00  0.00     0.179 C 
ATOM     10  S1  NON d   1     -47.581  16.222  -5.516  0.00  0.00    -0.040 SA
BRANCH   9  11
ATOM     11  N1  NON d   1     -48.272  16.636  -2.900  0.00  0.00    -0.299 N 
ATOM     12  C7  NON d   1     -49.488  15.874  -2.917  0.00  0.00     0.257 C 
ATOM     13  O2  NON d   1     -49.431  14.699  -3.302  0.00  0.00    -0.267 OA
ATOM     14  H8  NON d   1     -48.258  17.473  -2.338  0.00  0.00     0.171 HD
BRANCH  12  15
ATOM     15  C6  NON d   1     -50.879  16.297  -2.372  0.00  0.00     0.033 A 
ATOM     16  C5  NON d   1     -52.165  15.981  -2.809  0.00  0.00     0.020 A 
ATOM     17  C4  NON d   1     -53.345  16.617  -2.223  0.00  0.00     0.039 A 
ATOM     18  C3  NON d   1     -53.320  17.589  -1.176  0.00  0.00     0.086 A 
ATOM     19  C23 NON d   1     -52.022  17.866  -0.718  0.00  0.00     0.045 A 
ATOM     20  C22 NON d   1     -50.861  17.238  -1.310  0.00  0.00     0.039 A 
ATOM     21 Br1  NON d   1     -51.564  19.053   0.703  0.00  0.00    -0.048 Br
BRANCH  18  22
ATOM     22  O1  NON d   1     -54.581  18.094  -0.786  0.00  0.00    -0.350 OA
BRANCH  22  23
ATOM     23  C2  NON d   1     -54.914  19.516  -0.923  0.00  0.00     0.171 C 
ATOM     24  C1  NON d   1     -54.389  20.627   0.006  0.00  0.00     0.034 C 
ENDBRANCH  22  23
ENDBRANCH  18  22
ENDBRANCH  12  15
ENDBRANCH   9  11
ENDBRANCH   7   9
ENDBRANCH   1   7
BRANCH   4  25
ATOM     25  C13 NON d   1     -41.025  19.098  -5.975  0.00  0.00     0.251 C 
ATOM     26  O3  NON d   1     -41.116  19.800  -6.979  0.00  0.00    -0.268 OA
ATOM     27  N3  NON d   1     -39.741  18.783  -5.452  0.00  0.00    -0.355 N 
ATOM     28  H12 NON d   1     -39.723  17.975  -4.848  0.00  0.00     0.162 HD
BRANCH  27  29
ATOM     29  C14 NON d   1     -38.471  19.175  -6.176  0.00  0.00     0.150 C 
BRANCH  29  30
ATOM     30  C15 NON d   1     -38.437  18.877  -7.741  0.00  0.00     0.254 C 
BRANCH  30  31
ATOM     31  N4  NON d   1     -38.525  20.172  -8.744  0.00  0.00    -0.070 N 
ATOM     32  H17 NON d   1     -39.810  20.187  -7.895  0.00  0.00     0.279 HD
BRANCH  31  33
ATOM     33  C16 NON d   1     -39.598  21.250  -8.988  0.00  0.00     0.230 C 
ATOM     34  C17 NON d   1     -39.831  22.355  -7.941  0.00  0.00     0.034 C 
ENDBRANCH  31  33
BRANCH  31  35
ATOM     35  C18 NON d   1     -37.241  20.159  -9.594  0.00  0.00     0.230 C 
ATOM     36  C19 NON d   1     -37.086  21.138 -10.772  0.00  0.00     0.034 C 
ENDBRANCH  31  35
ENDBRANCH  30  31
ENDBRANCH  29  30
ENDBRANCH  27  29
ENDBRANCH   4  25
TORSDOF 12
ENDMDL
MODEL 6
REMARK VINA RESULT:   -13.755      3.487     12.047
REMARK INTER + INTRA:         -19.078
REMARK INTER:                 -17.334
REMARK INTRA:                  -1.743
REMARK CONF_INDEPENDENT:        3.580
REMARK UNBOUND:                -1.743
REMARK  12 active torsions:
REMARK  status: ('A' for Active; 'I' for Inactive)
REMARK    1  A    between atoms: C2_2  and  O1_3 
REMARK    2  A    between atoms: O1_3  and  C3_4 
REMARK    3  A    between atoms: C6_7  and  C7_8 
REMARK       I    between atoms: C7_8  and  N1_10 
REMARK    4  A    between atoms: N1_10  and  C8_11 
REMARK    5  A    between atoms: C8_11  and  N2_13 
REMARK    6  A    between atoms: N2_13  and  C9_14 
REMARK    7  A    between atoms: C12_17  and  C13_18 
REMARK       I    between atoms: C13_18  and  N3_20 
REMARK    8  A    between atoms: N3_20  and  C14_21 
REMARK    9  A    between atoms: C14_21  and  C15_22 
REMARK   10  A    between atoms: C15_22  and  N4_23 
REMARK   11  A    between atoms: N4_23  and  C16_24 
REMARK   12  A    between atoms: N4_23  and  C18_26 
ROOT
ATOM      1  C9  NON d   1     -44.695  17.033  -3.943  0.00  0.00     0.034 A 
ATOM      2  C10 NON d   1     -44.711  18.234  -4.682  0.00  0.00     0.030 A 
ATOM      3  C11 NON d   1     -43.507  18.923  -5.076  0.00  0.00     0.019 A 
ATOM      4  C12 NON d   1     -42.216  18.455  -4.744  0.00  0.00     0.032 A 
ATOM      5  C20 NON d   1     -42.196  17.291  -3.973  0.00  0.00     0.019 A 
ATOM      6  C21 NON d   1     -43.404  16.608  -3.580  0.00  0.00     0.030 A 
ENDROOT
BRANCH   1   7
ATOM      7  N2  NON d   1     -45.965  16.381  -3.560  0.00  0.00    -0.333 N 
ATOM      8  H9  NON d   1     -45.876  15.764  -2.763  0.00  0.00     0.168 HD
BRANCH   7   9
ATOM      9  C8  NON d   1     -47.291  16.557  -4.066  0.00  0.00     0.179 C 
ATOM     10  S1  NON d   1     -47.679  16.569  -5.705  0.00  0.00    -0.040 SA
BRANCH   9  11
ATOM     11  N1  NON d   1     -48.306  16.796  -3.051  0.00  0.00    -0.299 N 
ATOM     12  C7  NON d   1     -49.456  15.962  -2.846  0.00  0.00     0.257 C 
ATOM     13  O2  NON d   1     -49.320  14.740  -2.993  0.00  0.00    -0.267 OA
ATOM     14  H8  NON d   1     -48.336  17.728  -2.667  0.00  0.00     0.171 HD
BRANCH  12  15
ATOM     15  C6  NON d   1     -50.853  16.385  -2.315  0.00  0.00     0.033 A 
ATOM     16  C5  NON d   1     -52.131  16.133  -2.809  0.00  0.00     0.020 A 
ATOM     17  C4  NON d   1     -53.313  16.762  -2.217  0.00  0.00     0.039 A 
ATOM     18  C3  NON d   1     -53.296  17.662  -1.109  0.00  0.00     0.086 A 
ATOM     19  C23 NON d   1     -52.006  17.875  -0.596  0.00  0.00     0.045 A 
ATOM     20  C22 NON d   1     -50.843  17.255  -1.193  0.00  0.00     0.039 A 
ATOM     21 Br1  NON d   1     -51.563  18.954   0.913  0.00  0.00    -0.048 Br
BRANCH  18  22
ATOM     22  O1  NON d   1     -54.556  18.175  -0.723  0.00  0.00    -0.350 OA
BRANCH  22  23
ATOM     23  C2  NON d   1     -54.680  19.459  -0.025  0.00  0.00     0.171 C 
ATOM     24  C1  NON d   1     -54.134  20.797  -0.558  0.00  0.00     0.034 C 
ENDBRANCH  22  23
ENDBRANCH  18  22
ENDBRANCH  12  15
ENDBRANCH   9  11
ENDBRANCH   7   9
ENDBRANCH   1   7
BRANCH   4  25
ATOM     25  C13 NON d   1     -40.954  19.258  -5.137  0.00  0.00     0.251 C 
ATOM     26  O3  NON d   1     -40.988  20.018  -6.102  0.00  0.00    -0.268 OA
ATOM     27  N3  NON d   1     -39.749  19.118  -4.396  0.00  0.00    -0.355 N 
ATOM     28  H12 NON d   1     -39.695  18.276  -3.842  0.00  0.00     0.162 HD
BRANCH  27  29
ATOM     29  C14 NON d   1     -38.461  19.774  -4.843  0.00  0.00     0.150 C 
BRANCH  29  30
ATOM     30  C15 NON d   1     -38.296  21.315  -4.472  0.00  0.00     0.254 C 
BRANCH  30  31
ATOM     31  N4  NON d   1     -39.574  22.043  -3.743  0.00  0.00    -0.070 N 
ATOM     32  H17 NON d   1     -39.999  21.764  -5.197  0.00  0.00     0.279 HD
BRANCH  31  33
ATOM     33  C16 NON d   1     -40.959  22.497  -4.242  0.00  0.00     0.230 C 
ATOM     34  C17 NON d   1     -41.536  23.849  -3.785  0.00  0.00     0.034 C 
ENDBRANCH  31  33
BRANCH  31  35
ATOM     35  C18 NON d   1     -39.150  22.322  -2.289  0.00  0.00     0.230 C 
ATOM     36  C19 NON d   1     -38.131  21.400  -1.594  0.00  0.00     0.034 C 
ENDBRANCH  31  35
ENDBRANCH  30  31
ENDBRANCH  29  30
ENDBRANCH  27  29
ENDBRANCH   4  25
TORSDOF 12
ENDMDL
MODEL 7
REMARK VINA RESULT:   -13.677      3.536     12.555
REMARK INTER + INTRA:         -19.041
REMARK INTER:                 -17.257
REMARK INTRA:                  -1.784
REMARK CONF_INDEPENDENT:        3.580
REMARK UNBOUND:                -1.784
REMARK  12 active torsions:
REMARK  status: ('A' for Active; 'I' for Inactive)
REMARK    1  A    between atoms: C2_2  and  O1_3 
REMARK    2  A    between atoms: O1_3  and  C3_4 
REMARK    3  A    between atoms: C6_7  and  C7_8 
REMARK       I    between atoms: C7_8  and  N1_10 
REMARK    4  A    between atoms: N1_10  and  C8_11 
REMARK    5  A    between atoms: C8_11  and  N2_13 
REMARK    6  A    between atoms: N2_13  and  C9_14 
REMARK    7  A    between atoms: C12_17  and  C13_18 
REMARK       I    between atoms: C13_18  and  N3_20 
REMARK    8  A    between atoms: N3_20  and  C14_21 
REMARK    9  A    between atoms: C14_21  and  C15_22 
REMARK   10  A    between atoms: C15_22  and  N4_23 
REMARK   11  A    between atoms: N4_23  and  C16_24 
REMARK   12  A    between atoms: N4_23  and  C18_26 
ROOT
ATOM      1  C9  NON d   1     -44.712  17.223  -3.932  0.00  0.00     0.034 A 
ATOM      2  C10 NON d   1     -44.859  18.259  -4.878  0.00  0.00     0.030 A 
ATOM      3  C11 NON d   1     -43.753  19.076  -5.316  0.00  0.00     0.019 A 
ATOM      4  C12 NON d   1     -42.439  18.910  -4.825  0.00  0.00     0.032 A 
ATOM      5  C20 NON d   1     -42.298  17.916  -3.854  0.00  0.00     0.019 A 
ATOM      6  C21 NON d   1     -43.408  17.104  -3.419  0.00  0.00     0.030 A 
ENDROOT
BRANCH   1   7
ATOM      7  N2  NON d   1     -45.887  16.429  -3.516  0.00  0.00    -0.333 N 
ATOM      8  H9  NON d   1     -45.719  15.863  -2.693  0.00  0.00     0.168 HD
BRANCH   7   9
ATOM      9  C8  NON d   1     -47.224  16.408  -4.023  0.00  0.00     0.179 C 
ATOM     10  S1  NON d   1     -47.611  16.182  -5.646  0.00  0.00    -0.040 SA
BRANCH   9  11
ATOM     11  N1  NON d   1     -48.258  16.667  -3.031  0.00  0.00    -0.299 N 
ATOM     12  C7  NON d   1     -49.418  15.844  -2.840  0.00  0.00     0.257 C 
ATOM     13  O2  NON d   1     -49.288  14.620  -2.970  0.00  0.00    -0.267 OA
ATOM     14  H8  NON d   1     -48.289  17.603  -2.660  0.00  0.00     0.171 HD
BRANCH  12  15
ATOM     15  C6  NON d   1     -50.822  16.284  -2.343  0.00  0.00     0.033 A 
ATOM     16  C5  NON d   1     -52.096  15.961  -2.807  0.00  0.00     0.020 A 
ATOM     17  C4  NON d   1     -53.290  16.616  -2.268  0.00  0.00     0.039 A 
ATOM     18  C3  NON d   1     -53.289  17.613  -1.246  0.00  0.00     0.086 A 
ATOM     19  C23 NON d   1     -52.002  17.898  -0.761  0.00  0.00     0.045 A 
ATOM     20  C22 NON d   1     -50.828  17.252  -1.305  0.00  0.00     0.039 A 
ATOM     21 Br1  NON d   1     -51.578  19.119   0.642  0.00  0.00    -0.048 Br
BRANCH  18  22
ATOM     22  O1  NON d   1     -54.558  18.132  -0.902  0.00  0.00    -0.350 OA
BRANCH  22  23
ATOM     23  C2  NON d   1     -54.830  19.573  -0.926  0.00  0.00     0.171 C 
ATOM     24  C1  NON d   1     -54.444  20.551   0.199  0.00  0.00     0.034 C 
ENDBRANCH  22  23
ENDBRANCH  18  22
ENDBRANCH  12  15
ENDBRANCH   9  11
ENDBRANCH   7   9
ENDBRANCH   1   7
BRANCH   4  25
ATOM     25  C13 NON d   1     -41.296  19.847  -5.280  0.00  0.00     0.251 C 
ATOM     26  O3  NON d   1     -40.515  20.307  -4.451  0.00  0.00    -0.268 OA
ATOM     27  N3  NON d   1     -41.147  20.190  -6.651  0.00  0.00    -0.355 N 
ATOM     28  H12 NON d   1     -41.975  20.047  -7.210  0.00  0.00     0.162 HD
BRANCH  27  29
ATOM     29  C14 NON d   1     -40.134  21.217  -7.107  0.00  0.00     0.150 C 
BRANCH  29  30
ATOM     30  C15 NON d   1     -38.608  20.886  -6.788  0.00  0.00     0.254 C 
BRANCH  30  31
ATOM     31  N4  NON d   1     -38.275  19.370  -6.253  0.00  0.00    -0.070 N 
ATOM     32  H17 NON d   1     -38.456  20.248  -5.000  0.00  0.00     0.279 HD
BRANCH  31  33
ATOM     33  C16 NON d   1     -38.077  18.764  -4.851  0.00  0.00     0.230 C 
ATOM     34  C17 NON d   1     -36.671  18.718  -4.224  0.00  0.00     0.034 C 
ENDBRANCH  31  33
BRANCH  31  35
ATOM     35  C18 NON d   1     -38.096  18.491  -7.505  0.00  0.00     0.230 C 
ATOM     36  C19 NON d   1     -37.844  19.146  -8.876  0.00  0.00     0.034 C 
ENDBRANCH  31  35
ENDBRANCH  30  31
ENDBRANCH  29  30
ENDBRANCH  27  29
ENDBRANCH   4  25
TORSDOF 12
ENDMDL
MODEL 8
REMARK VINA RESULT:   -12.947      3.901     12.243
REMARK INTER + INTRA:         -17.214
REMARK INTER:                 -16.527
REMARK INTRA:                  -0.687
REMARK CONF_INDEPENDENT:        3.580
REMARK UNBOUND:                -0.687
REMARK  12 active torsions:
REMARK  status: ('A' for Active; 'I' for Inactive)
REMARK    1  A    between atoms: C2_2  and  O1_3 
REMARK    2  A    between atoms: O1_3  and  C3_4 
REMARK    3  A    between atoms: C6_7  and  C7_8 
REMARK       I    between atoms: C7_8  and  N1_10 
REMARK    4  A    between atoms: N1_10  and  C8_11 
REMARK    5  A    between atoms: C8_11  and  N2_13 
REMARK    6  A    between atoms: N2_13  and  C9_14 
REMARK    7  A    between atoms: C12_17  and  C13_18 
REMARK       I    between atoms: C13_18  and  N3_20 
REMARK    8  A    between atoms: N3_20  and  C14_21 
REMARK    9  A    between atoms: C14_21  and  C15_22 
REMARK   10  A    between atoms: C15_22  and  N4_23 
REMARK   11  A    between atoms: N4_23  and  C16_24 
REMARK   12  A    between atoms: N4_23  and  C18_26 
ROOT
ATOM      1  C9  NON d   1     -41.634  17.629  -4.003  0.00  0.00     0.034 A 
ATOM      2  C10 NON d   1     -40.855  18.579  -4.696  0.00  0.00     0.030 A 
ATOM      3  C11 NON d   1     -39.657  19.159  -4.139  0.00  0.00     0.019 A 
ATOM      4  C12 NON d   1     -39.176  18.831  -2.852  0.00  0.00     0.032 A 
ATOM      5  C20 NON d   1     -39.970  17.926  -2.144  0.00  0.00     0.019 A 
ATOM      6  C21 NON d   1     -41.167  17.351  -2.705  0.00  0.00     0.030 A 
ENDROOT
BRANCH   1   7
ATOM      7  N2  NON d   1     -42.857  17.080  -4.625  0.00  0.00    -0.333 N 
ATOM      8  H9  NON d   1     -42.733  16.148  -5.000  0.00  0.00     0.168 HD
BRANCH   7   9
ATOM      9  C8  NON d   1     -44.185  17.606  -4.691  0.00  0.00     0.179 C 
ATOM     10  S1  NON d   1     -44.576  19.086  -5.394  0.00  0.00    -0.040 SA
BRANCH   9  11
ATOM     11  N1  NON d   1     -45.199  16.792  -4.039  0.00  0.00    -0.299 N 
ATOM     12  C7  NON d   1     -46.277  16.140  -4.727  0.00  0.00     0.257 C 
ATOM     13  O2  NON d   1     -46.050  15.669  -5.848  0.00  0.00    -0.267 OA
ATOM     14  H8  NON d   1     -45.296  16.920  -3.044  0.00  0.00     0.171 HD
BRANCH  12  15
ATOM     15  C6  NON d   1     -47.694  15.817  -4.179  0.00  0.00     0.033 A 
ATOM     16  C5  NON d   1     -48.754  15.113  -4.749  0.00  0.00     0.020 A 
ATOM     17  C4  NON d   1     -50.065  15.056  -4.100  0.00  0.00     0.039 A 
ATOM     18  C3  NON d   1     -50.395  15.680  -2.859  0.00  0.00     0.086 A 
ATOM     19  C23 NON d   1     -49.307  16.350  -2.277  0.00  0.00     0.045 A 
ATOM     20  C22 NON d   1     -48.018  16.409  -2.930  0.00  0.00     0.039 A 
ATOM     21 Br1  NON d   1     -49.315  17.255  -0.598  0.00  0.00    -0.048 Br
BRANCH  18  22
ATOM     22  O1  NON d   1     -51.734  15.519  -2.435  0.00  0.00    -0.350 OA
BRANCH  22  23
ATOM     23  C2  NON d   1     -52.637  16.667  -2.295  0.00  0.00     0.171 C 
ATOM     24  C1  NON d   1     -54.098  16.691  -2.782  0.00  0.00     0.034 C 
ENDBRANCH  22  23
ENDBRANCH  18  22
ENDBRANCH  12  15
ENDBRANCH   9  11
ENDBRANCH   7   9
ENDBRANCH   1   7
BRANCH   4  25
ATOM     25  C13 NON d   1     -37.920  19.522  -2.272  0.00  0.00     0.251 C 
ATOM     26  O3  NON d   1     -36.845  19.433  -2.861  0.00  0.00    -0.268 OA
ATOM     27  N3  NON d   1     -37.995  20.255  -1.057  0.00  0.00    -0.355 N 
ATOM     28  H12 NON d   1     -38.794  20.029  -0.482  0.00  0.00     0.162 HD
BRANCH  27  29
ATOM     29  C14 NON d   1     -36.759  20.816  -0.390  0.00  0.00     0.150 C 
BRANCH  29  30
ATOM     30  C15 NON d   1     -36.967  21.430   1.066  0.00  0.00     0.254 C 
BRANCH  30  31
ATOM     31  N4  NON d   1     -38.418  22.134   1.373  0.00  0.00    -0.070 N 
ATOM     32  H17 NON d   1     -38.718  20.814   0.638  0.00  0.00     0.279 HD
BRANCH  31  33
ATOM     33  C16 NON d   1     -39.871  21.756   1.028  0.00  0.00     0.230 C 
ATOM     34  C17 NON d   1     -40.843  22.831   0.508  0.00  0.00     0.034 C 
ENDBRANCH  31  33
BRANCH  31  35
ATOM     35  C18 NON d   1     -38.119  23.454   2.108  0.00  0.00     0.230 C 
ATOM     36  C19 NON d   1     -36.775  24.172   1.886  0.00  0.00     0.034 C 
ENDBRANCH  31  35
ENDBRANCH  30  31
ENDBRANCH  29  30
ENDBRANCH  27  29
ENDBRANCH   4  25
TORSDOF 12
ENDMDL
MODEL 9
REMARK VINA RESULT:   -12.420      4.265      7.374
REMARK INTER + INTRA:         -16.859
REMARK INTER:                 -16.000
REMARK INTRA:                  -0.859
REMARK CONF_INDEPENDENT:        3.580
REMARK UNBOUND:                -0.859
REMARK  12 active torsions:
REMARK  status: ('A' for Active; 'I' for Inactive)
REMARK    1  A    between atoms: C2_2  and  O1_3 
REMARK    2  A    between atoms: O1_3  and  C3_4 
REMARK    3  A    between atoms: C6_7  and  C7_8 
REMARK       I    between atoms: C7_8  and  N1_10 
REMARK    4  A    between atoms: N1_10  and  C8_11 
REMARK    5  A    between atoms: C8_11  and  N2_13 
REMARK    6  A    between atoms: N2_13  and  C9_14 
REMARK    7  A    between atoms: C12_17  and  C13_18 
REMARK       I    between atoms: C13_18  and  N3_20 
REMARK    8  A    between atoms: N3_20  and  C14_21 
REMARK    9  A    between atoms: C14_21  and  C15_22 
REMARK   10  A    between atoms: C15_22  and  N4_23 
REMARK   11  A    between atoms: N4_23  and  C16_24 
REMARK   12  A    between atoms: N4_23  and  C18_26 
ROOT
ATOM      1  C9  NON d   1     -42.149  18.535  -4.166  0.00  0.00     0.034 A 
ATOM      2  C10 NON d   1     -43.044  19.171  -5.052  0.00  0.00     0.030 A 
ATOM      3  C11 NON d   1     -44.355  18.645  -5.344  0.00  0.00     0.019 A 
ATOM      4  C12 NON d   1     -44.843  17.448  -4.774  0.00  0.00     0.032 A 
ATOM      5  C20 NON d   1     -43.943  16.792  -3.933  0.00  0.00     0.019 A 
ATOM      6  C21 NON d   1     -42.632  17.321  -3.646  0.00  0.00     0.030 A 
ENDROOT
BRANCH   1   7
ATOM      7  N2  NON d   1     -40.814  19.119  -3.918  0.00  0.00    -0.333 N 
ATOM      8  H9  NON d   1     -40.545  19.812  -4.605  0.00  0.00     0.168 HD
BRANCH   7   9
ATOM      9  C8  NON d   1     -39.905  18.935  -2.830  0.00  0.00     0.179 C 
ATOM     10  S1  NON d   1     -38.685  17.775  -2.810  0.00  0.00    -0.040 SA
BRANCH   9  11
ATOM     11  N1  NON d   1     -40.145  19.794  -1.680  0.00  0.00    -0.299 N 
ATOM     12  C7  NON d   1     -39.941  21.214  -1.676  0.00  0.00     0.257 C 
ATOM     13  O2  NON d   1     -40.214  21.843  -2.706  0.00  0.00    -0.267 OA
ATOM     14  H8  NON d   1     -40.196  19.331  -0.786  0.00  0.00     0.171 HD
BRANCH  12  15
ATOM     15  C6  NON d   1     -39.541  22.111  -0.472  0.00  0.00     0.033 A 
ATOM     16  C5  NON d   1     -38.596  21.919   0.535  0.00  0.00     0.020 A 
ATOM     17  C4  NON d   1     -38.490  22.845   1.664  0.00  0.00     0.039 A 
ATOM     18  C3  NON d   1     -39.300  24.005   1.854  0.00  0.00     0.086 A 
ATOM     19  C23 NON d   1     -40.219  24.208   0.811  0.00  0.00     0.045 A 
ATOM     20  C22 NON d   1     -40.323  23.283  -0.296  0.00  0.00     0.039 A 
ATOM     21 Br1  NON d   1     -41.435  25.670   0.656  0.00  0.00    -0.048 Br
BRANCH  18  22
ATOM     22  O1  NON d   1     -39.044  24.738   3.035  0.00  0.00    -0.350 OA
BRANCH  22  23
ATOM     23  C2  NON d   1     -40.113  25.055   3.988  0.00  0.00     0.171 C 
ATOM     24  C1  NON d   1     -41.498  24.381   4.001  0.00  0.00     0.034 C 
ENDBRANCH  22  23
ENDBRANCH  18  22
ENDBRANCH  12  15
ENDBRANCH   9  11
ENDBRANCH   7   9
ENDBRANCH   1   7
BRANCH   4  25
ATOM     25  C13 NON d   1     -46.233  16.892  -5.162  0.00  0.00     0.251 C 
ATOM     26  O3  NON d   1     -46.867  17.411  -6.078  0.00  0.00    -0.268 OA
ATOM     27  N3  NON d   1     -46.790  15.789  -4.460  0.00  0.00    -0.355 N 
ATOM     28  H12 NON d   1     -46.383  15.623  -3.552  0.00  0.00     0.162 HD
BRANCH  27  29
ATOM     29  C14 NON d   1     -48.205  15.317  -4.716  0.00  0.00     0.150 C 
BRANCH  29  30
ATOM     30  C15 NON d   1     -48.959  14.660  -3.475  0.00  0.00     0.254 C 
BRANCH  30  31
ATOM     31  N4  NON d   1     -50.090  15.582  -2.723  0.00  0.00    -0.070 N 
ATOM     32  H17 NON d   1     -50.856  14.594  -3.623  0.00  0.00     0.279 HD
BRANCH  31  33
ATOM     33  C16 NON d   1     -51.627  15.649  -2.809  0.00  0.00     0.230 C 
ATOM     34  C17 NON d   1     -52.375  16.883  -2.271  0.00  0.00     0.034 C 
ENDBRANCH  31  33
BRANCH  31  35
ATOM     35  C18 NON d   1     -49.326  16.570  -1.823  0.00  0.00     0.230 C 
ATOM     36  C19 NON d   1     -47.812  16.778  -2.020  0.00  0.00     0.034 C 
ENDBRANCH  31  35
ENDBRANCH  30  31
ENDBRANCH  29  30
ENDBRANCH  27  29
ENDBRANCH   4  25
TORSDOF 12
ENDMDL
