MODEL 1
REMARK VINA RESULT:   -14.372      0.000      0.000
REMARK INTER + INTRA:         -18.209
REMARK INTER:                 -16.758
REMARK INTRA:                  -1.450
REMARK CONF_INDEPENDENT:        2.386
REMARK UNBOUND:                -1.450
REMARK  8 active torsions:
REMARK  status: ('A' for Active; 'I' for Inactive)
REMARK    1  A    between atoms: C2_2  and  C3_3 
REMARK    2  A    between atoms: C3_3  and  C4_4 
REMARK    3  A    between atoms: C7_7  and  C8_8 
REMARK    4  A    between atoms: C8_8  and  C9_10 
REMARK    5  A    between atoms: C9_10  and  C10_11 
REMARK    6  A    between atoms: C10_11  and  C11_12 
REMARK       I    between atoms: C11_12  and  N1_14 
REMARK    7  A    between atoms: N1_14  and  N2_15 
REMARK       I    between atoms: N2_15  and  C12_16 
REMARK    8  A    between atoms: C12_16  and  C13_18 
ROOT
ATOM      1  C11 NON d   1     -47.835  15.483  -4.949  0.00  0.00     0.236 C 
ATOM      2  O2  NON d   1     -47.070  15.052  -5.807  0.00  0.00    -0.272 OA
ATOM      3  N1  NON d   1     -47.438  16.379  -3.974  0.00  0.00    -0.267 N 
ATOM      4  H14 NON d   1     -48.020  16.661  -3.187  0.00  0.00     0.190 HD
ENDROOT
BRANCH   1   5
ATOM      5  C10 NON d   1     -49.290  15.080  -4.816  0.00  0.00     0.112 C 
BRANCH   5   6
ATOM      6  C9  NON d   1     -49.659  14.611  -3.408  0.00  0.00     0.093 C 
BRANCH   6   7
ATOM      7  C8  NON d   1     -49.771  15.760  -2.418  0.00  0.00     0.160 C 
ATOM      8  O1  NON d   1     -48.795  16.192  -1.806  0.00  0.00    -0.292 OA
BRANCH   7   9
ATOM      9  C7  NON d   1     -51.118  16.364  -2.166  0.00  0.00     0.010 A 
ATOM     10  C6  NON d   1     -51.214  17.435  -1.271  0.00  0.00     0.015 A 
ATOM     11  C5  NON d   1     -52.455  18.015  -0.986  0.00  0.00     0.008 A 
ATOM     12  C4  NON d   1     -53.633  17.533  -1.578  0.00  0.00    -0.058 A 
ATOM     13  C20 NON d   1     -53.529  16.466  -2.478  0.00  0.00     0.008 A 
ATOM     14  C19 NON d   1     -52.286  15.886  -2.771  0.00  0.00     0.015 A 
BRANCH  12  15
ATOM     15  C3  NON d   1     -54.940  18.216  -1.226  0.00  0.00     0.038 C 
BRANCH  15  16
ATOM     16  C2  NON d   1     -54.955  19.077   0.042  0.00  0.00     0.000 C 
ATOM     17  C1  NON d   1     -54.554  20.515  -0.255  0.00  0.00     0.005 C 
ENDBRANCH  15  16
ENDBRANCH  12  15
ENDBRANCH   7   9
ENDBRANCH   6   7
ENDBRANCH   5   6
ENDBRANCH   1   5
BRANCH   3  18
ATOM     18  N2  NON d   1     -46.101  16.791  -3.942  0.00  0.00    -0.263 N 
ATOM     19  C12 NON d   1     -45.573  17.381  -5.075  0.00  0.00     0.270 C 
ATOM     20  O3  NON d   1     -46.261  17.586  -6.074  0.00  0.00    -0.266 OA
ATOM     21  H15 NON d   1     -45.607  16.607  -3.073  0.00  0.00     0.190 HD
BRANCH  19  22
ATOM     22  C13 NON d   1     -44.126  17.760  -5.059  0.00  0.00     0.033 A 
ATOM     23  C14 NON d   1     -43.794  19.094  -5.363  0.00  0.00     0.020 A 
ATOM     24  C15 NON d   1     -42.460  19.512  -5.387  0.00  0.00     0.043 A 
ATOM     25  C16 NON d   1     -41.454  18.597  -5.108  0.00  0.00     0.116 A 
ATOM     26  F1  NON d   1     -40.175  18.990  -5.135  0.00  0.00    -0.206 F 
ATOM     27  C17 NON d   1     -41.759  17.276  -4.801  0.00  0.00     0.043 A 
ATOM     28  C18 NON d   1     -43.093  16.852  -4.777  0.00  0.00     0.020 A 
ENDBRANCH  19  22
ENDBRANCH   3  18
TORSDOF 8
ENDMDL
MODEL 2
REMARK VINA RESULT:   -13.376      3.888     10.699
REMARK INTER + INTRA:         -16.128
REMARK INTER:                 -15.762
REMARK INTRA:                  -0.366
REMARK CONF_INDEPENDENT:        2.386
REMARK UNBOUND:                -0.366
REMARK  8 active torsions:
REMARK  status: ('A' for Active; 'I' for Inactive)
REMARK    1  A    between atoms: C2_2  and  C3_3 
REMARK    2  A    between atoms: C3_3  and  C4_4 
REMARK    3  A    between atoms: C7_7  and  C8_8 
REMARK    4  A    between atoms: C8_8  and  C9_10 
REMARK    5  A    between atoms: C9_10  and  C10_11 
REMARK    6  A    between atoms: C10_11  and  C11_12 
REMARK       I    between atoms: C11_12  and  N1_14 
REMARK    7  A    between atoms: N1_14  and  N2_15 
REMARK       I    between atoms: N2_15  and  C12_16 
REMARK    8  A    between atoms: C12_16  and  C13_18 
ROOT
ATOM      1  C11 NON d   1     -44.792  17.095  -5.064  0.00  0.00     0.236 C 
ATOM      2  O2  NON d   1     -45.705  17.462  -5.799  0.00  0.00    -0.272 OA
ATOM      3  N1  NON d   1     -45.014  16.511  -3.831  0.00  0.00    -0.267 N 
ATOM      4  H14 NON d   1     -44.278  16.304  -3.157  0.00  0.00     0.190 HD
ENDROOT
BRANCH   1   5
ATOM      5  C10 NON d   1     -43.319  17.256  -5.380  0.00  0.00     0.112 C 
BRANCH   5   6
ATOM      6  C9  NON d   1     -42.661  18.406  -4.616  0.00  0.00     0.093 C 
BRANCH   6   7
ATOM      7  C8  NON d   1     -41.162  18.490  -4.856  0.00  0.00     0.160 C 
ATOM      8  O1  NON d   1     -40.350  17.957  -4.102  0.00  0.00    -0.292 OA
BRANCH   7   9
ATOM      9  C7  NON d   1     -40.665  19.265  -6.038  0.00  0.00     0.010 A 
ATOM     10  C6  NON d   1     -40.674  20.663  -5.971  0.00  0.00     0.015 A 
ATOM     11  C5  NON d   1     -40.242  21.429  -7.059  0.00  0.00     0.008 A 
ATOM     12  C4  NON d   1     -39.803  20.820  -8.246  0.00  0.00    -0.058 A 
ATOM     13  C20 NON d   1     -39.790  19.422  -8.303  0.00  0.00     0.008 A 
ATOM     14  C19 NON d   1     -40.216  18.650  -7.211  0.00  0.00     0.015 A 
BRANCH  12  15
ATOM     15  C3  NON d   1     -39.344  21.716  -9.379  0.00  0.00     0.038 C 
BRANCH  15  16
ATOM     16  C2  NON d   1     -39.256  23.218  -9.087  0.00  0.00     0.000 C 
ATOM     17  C1  NON d   1     -40.313  23.998  -9.856  0.00  0.00     0.005 C 
ENDBRANCH  15  16
ENDBRANCH  12  15
ENDBRANCH   7   9
ENDBRANCH   6   7
ENDBRANCH   5   6
ENDBRANCH   1   5
BRANCH   3  18
ATOM     18  N2  NON d   1     -46.331  16.356  -3.385  0.00  0.00    -0.263 N 
ATOM     19  C12 NON d   1     -47.272  15.887  -4.283  0.00  0.00     0.270 C 
ATOM     20  O3  NON d   1     -46.964  15.567  -5.430  0.00  0.00    -0.266 OA
ATOM     21  H15 NON d   1     -46.500  16.620  -2.419  0.00  0.00     0.190 HD
BRANCH  19  22
ATOM     22  C13 NON d   1     -48.692  15.786  -3.821  0.00  0.00     0.033 A 
ATOM     23  C14 NON d   1     -49.230  16.878  -3.114  0.00  0.00     0.020 A 
ATOM     24  C15 NON d   1     -50.543  16.843  -2.635  0.00  0.00     0.043 A 
ATOM     25  C16 NON d   1     -51.321  15.716  -2.861  0.00  0.00     0.116 A 
ATOM     26  F1  NON d   1     -52.578  15.675  -2.400  0.00  0.00    -0.206 F 
ATOM     27  C17 NON d   1     -50.811  14.628  -3.560  0.00  0.00     0.043 A 
ATOM     28  C18 NON d   1     -49.497  14.658  -4.040  0.00  0.00     0.020 A 
ENDBRANCH  19  22
ENDBRANCH   3  18
TORSDOF 8
ENDMDL
MODEL 3
REMARK VINA RESULT:   -12.341      4.429     11.148
REMARK INTER + INTRA:         -16.518
REMARK INTER:                 -14.728
REMARK INTRA:                  -1.790
REMARK CONF_INDEPENDENT:        2.386
REMARK UNBOUND:                -1.790
REMARK  8 active torsions:
REMARK  status: ('A' for Active; 'I' for Inactive)
REMARK    1  A    between atoms: C2_2  and  C3_3 
REMARK    2  A    between atoms: C3_3  and  C4_4 
REMARK    3  A    between atoms: C7_7  and  C8_8 
REMARK    4  A    between atoms: C8_8  and  C9_10 
REMARK    5  A    between atoms: C9_10  and  C10_11 
REMARK    6  A    between atoms: C10_11  and  C11_12 
REMARK       I    between atoms: C11_12  and  N1_14 
REMARK    7  A    between atoms: N1_14  and  N2_15 
REMARK       I    between atoms: N2_15  and  C12_16 
REMARK    8  A    between atoms: C12_16  and  C13_18 
ROOT
ATOM      1  C11 NON d   1     -42.802  17.826  -3.607  0.00  0.00     0.236 C 
ATOM      2  O2  NON d   1     -42.929  18.005  -2.398  0.00  0.00    -0.272 OA
ATOM      3  N1  NON d   1     -43.823  17.342  -4.403  0.00  0.00    -0.267 N 
ATOM      4  H14 NON d   1     -43.709  17.079  -5.380  0.00  0.00     0.190 HD
ENDROOT
BRANCH   1   5
ATOM      5  C10 NON d   1     -41.522  18.073  -4.381  0.00  0.00     0.112 C 
BRANCH   5   6
ATOM      6  C9  NON d   1     -41.627  19.243  -5.359  0.00  0.00     0.093 C 
BRANCH   6   7
ATOM      7  C8  NON d   1     -40.744  19.064  -6.585  0.00  0.00     0.160 C 
ATOM      8  O1  NON d   1     -40.315  17.963  -6.925  0.00  0.00    -0.292 OA
BRANCH   7   9
ATOM      9  C7  NON d   1     -40.370  20.274  -7.385  0.00  0.00     0.010 A 
ATOM     10  C6  NON d   1     -40.263  21.504  -6.726  0.00  0.00     0.015 A 
ATOM     11  C5  NON d   1     -39.940  22.665  -7.437  0.00  0.00     0.008 A 
ATOM     12  C4  NON d   1     -39.730  22.631  -8.824  0.00  0.00    -0.058 A 
ATOM     13  C20 NON d   1     -39.832  21.397  -9.476  0.00  0.00     0.008 A 
ATOM     14  C19 NON d   1     -40.148  20.229  -8.766  0.00  0.00     0.015 A 
BRANCH  12  15
ATOM     15  C3  NON d   1     -39.378  23.929  -9.524  0.00  0.00     0.038 C 
BRANCH  15  16
ATOM     16  C2  NON d   1     -40.309  24.385 -10.653  0.00  0.00     0.000 C 
ATOM     17  C1  NON d   1     -39.946  23.724 -11.976  0.00  0.00     0.005 C 
ENDBRANCH  15  16
ENDBRANCH  12  15
ENDBRANCH   7   9
ENDBRANCH   6   7
ENDBRANCH   5   6
ENDBRANCH   1   5
BRANCH   3  18
ATOM     18  N2  NON d   1     -45.045  17.014  -3.805  0.00  0.00    -0.263 N 
ATOM     19  C12 NON d   1     -46.048  16.505  -4.610  0.00  0.00     0.270 C 
ATOM     20  O3  NON d   1     -45.869  16.300  -5.810  0.00  0.00    -0.266 OA
ATOM     21  H15 NON d   1     -45.106  17.191  -2.807  0.00  0.00     0.190 HD
BRANCH  19  22
ATOM     22  C13 NON d   1     -47.374  16.217  -3.980  0.00  0.00     0.033 A 
ATOM     23  C14 NON d   1     -48.233  15.319  -4.642  0.00  0.00     0.020 A 
ATOM     24  C15 NON d   1     -49.495  15.020  -4.121  0.00  0.00     0.043 A 
ATOM     25  C16 NON d   1     -49.903  15.619  -2.936  0.00  0.00     0.116 A 
ATOM     26  F1  NON d   1     -51.113  15.341  -2.435  0.00  0.00    -0.206 F 
ATOM     27  C17 NON d   1     -49.070  16.506  -2.265  0.00  0.00     0.043 A 
ATOM     28  C18 NON d   1     -47.805  16.809  -2.783  0.00  0.00     0.020 A 
ENDBRANCH  19  22
ENDBRANCH   3  18
TORSDOF 8
ENDMDL
MODEL 4
REMARK VINA RESULT:   -12.282      4.328     11.617
REMARK INTER + INTRA:         -16.551
REMARK INTER:                 -14.668
REMARK INTRA:                  -1.883
REMARK CONF_INDEPENDENT:        2.386
REMARK UNBOUND:                -1.883
REMARK  8 active torsions:
REMARK  status: ('A' for Active; 'I' for Inactive)
REMARK    1  A    between atoms: C2_2  and  C3_3 
REMARK    2  A    between atoms: C3_3  and  C4_4 
REMARK    3  A    between atoms: C7_7  and  C8_8 
REMARK    4  A    between atoms: C8_8  and  C9_10 
REMARK    5  A    between atoms: C9_10  and  C10_11 
REMARK    6  A    between atoms: C10_11  and  C11_12 
REMARK       I    between atoms: C11_12  and  N1_14 
REMARK    7  A    between atoms: N1_14  and  N2_15 
REMARK       I    between atoms: N2_15  and  C12_16 
REMARK    8  A    between atoms: C12_16  and  C13_18 
ROOT
ATOM      1  C11 NON d   1     -42.797  17.638  -3.662  0.00  0.00     0.236 C 
ATOM      2  O2  NON d   1     -42.893  17.766  -2.445  0.00  0.00    -0.272 OA
ATOM      3  N1  NON d   1     -43.853  17.236  -4.458  0.00  0.00    -0.267 N 
ATOM      4  H14 NON d   1     -43.768  17.014  -5.449  0.00  0.00     0.190 HD
ENDROOT
BRANCH   1   5
ATOM      5  C10 NON d   1     -41.522  17.866  -4.451  0.00  0.00     0.112 C 
BRANCH   5   6
ATOM      6  C9  NON d   1     -41.263  19.340  -4.764  0.00  0.00     0.093 C 
BRANCH   6   7
ATOM      7  C8  NON d   1     -41.546  19.691  -6.216  0.00  0.00     0.160 C 
ATOM      8  O1  NON d   1     -42.688  19.879  -6.630  0.00  0.00    -0.292 OA
BRANCH   7   9
ATOM      9  C7  NON d   1     -40.396  19.786  -7.170  0.00  0.00     0.010 A 
ATOM     10  C6  NON d   1     -39.458  18.748  -7.193  0.00  0.00     0.015 A 
ATOM     11  C5  NON d   1     -38.354  18.805  -8.050  0.00  0.00     0.008 A 
ATOM     12  C4  NON d   1     -38.151  19.906  -8.898  0.00  0.00    -0.058 A 
ATOM     13  C20 NON d   1     -39.097  20.938  -8.876  0.00  0.00     0.008 A 
ATOM     14  C19 NON d   1     -40.209  20.880  -8.022  0.00  0.00     0.015 A 
BRANCH  12  15
ATOM     15  C3  NON d   1     -36.936  19.894  -9.804  0.00  0.00     0.038 C 
BRANCH  15  16
ATOM     16  C2  NON d   1     -36.605  21.196 -10.541  0.00  0.00     0.000 C 
ATOM     17  C1  NON d   1     -36.748  21.035 -12.048  0.00  0.00     0.005 C 
ENDBRANCH  15  16
ENDBRANCH  12  15
ENDBRANCH   7   9
ENDBRANCH   6   7
ENDBRANCH   5   6
ENDBRANCH   1   5
BRANCH   3  18
ATOM     18  N2  NON d   1     -45.076  16.932  -3.852  0.00  0.00    -0.263 N 
ATOM     19  C12 NON d   1     -46.096  16.447  -4.650  0.00  0.00     0.270 C 
ATOM     20  O3  NON d   1     -45.932  16.241  -5.851  0.00  0.00    -0.266 OA
ATOM     21  H15 NON d   1     -45.126  17.109  -2.853  0.00  0.00     0.190 HD
BRANCH  19  22
ATOM     22  C13 NON d   1     -47.423  16.186  -4.009  0.00  0.00     0.033 A 
ATOM     23  C14 NON d   1     -48.303  15.300  -4.661  0.00  0.00     0.020 A 
ATOM     24  C15 NON d   1     -49.566  15.027  -4.130  0.00  0.00     0.043 A 
ATOM     25  C16 NON d   1     -49.955  15.638  -2.945  0.00  0.00     0.116 A 
ATOM     26  F1  NON d   1     -51.166  15.384  -2.435  0.00  0.00    -0.206 F 
ATOM     27  C17 NON d   1     -49.101  16.512  -2.283  0.00  0.00     0.043 A 
ATOM     28  C18 NON d   1     -47.835  16.790  -2.811  0.00  0.00     0.020 A 
ENDBRANCH  19  22
ENDBRANCH   3  18
TORSDOF 8
ENDMDL
MODEL 5
REMARK VINA RESULT:   -12.040      4.239      9.967
REMARK INTER + INTRA:         -16.325
REMARK INTER:                 -14.426
REMARK INTRA:                  -1.899
REMARK CONF_INDEPENDENT:        2.386
REMARK UNBOUND:                -1.899
REMARK  8 active torsions:
REMARK  status: ('A' for Active; 'I' for Inactive)
REMARK    1  A    between atoms: C2_2  and  C3_3 
REMARK    2  A    between atoms: C3_3  and  C4_4 
REMARK    3  A    between atoms: C7_7  and  C8_8 
REMARK    4  A    between atoms: C8_8  and  C9_10 
REMARK    5  A    between atoms: C9_10  and  C10_11 
REMARK    6  A    between atoms: C10_11  and  C11_12 
REMARK       I    between atoms: C11_12  and  N1_14 
REMARK    7  A    between atoms: N1_14  and  N2_15 
REMARK       I    between atoms: N2_15  and  C12_16 
REMARK    8  A    between atoms: C12_16  and  C13_18 
ROOT
ATOM      1  C11 NON d   1     -42.858  17.709  -3.623  0.00  0.00     0.236 C 
ATOM      2  O2  NON d   1     -42.996  17.938  -2.424  0.00  0.00    -0.272 OA
ATOM      3  N1  NON d   1     -43.876  17.201  -4.409  0.00  0.00    -0.267 N 
ATOM      4  H14 NON d   1     -43.753  16.897  -5.374  0.00  0.00     0.190 HD
ENDROOT
BRANCH   1   5
ATOM      5  C10 NON d   1     -41.569  17.913  -4.393  0.00  0.00     0.112 C 
BRANCH   5   6
ATOM      6  C9  NON d   1     -41.715  18.884  -5.565  0.00  0.00     0.093 C 
BRANCH   6   7
ATOM      7  C8  NON d   1     -40.671  19.989  -5.546  0.00  0.00     0.160 C 
ATOM      8  O1  NON d   1     -39.889  20.164  -6.478  0.00  0.00    -0.292 OA
BRANCH   7   9
ATOM      9  C7  NON d   1     -40.583  20.876  -4.341  0.00  0.00     0.010 A 
ATOM     10  C6  NON d   1     -41.067  22.185  -4.438  0.00  0.00     0.015 A 
ATOM     11  C5  NON d   1     -40.984  23.057  -3.347  0.00  0.00     0.008 A 
ATOM     12  C4  NON d   1     -40.404  22.648  -2.135  0.00  0.00    -0.058 A 
ATOM     13  C20 NON d   1     -39.929  21.334  -2.043  0.00  0.00     0.008 A 
ATOM     14  C19 NON d   1     -40.017  20.456  -3.133  0.00  0.00     0.015 A 
BRANCH  12  15
ATOM     15  C3  NON d   1     -40.355  23.645  -0.995  0.00  0.00     0.038 C 
BRANCH  15  16
ATOM     16  C2  NON d   1     -41.064  23.251   0.305  0.00  0.00     0.000 C 
ATOM     17  C1  NON d   1     -40.325  22.133   1.026  0.00  0.00     0.005 C 
ENDBRANCH  15  16
ENDBRANCH  12  15
ENDBRANCH   7   9
ENDBRANCH   6   7
ENDBRANCH   5   6
ENDBRANCH   1   5
BRANCH   3  18
ATOM     18  N2  NON d   1     -45.106  16.907  -3.812  0.00  0.00    -0.263 N 
ATOM     19  C12 NON d   1     -46.117  16.408  -4.613  0.00  0.00     0.270 C 
ATOM     20  O3  NON d   1     -45.938  16.183  -5.809  0.00  0.00    -0.266 OA
ATOM     21  H15 NON d   1     -45.167  17.099  -2.816  0.00  0.00     0.190 HD
BRANCH  19  22
ATOM     22  C13 NON d   1     -47.451  16.158  -3.984  0.00  0.00     0.033 A 
ATOM     23  C14 NON d   1     -48.330  15.275  -4.641  0.00  0.00     0.020 A 
ATOM     24  C15 NON d   1     -49.600  15.012  -4.121  0.00  0.00     0.043 A 
ATOM     25  C16 NON d   1     -49.996  15.629  -2.942  0.00  0.00     0.116 A 
ATOM     26  F1  NON d   1     -51.213  15.384  -2.442  0.00  0.00    -0.206 F 
ATOM     27  C17 NON d   1     -49.143  16.500  -2.275  0.00  0.00     0.043 A 
ATOM     28  C18 NON d   1     -47.870  16.768  -2.792  0.00  0.00     0.020 A 
ENDBRANCH  19  22
ENDBRANCH   3  18
TORSDOF 8
ENDMDL
MODEL 6
REMARK VINA RESULT:   -11.849      3.248      5.203
REMARK INTER + INTRA:         -15.856
REMARK INTER:                 -14.236
REMARK INTRA:                  -1.621
REMARK CONF_INDEPENDENT:        2.386
REMARK UNBOUND:                -1.621
REMARK  8 active torsions:
REMARK  status: ('A' for Active; 'I' for Inactive)
REMARK    1  A    between atoms: C2_2  and  C3_3 
REMARK    2  A    between atoms: C3_3  and  C4_4 
REMARK    3  A    between atoms: C7_7  and  C8_8 
REMARK    4  A    between atoms: C8_8  and  C9_10 
REMARK    5  A    between atoms: C9_10  and  C10_11 
REMARK    6  A    between atoms: C10_11  and  C11_12 
REMARK       I    between atoms: C11_12  and  N1_14 
REMARK    7  A    between atoms: N1_14  and  N2_15 
REMARK       I    between atoms: N2_15  and  C12_16 
REMARK    8  A    between atoms: C12_16  and  C13_18 
ROOT
ATOM      1  C11 NON d   1     -42.526  17.467  -3.906  0.00  0.00     0.236 C 
ATOM      2  O2  NON d   1     -41.537  17.346  -3.187  0.00  0.00    -0.272 OA
ATOM      3  N1  NON d   1     -42.452  17.923  -5.208  0.00  0.00    -0.267 N 
ATOM      4  H14 NON d   1     -43.265  18.139  -5.784  0.00  0.00     0.190 HD
ENDROOT
BRANCH   1   5
ATOM      5  C10 NON d   1     -43.946  17.170  -3.468  0.00  0.00     0.112 C 
BRANCH   5   6
ATOM      6  C9  NON d   1     -44.997  17.637  -4.475  0.00  0.00     0.093 C 
BRANCH   6   7
ATOM      7  C8  NON d   1     -45.895  16.508  -4.954  0.00  0.00     0.160 C 
ATOM      8  O1  NON d   1     -45.565  15.755  -5.869  0.00  0.00    -0.292 OA
BRANCH   7   9
ATOM      9  C7  NON d   1     -47.232  16.326  -4.303  0.00  0.00     0.010 A 
ATOM     10  C6  NON d   1     -48.126  15.403  -4.857  0.00  0.00     0.015 A 
ATOM     11  C5  NON d   1     -49.394  15.218  -4.297  0.00  0.00     0.008 A 
ATOM     12  C4  NON d   1     -49.808  15.957  -3.178  0.00  0.00    -0.058 A 
ATOM     13  C20 NON d   1     -48.906  16.874  -2.624  0.00  0.00     0.008 A 
ATOM     14  C19 NON d   1     -47.631  17.057  -3.179  0.00  0.00     0.015 A 
BRANCH  12  15
ATOM     15  C3  NON d   1     -51.194  15.697  -2.624  0.00  0.00     0.038 C 
BRANCH  15  16
ATOM     16  C2  NON d   1     -51.956  16.902  -2.062  0.00  0.00     0.000 C 
ATOM     17  C1  NON d   1     -53.432  16.852  -2.434  0.00  0.00     0.005 C 
ENDBRANCH  15  16
ENDBRANCH  12  15
ENDBRANCH   7   9
ENDBRANCH   6   7
ENDBRANCH   5   6
ENDBRANCH   1   5
BRANCH   3  18
ATOM     18  N2  NON d   1     -41.205  18.293  -5.724  0.00  0.00    -0.263 N 
ATOM     19  C12 NON d   1     -41.165  19.293  -6.678  0.00  0.00     0.270 C 
ATOM     20  O3  NON d   1     -42.184  19.880  -7.039  0.00  0.00    -0.266 OA
ATOM     21  H15 NON d   1     -40.410  17.777  -5.359  0.00  0.00     0.190 HD
BRANCH  19  22
ATOM     22  C13 NON d   1     -39.837  19.639  -7.274  0.00  0.00     0.033 A 
ATOM     23  C14 NON d   1     -39.789  20.707  -8.191  0.00  0.00     0.020 A 
ATOM     24  C15 NON d   1     -38.586  21.071  -8.803  0.00  0.00     0.043 A 
ATOM     25  C16 NON d   1     -37.427  20.369  -8.500  0.00  0.00     0.116 A 
ATOM     26  F1  NON d   1     -36.273  20.710  -9.086  0.00  0.00    -0.206 F 
ATOM     27  C17 NON d   1     -37.451  19.315  -7.595  0.00  0.00     0.043 A 
ATOM     28  C18 NON d   1     -38.653  18.945  -6.980  0.00  0.00     0.020 A 
ENDBRANCH  19  22
ENDBRANCH   3  18
TORSDOF 8
ENDMDL
