MODEL 1
REMARK VINA RESULT:   -19.682      0.000      0.000
REMARK INTER + INTRA:         -22.465
REMARK INTER:                 -21.472
REMARK INTRA:                  -0.993
REMARK CONF_INDEPENDENT:        1.790
REMARK UNBOUND:                -0.993
REMARK  6 active torsions:
REMARK  status: ('A' for Active; 'I' for Inactive)
REMARK    1  A    between atoms: C2_2  and  S1_3 
REMARK    2  A    between atoms: C2_2  and  C12_15 
REMARK    3  A    between atoms: S1_3  and  C3_4 
REMARK    4  A    between atoms: N2_8  and  C6_9 
REMARK       I    between atoms: C12_15  and  N3_17 
REMARK    5  A    between atoms: N3_17  and  C13_18 
REMARK    6  A    between atoms: C16_22  and  C17_23 
REMARK       I    between atoms: C17_23  and  N4_24 
ROOT
ATOM      1  C1  NON d   1     -44.825  20.121  -4.691  0.00  0.00     0.031 C 
ATOM      2  C2  NON d   1     -44.440  19.163  -5.833  0.00  0.00     0.143 C 
ENDROOT
BRANCH   2   3
ATOM      3  S1  NON d   1     -45.924  18.399  -6.605  0.00  0.00    -0.077 SA
BRANCH   3   4
ATOM      4  C3  NON d   1     -46.298  17.161  -5.440  0.00  0.00     0.173 C 
ATOM      5  N1  NON d   1     -47.438  16.505  -5.469  0.00  0.00    -0.235 NA
ATOM      6  C4  NON d   1     -47.539  15.897  -4.258  0.00  0.00     0.137 C 
ATOM      7  C5  NON d   1     -46.408  16.117  -3.511  0.00  0.00     0.118 C 
ATOM      8  N2  NON d   1     -45.540  16.849  -4.310  0.00  0.00    -0.300 N 
BRANCH   8   9
ATOM      9  C6  NON d   1     -44.164  17.110  -3.991  0.00  0.00     0.041 A 
ATOM     10  C7  NON d   1     -43.167  16.927  -4.965  0.00  0.00     0.030 A 
ATOM     11  C8  NON d   1     -41.830  17.238  -4.690  0.00  0.00     0.002 A 
ATOM     12  C9  NON d   1     -41.467  17.730  -3.441  0.00  0.00     0.000 A 
ATOM     13  C10 NON d   1     -42.442  17.919  -2.468  0.00  0.00     0.002 A 
ATOM     14  C11 NON d   1     -43.781  17.623  -2.744  0.00  0.00     0.030 A 
ENDBRANCH   8   9
ENDBRANCH   3   4
ENDBRANCH   2   3
BRANCH   2  15
ATOM     15  C12 NON d   1     -43.552  19.875  -6.882  0.00  0.00     0.236 C 
ATOM     16  O1  NON d   1     -43.959  20.252  -7.981  0.00  0.00    -0.272 OA
ATOM     17  N3  NON d   1     -42.250  20.096  -6.427  0.00  0.00    -0.320 N 
ATOM     18  H12 NON d   1     -42.140  20.403  -5.463  0.00  0.00     0.169 HD
BRANCH  17  19
ATOM     19  C13 NON d   1     -41.188  20.393  -7.273  0.00  0.00     0.092 A 
ATOM     20  S2  NON d   1     -41.450  20.372  -8.955  0.00  0.00    -0.083 SA
ATOM     21  C14 NON d   1     -39.801  20.640  -9.283  0.00  0.00     0.053 A 
ATOM     22  C15 NON d   1     -39.061  20.747  -8.127  0.00  0.00     0.027 A 
ATOM     23  C16 NON d   1     -39.856  20.590  -6.935  0.00  0.00     0.066 A 
BRANCH  23  24
ATOM     24  C17 NON d   1     -39.396  20.637  -5.549  0.00  0.00     0.252 C 
ATOM     25  N4  NON d   1     -38.044  20.681  -5.358  0.00  0.00    -0.366 N 
ATOM     26  H15 NON d   1     -37.719  20.815  -4.412  0.00  0.00     0.159 HD
ATOM     27  H16 NON d   1     -37.386  20.825  -6.111  0.00  0.00     0.159 HD
ATOM     28  O2  NON d   1     -40.160  20.659  -4.588  0.00  0.00    -0.268 OA
ENDBRANCH  23  24
ENDBRANCH  17  19
ENDBRANCH   2  15
TORSDOF 6
ENDMDL
