MODEL 1
REMARK VINA RESULT:   -34.339      0.000      0.000
REMARK INTER + INTRA:         -39.728
REMARK INTER:                 -37.919
REMARK INTRA:                  -1.809
REMARK CONF_INDEPENDENT:        3.580
REMARK UNBOUND:                -1.809
REMARK  12 active torsions:
REMARK  status: ('A' for Active; 'I' for Inactive)
REMARK    1  A    between atoms: C2_2  and  O1_3 
REMARK    2  A    between atoms: O1_3  and  C3_4 
REMARK    3  A    between atoms: C5_6  and  C6_7 
REMARK    4  A    between atoms: C6_7  and  N1_8 
REMARK    5  A    between atoms: N1_8  and  C7_9 
REMARK    6  A    between atoms: C7_9  and  C8_10 
REMARK    7  A    between atoms: C8_10  and  N2_11 
REMARK       I    between atoms: N2_11  and  C9_12 
REMARK    8  A    between atoms: C9_12  and  C10_14 
REMARK    9  A    between atoms: C11_18  and  N5_19 
REMARK   10  A    between atoms: C14_22  and  O4_23 
REMARK   11  A    between atoms: O4_23  and  C15_24 
REMARK   12  A    between atoms: C15_24  and  C16_25 
ROOT
ATOM      1  C3  NON d   1     -39.498  21.917  -3.796  0.00  0.00     0.102 A 
ATOM      2  C4  NON d   1     -40.088  21.033  -4.729  0.00  0.00     0.048 A 
ATOM      3  C5  NON d   1     -40.121  19.638  -4.541  0.00  0.00    -0.030 A 
ATOM      4  C12 NON d   1     -39.541  19.138  -3.373  0.00  0.00     0.012 A 
ATOM      5  C13 NON d   1     -38.954  19.998  -2.431  0.00  0.00     0.040 A 
ATOM      6  C14 NON d   1     -38.912  21.392  -2.612  0.00  0.00     0.102 A 
ENDROOT
BRANCH   3   7
ATOM      7  C6  NON d   1     -40.813  18.785  -5.584  0.00  0.00     0.271 C 
BRANCH   7   8
ATOM      8  N1  NON d   1     -42.282  18.579  -5.365  0.00  0.00    -0.070 N 
ATOM      9  H9  NON d   1     -42.519  17.666  -5.768  0.00  0.00     0.277 HD
ATOM     10  H10 NON d   1     -42.793  19.285  -5.914  0.00  0.00     0.277 HD
BRANCH   8  11
ATOM     11  C7  NON d   1     -42.775  18.557  -3.946  0.00  0.00     0.252 C 
BRANCH  11  12
ATOM     12  C8  NON d   1     -43.156  17.155  -3.460  0.00  0.00     0.150 C 
BRANCH  12  13
ATOM     13  N2  NON d   1     -44.564  16.843  -3.586  0.00  0.00    -0.354 N 
ATOM     14  C9  NON d   1     -45.247  17.265  -4.729  0.00  0.00     0.276 C 
ATOM     15  O2  NON d   1     -44.770  18.090  -5.503  0.00  0.00    -0.266 OA
ATOM     16  H15 NON d   1     -44.934  15.963  -3.227  0.00  0.00     0.162 HD
BRANCH  14  17
ATOM     17  C10 NON d   1     -46.526  16.602  -4.934  0.00  0.00     0.201 A 
ATOM     18  N3  NON d   1     -47.065  16.506  -6.162  0.00  0.00    -0.096 NA
ATOM     19  O3  NON d   1     -48.264  15.825  -5.967  0.00  0.00    -0.104 OA
ATOM     20  N4  NON d   1     -48.465  15.533  -4.627  0.00  0.00    -0.085 NA
ATOM     21  C11 NON d   1     -47.398  16.010  -3.991  0.00  0.00     0.188 A 
BRANCH  21  22
ATOM     22  N5  NON d   1     -47.213  15.941  -2.661  0.00  0.00    -0.380 N 
ATOM     23  H16 NON d   1     -46.853  15.112  -2.195  0.00  0.00     0.158 HD
ATOM     24  H17 NON d   1     -47.168  16.795  -2.113  0.00  0.00     0.158 HD
ENDBRANCH  21  22
ENDBRANCH  14  17
ENDBRANCH  12  13
ENDBRANCH  11  12
ENDBRANCH   8  11
ENDBRANCH   7   8
ENDBRANCH   3   7
BRANCH   1  25
ATOM     25  O1  NON d   1     -39.600  23.239  -4.222  0.00  0.00    -0.349 OA
BRANCH  25  26
ATOM     26  C2  NON d   1     -40.833  23.844  -3.894  0.00  0.00     0.171 C 
ATOM     27  C1  NON d   1     -41.170  25.266  -4.379  0.00  0.00     0.034 C 
ENDBRANCH  25  26
ENDBRANCH   1  25
BRANCH   6  28
ATOM     28  O4  NON d   1     -38.317  22.230  -1.681  0.00  0.00    -0.344 OA
BRANCH  28  29
ATOM     29  C15 NON d   1     -38.330  21.844  -0.300  0.00  0.00     0.216 C 
BRANCH  29  30
ATOM     30  C16 NON d   1     -38.964  22.753   0.758  0.00  0.00    -0.012 A 
ATOM     31  C17 NON d   1     -40.381  22.729   0.792  0.00  0.00     0.013 A 
ATOM     32  C18 NON d   1     -41.118  23.506   1.694  0.00  0.00     0.024 A 
ATOM     33  C19 NON d   1     -40.459  24.330   2.590  0.00  0.00     0.035 A 
ATOM     34 Cl1  NON d   1     -41.346  25.291   3.703  0.00  0.00    -0.084 Cl
ATOM     35  C20 NON d   1     -39.073  24.384   2.583  0.00  0.00     0.048 A 
ATOM     36  C21 NON d   1     -38.334  23.606   1.674  0.00  0.00     0.044 A 
ATOM     37 Cl2  NON d   1     -36.645  23.814   1.793  0.00  0.00    -0.084 Cl
ENDBRANCH  29  30
ENDBRANCH  28  29
ENDBRANCH   6  28
TORSDOF 12
ENDMDL
MODEL 2
REMARK VINA RESULT:   -34.288      5.455      7.799
REMARK INTER + INTRA:         -39.742
REMARK INTER:                 -37.867
REMARK INTRA:                  -1.875
REMARK CONF_INDEPENDENT:        3.580
REMARK UNBOUND:                -1.875
REMARK  12 active torsions:
REMARK  status: ('A' for Active; 'I' for Inactive)
REMARK    1  A    between atoms: C2_2  and  O1_3 
REMARK    2  A    between atoms: O1_3  and  C3_4 
REMARK    3  A    between atoms: C5_6  and  C6_7 
REMARK    4  A    between atoms: C6_7  and  N1_8 
REMARK    5  A    between atoms: N1_8  and  C7_9 
REMARK    6  A    between atoms: C7_9  and  C8_10 
REMARK    7  A    between atoms: C8_10  and  N2_11 
REMARK       I    between atoms: N2_11  and  C9_12 
REMARK    8  A    between atoms: C9_12  and  C10_14 
REMARK    9  A    between atoms: C11_18  and  N5_19 
REMARK   10  A    between atoms: C14_22  and  O4_23 
REMARK   11  A    between atoms: O4_23  and  C15_24 
REMARK   12  A    between atoms: C15_24  and  C16_25 
ROOT
ATOM      1  C3  NON d   1     -40.251  22.121  -6.285  0.00  0.00     0.102 A 
ATOM      2  C4  NON d   1     -40.558  20.884  -5.674  0.00  0.00     0.048 A 
ATOM      3  C5  NON d   1     -40.570  19.666  -6.383  0.00  0.00    -0.030 A 
ATOM      4  C12 NON d   1     -40.258  19.718  -7.743  0.00  0.00     0.012 A 
ATOM      5  C13 NON d   1     -39.947  20.937  -8.369  0.00  0.00     0.040 A 
ATOM      6  C14 NON d   1     -39.937  22.157  -7.670  0.00  0.00     0.102 A 
ENDROOT
BRANCH   3   7
ATOM      7  C6  NON d   1     -40.873  18.392  -5.624  0.00  0.00     0.271 C 
BRANCH   7   8
ATOM      8  N1  NON d   1     -42.314  18.195  -5.259  0.00  0.00    -0.070 N 
ATOM      9  H9  NON d   1     -42.577  17.255  -5.574  0.00  0.00     0.277 HD
ATOM     10  H10 NON d   1     -42.880  18.859  -5.807  0.00  0.00     0.277 HD
BRANCH   8  11
ATOM     11  C7  NON d   1     -42.676  18.271  -3.803  0.00  0.00     0.252 C 
BRANCH  11  12
ATOM     12  C8  NON d   1     -43.221  16.953  -3.246  0.00  0.00     0.150 C 
BRANCH  12  13
ATOM     13  N2  NON d   1     -44.649  16.779  -3.413  0.00  0.00    -0.354 N 
ATOM     14  C9  NON d   1     -45.240  17.187  -4.611  0.00  0.00     0.276 C 
ATOM     15  O2  NON d   1     -44.649  17.900  -5.417  0.00  0.00    -0.266 OA
ATOM     16  H15 NON d   1     -45.123  15.971  -3.012  0.00  0.00     0.162 HD
BRANCH  14  17
ATOM     17  C10 NON d   1     -46.574  16.646  -4.828  0.00  0.00     0.201 A 
ATOM     18  N3  NON d   1     -47.066  16.502  -6.070  0.00  0.00    -0.096 NA
ATOM     19  O3  NON d   1     -48.340  15.970  -5.883  0.00  0.00    -0.104 OA
ATOM     20  N4  NON d   1     -48.629  15.818  -4.536  0.00  0.00    -0.085 NA
ATOM     21  C11 NON d   1     -47.545  16.234  -3.886  0.00  0.00     0.188 A 
BRANCH  21  22
ATOM     22  N5  NON d   1     -47.426  16.261  -2.547  0.00  0.00    -0.380 N 
ATOM     23  H16 NON d   1     -46.799  16.897  -2.061  0.00  0.00     0.158 HD
ATOM     24  H17 NON d   1     -48.148  15.843  -1.969  0.00  0.00     0.158 HD
ENDBRANCH  21  22
ENDBRANCH  14  17
ENDBRANCH  12  13
ENDBRANCH  11  12
ENDBRANCH   8  11
ENDBRANCH   7   8
ENDBRANCH   3   7
BRANCH   1  25
ATOM     25  O1  NON d   1     -40.312  23.165  -5.364  0.00  0.00    -0.349 OA
BRANCH  25  26
ATOM     26  C2  NON d   1     -40.119  22.750  -4.028  0.00  0.00     0.171 C 
ATOM     27  C1  NON d   1     -41.059  23.232  -2.907  0.00  0.00     0.034 C 
ENDBRANCH  25  26
ENDBRANCH   1  25
BRANCH   6  28
ATOM     28  O4  NON d   1     -39.641  23.355  -8.302  0.00  0.00    -0.344 OA
BRANCH  28  29
ATOM     29  C15 NON d   1     -38.711  23.346  -9.394  0.00  0.00     0.216 C 
BRANCH  29  30
ATOM     30  C16 NON d   1     -39.192  23.578 -10.830  0.00  0.00    -0.012 A 
ATOM     31  C17 NON d   1     -40.314  24.436 -10.951  0.00  0.00     0.013 A 
ATOM     32  C18 NON d   1     -40.884  24.747 -12.192  0.00  0.00     0.024 A 
ATOM     33  C19 NON d   1     -40.349  24.208 -13.349  0.00  0.00     0.035 A 
ATOM     34 Cl1  NON d   1     -41.035  24.576 -14.879  0.00  0.00    -0.084 Cl
ATOM     35  C20 NON d   1     -39.254  23.360 -13.269  0.00  0.00     0.048 A 
ATOM     36  C21 NON d   1     -38.684  23.046 -12.023  0.00  0.00     0.044 A 
ATOM     37 Cl2  NON d   1     -37.361  21.973 -12.112  0.00  0.00    -0.084 Cl
ENDBRANCH  29  30
ENDBRANCH  28  29
ENDBRANCH   6  28
TORSDOF 12
ENDMDL
MODEL 3
REMARK VINA RESULT:   -33.783      1.841      2.175
REMARK INTER + INTRA:         -40.184
REMARK INTER:                 -37.363
REMARK INTRA:                  -2.821
REMARK CONF_INDEPENDENT:        3.580
REMARK UNBOUND:                -2.821
REMARK  12 active torsions:
REMARK  status: ('A' for Active; 'I' for Inactive)
REMARK    1  A    between atoms: C2_2  and  O1_3 
REMARK    2  A    between atoms: O1_3  and  C3_4 
REMARK    3  A    between atoms: C5_6  and  C6_7 
REMARK    4  A    between atoms: C6_7  and  N1_8 
REMARK    5  A    between atoms: N1_8  and  C7_9 
REMARK    6  A    between atoms: C7_9  and  C8_10 
REMARK    7  A    between atoms: C8_10  and  N2_11 
REMARK       I    between atoms: N2_11  and  C9_12 
REMARK    8  A    between atoms: C9_12  and  C10_14 
REMARK    9  A    between atoms: C11_18  and  N5_19 
REMARK   10  A    between atoms: C14_22  and  O4_23 
REMARK   11  A    between atoms: O4_23  and  C15_24 
REMARK   12  A    between atoms: C15_24  and  C16_25 
ROOT
ATOM      1  C3  NON d   1     -39.967  21.745  -3.436  0.00  0.00     0.102 A 
ATOM      2  C4  NON d   1     -40.270  20.411  -3.793  0.00  0.00     0.048 A 
ATOM      3  C5  NON d   1     -40.467  19.393  -2.840  0.00  0.00    -0.030 A 
ATOM      4  C12 NON d   1     -40.354  19.749  -1.494  0.00  0.00     0.012 A 
ATOM      5  C13 NON d   1     -40.058  21.069  -1.118  0.00  0.00     0.040 A 
ATOM      6  C14 NON d   1     -39.855  22.091  -2.062  0.00  0.00     0.102 A 
ENDROOT
BRANCH   3   7
ATOM      7  C6  NON d   1     -40.826  18.005  -3.329  0.00  0.00     0.271 C 
BRANCH   7   8
ATOM      8  N1  NON d   1     -42.207  17.868  -3.897  0.00  0.00    -0.070 N 
ATOM      9  H9  NON d   1     -42.862  18.152  -3.161  0.00  0.00     0.277 HD
ATOM     10  H10 NON d   1     -42.384  16.870  -4.079  0.00  0.00     0.277 HD
BRANCH   8  11
ATOM     11  C7  NON d   1     -42.544  18.693  -5.106  0.00  0.00     0.252 C 
BRANCH  11  12
ATOM     12  C8  NON d   1     -43.981  19.221  -5.097  0.00  0.00     0.150 C 
BRANCH  12  13
ATOM     13  N2  NON d   1     -44.984  18.227  -5.419  0.00  0.00    -0.354 N 
ATOM     14  C9  NON d   1     -45.269  17.232  -4.482  0.00  0.00     0.276 C 
ATOM     15  O2  NON d   1     -44.543  17.023  -3.514  0.00  0.00    -0.266 OA
ATOM     16  H15 NON d   1     -45.805  18.479  -5.967  0.00  0.00     0.162 HD
BRANCH  14  17
ATOM     17  C10 NON d   1     -46.516  16.523  -4.731  0.00  0.00     0.201 A 
ATOM     18  N3  NON d   1     -47.065  16.503  -5.957  0.00  0.00    -0.096 NA
ATOM     19  O3  NON d   1     -48.226  15.747  -5.810  0.00  0.00    -0.104 OA
ATOM     20  N4  NON d   1     -48.394  15.335  -4.498  0.00  0.00    -0.085 NA
ATOM     21  C11 NON d   1     -47.344  15.811  -3.833  0.00  0.00     0.188 A 
BRANCH  21  22
ATOM     22  N5  NON d   1     -47.138  15.641  -2.515  0.00  0.00    -0.380 N 
ATOM     23  H16 NON d   1     -46.838  14.757  -2.112  0.00  0.00     0.158 HD
ATOM     24  H17 NON d   1     -47.013  16.451  -1.916  0.00  0.00     0.158 HD
ENDBRANCH  21  22
ENDBRANCH  14  17
ENDBRANCH  12  13
ENDBRANCH  11  12
ENDBRANCH   8  11
ENDBRANCH   7   8
ENDBRANCH   3   7
BRANCH   1  25
ATOM     25  O1  NON d   1     -39.822  22.547  -4.565  0.00  0.00    -0.349 OA
BRANCH  25  26
ATOM     26  C2  NON d   1     -38.555  22.435  -5.177  0.00  0.00     0.171 C 
ATOM     27  C1  NON d   1     -38.189  23.295  -6.402  0.00  0.00     0.034 C 
ENDBRANCH  25  26
ENDBRANCH   1  25
BRANCH   6  28
ATOM     28  O4  NON d   1     -39.551  23.388  -1.678  0.00  0.00    -0.344 OA
BRANCH  28  29
ATOM     29  C15 NON d   1     -39.150  23.628  -0.322  0.00  0.00     0.216 C 
BRANCH  29  30
ATOM     30  C16 NON d   1     -39.973  24.551   0.583  0.00  0.00    -0.012 A 
ATOM     31  C17 NON d   1     -40.061  24.134   1.935  0.00  0.00     0.013 A 
ATOM     32  C18 NON d   1     -40.781  24.860   2.893  0.00  0.00     0.024 A 
ATOM     33  C19 NON d   1     -41.435  26.023   2.526  0.00  0.00     0.035 A 
ATOM     34 Cl1  NON d   1     -42.323  26.925   3.686  0.00  0.00    -0.084 Cl
ATOM     35  C20 NON d   1     -41.375  26.459   1.210  0.00  0.00     0.048 A 
ATOM     36  C21 NON d   1     -40.655  25.729   0.249  0.00  0.00     0.044 A 
ATOM     37 Cl2  NON d   1     -40.708  26.400  -1.318  0.00  0.00    -0.084 Cl
ENDBRANCH  29  30
ENDBRANCH  28  29
ENDBRANCH   6  28
TORSDOF 12
ENDMDL
MODEL 4
REMARK VINA RESULT:   -33.093      1.584      1.848
REMARK INTER + INTRA:         -39.665
REMARK INTER:                 -36.673
REMARK INTRA:                  -2.992
REMARK CONF_INDEPENDENT:        3.580
REMARK UNBOUND:                -2.992
REMARK  12 active torsions:
REMARK  status: ('A' for Active; 'I' for Inactive)
REMARK    1  A    between atoms: C2_2  and  O1_3 
REMARK    2  A    between atoms: O1_3  and  C3_4 
REMARK    3  A    between atoms: C5_6  and  C6_7 
REMARK    4  A    between atoms: C6_7  and  N1_8 
REMARK    5  A    between atoms: N1_8  and  C7_9 
REMARK    6  A    between atoms: C7_9  and  C8_10 
REMARK    7  A    between atoms: C8_10  and  N2_11 
REMARK       I    between atoms: N2_11  and  C9_12 
REMARK    8  A    between atoms: C9_12  and  C10_14 
REMARK    9  A    between atoms: C11_18  and  N5_19 
REMARK   10  A    between atoms: C14_22  and  O4_23 
REMARK   11  A    between atoms: O4_23  and  C15_24 
REMARK   12  A    between atoms: C15_24  and  C16_25 
ROOT
ATOM      1  C3  NON d   1     -39.884  21.254  -3.009  0.00  0.00     0.102 A 
ATOM      2  C4  NON d   1     -40.572  20.030  -3.176  0.00  0.00     0.048 A 
ATOM      3  C5  NON d   1     -39.996  18.784  -2.861  0.00  0.00    -0.030 A 
ATOM      4  C12 NON d   1     -38.691  18.792  -2.365  0.00  0.00     0.012 A 
ATOM      5  C13 NON d   1     -37.991  19.997  -2.188  0.00  0.00     0.040 A 
ATOM      6  C14 NON d   1     -38.556  21.245  -2.504  0.00  0.00     0.102 A 
ENDROOT
BRANCH   3   7
ATOM      7  C6  NON d   1     -40.835  17.535  -3.039  0.00  0.00     0.271 C 
BRANCH   7   8
ATOM      8  N1  NON d   1     -42.248  17.775  -3.479  0.00  0.00    -0.070 N 
ATOM      9  H9  NON d   1     -42.649  18.465  -2.835  0.00  0.00     0.277 HD
ATOM     10  H10 NON d   1     -42.780  16.903  -3.347  0.00  0.00     0.277 HD
BRANCH   8  11
ATOM     11  C7  NON d   1     -42.460  18.316  -4.865  0.00  0.00     0.252 C 
BRANCH  11  12
ATOM     12  C8  NON d   1     -43.825  18.986  -5.050  0.00  0.00     0.150 C 
BRANCH  12  13
ATOM     13  N2  NON d   1     -44.890  18.077  -5.419  0.00  0.00    -0.354 N 
ATOM     14  C9  NON d   1     -45.346  17.157  -4.473  0.00  0.00     0.276 C 
ATOM     15  O2  NON d   1     -44.725  16.925  -3.440  0.00  0.00    -0.266 OA
ATOM     16  H15 NON d   1     -45.635  18.379  -6.045  0.00  0.00     0.162 HD
BRANCH  14  17
ATOM     17  C10 NON d   1     -46.631  16.557  -4.801  0.00  0.00     0.201 A 
ATOM     18  N3  NON d   1     -47.064  16.504  -6.072  0.00  0.00    -0.096 NA
ATOM     19  O3  NON d   1     -48.305  15.878  -5.995  0.00  0.00    -0.104 OA
ATOM     20  N4  NON d   1     -48.637  15.578  -4.683  0.00  0.00    -0.085 NA
ATOM     21  C11 NON d   1     -47.609  15.995  -3.948  0.00  0.00     0.188 A 
BRANCH  21  22
ATOM     22  N5  NON d   1     -47.544  15.899  -2.608  0.00  0.00    -0.380 N 
ATOM     23  H16 NON d   1     -48.367  15.787  -2.022  0.00  0.00     0.158 HD
ATOM     24  H17 NON d   1     -46.663  15.663  -2.162  0.00  0.00     0.158 HD
ENDBRANCH  21  22
ENDBRANCH  14  17
ENDBRANCH  12  13
ENDBRANCH  11  12
ENDBRANCH   8  11
ENDBRANCH   7   8
ENDBRANCH   3   7
BRANCH   1  25
ATOM     25  O1  NON d   1     -40.678  22.333  -3.394  0.00  0.00    -0.349 OA
BRANCH  25  26
ATOM     26  C2  NON d   1     -40.115  23.588  -3.077  0.00  0.00     0.171 C 
ATOM     27  C1  NON d   1     -40.835  24.896  -3.456  0.00  0.00     0.034 C 
ENDBRANCH  25  26
ENDBRANCH   1  25
BRANCH   6  28
ATOM     28  O4  NON d   1     -37.851  22.427  -2.337  0.00  0.00    -0.344 OA
BRANCH  28  29
ATOM     29  C15 NON d   1     -37.545  22.865  -1.006  0.00  0.00     0.216 C 
BRANCH  29  30
ATOM     30  C16 NON d   1     -38.552  23.699  -0.209  0.00  0.00    -0.012 A 
ATOM     31  C17 NON d   1     -38.245  25.080  -0.123  0.00  0.00     0.013 A 
ATOM     32  C18 NON d   1     -39.058  25.983   0.575  0.00  0.00     0.024 A 
ATOM     33  C19 NON d   1     -40.202  25.530   1.209  0.00  0.00     0.035 A 
ATOM     34 Cl1  NON d   1     -41.210  26.621   2.070  0.00  0.00    -0.084 Cl
ATOM     35  C20 NON d   1     -40.532  24.183   1.151  0.00  0.00     0.048 A 
ATOM     36  C21 NON d   1     -39.714  23.278   0.453  0.00  0.00     0.044 A 
ATOM     37 Cl2  NON d   1     -40.260  21.663   0.505  0.00  0.00    -0.084 Cl
ENDBRANCH  29  30
ENDBRANCH  28  29
ENDBRANCH   6  28
TORSDOF 12
ENDMDL
MODEL 5
REMARK VINA RESULT:   -32.693      2.081      3.102
REMARK INTER + INTRA:         -39.468
REMARK INTER:                 -36.273
REMARK INTRA:                  -3.196
REMARK CONF_INDEPENDENT:        3.580
REMARK UNBOUND:                -3.196
REMARK  12 active torsions:
REMARK  status: ('A' for Active; 'I' for Inactive)
REMARK    1  A    between atoms: C2_2  and  O1_3 
REMARK    2  A    between atoms: O1_3  and  C3_4 
REMARK    3  A    between atoms: C5_6  and  C6_7 
REMARK    4  A    between atoms: C6_7  and  N1_8 
REMARK    5  A    between atoms: N1_8  and  C7_9 
REMARK    6  A    between atoms: C7_9  and  C8_10 
REMARK    7  A    between atoms: C8_10  and  N2_11 
REMARK       I    between atoms: N2_11  and  C9_12 
REMARK    8  A    between atoms: C9_12  and  C10_14 
REMARK    9  A    between atoms: C11_18  and  N5_19 
REMARK   10  A    between atoms: C14_22  and  O4_23 
REMARK   11  A    between atoms: O4_23  and  C15_24 
REMARK   12  A    between atoms: C15_24  and  C16_25 
ROOT
ATOM      1  C3  NON d   1     -38.138  19.658  -3.450  0.00  0.00     0.102 A 
ATOM      2  C4  NON d   1     -39.006  18.543  -3.493  0.00  0.00     0.048 A 
ATOM      3  C5  NON d   1     -40.143  18.430  -2.669  0.00  0.00    -0.030 A 
ATOM      4  C12 NON d   1     -40.396  19.481  -1.785  0.00  0.00     0.012 A 
ATOM      5  C13 NON d   1     -39.548  20.600  -1.728  0.00  0.00     0.040 A 
ATOM      6  C14 NON d   1     -38.409  20.719  -2.544  0.00  0.00     0.102 A 
ENDROOT
BRANCH   3   7
ATOM      7  C6  NON d   1     -41.029  17.212  -2.824  0.00  0.00     0.271 C 
BRANCH   7   8
ATOM      8  N1  NON d   1     -42.380  17.479  -3.417  0.00  0.00    -0.070 N 
ATOM      9  H9  NON d   1     -42.888  18.072  -2.751  0.00  0.00     0.277 HD
ATOM     10  H10 NON d   1     -42.893  16.587  -3.468  0.00  0.00     0.277 HD
BRANCH   8  11
ATOM     11  C7  NON d   1     -42.428  18.191  -4.739  0.00  0.00     0.252 C 
BRANCH  11  12
ATOM     12  C8  NON d   1     -43.797  18.804  -5.047  0.00  0.00     0.150 C 
BRANCH  12  13
ATOM     13  N2  NON d   1     -44.808  17.841  -5.431  0.00  0.00    -0.354 N 
ATOM     14  C9  NON d   1     -45.415  17.071  -4.437  0.00  0.00     0.276 C 
ATOM     15  O2  NON d   1     -44.959  17.003  -3.299  0.00  0.00    -0.266 OA
ATOM     16  H15 NON d   1     -45.448  18.040  -6.200  0.00  0.00     0.162 HD
BRANCH  14  17
ATOM     17  C10 NON d   1     -46.646  16.419  -4.860  0.00  0.00     0.201 A 
ATOM     18  N3  NON d   1     -47.069  16.504  -6.133  0.00  0.00    -0.096 NA
ATOM     19  O3  NON d   1     -48.255  15.773  -6.157  0.00  0.00    -0.104 OA
ATOM     20  N4  NON d   1     -48.563  15.272  -4.903  0.00  0.00    -0.085 NA
ATOM     21  C11 NON d   1     -47.575  15.668  -4.104  0.00  0.00     0.188 A 
BRANCH  21  22
ATOM     22  N5  NON d   1     -47.507  15.397  -2.789  0.00  0.00    -0.380 N 
ATOM     23  H16 NON d   1     -46.738  15.706  -2.200  0.00  0.00     0.158 HD
ATOM     24  H17 NON d   1     -48.343  15.111  -2.289  0.00  0.00     0.158 HD
ENDBRANCH  21  22
ENDBRANCH  14  17
ENDBRANCH  12  13
ENDBRANCH  11  12
ENDBRANCH   8  11
ENDBRANCH   7   8
ENDBRANCH   3   7
BRANCH   1  25
ATOM     25  O1  NON d   1     -37.095  19.519  -4.363  0.00  0.00    -0.349 OA
BRANCH  25  26
ATOM     26  C2  NON d   1     -37.043  18.245  -4.969  0.00  0.00     0.171 C 
ATOM     27  C1  NON d   1     -36.350  17.062  -4.266  0.00  0.00     0.034 C 
ENDBRANCH  25  26
ENDBRANCH   1  25
BRANCH   6  28
ATOM     28  O4  NON d   1     -37.572  21.822  -2.469  0.00  0.00    -0.344 OA
BRANCH  28  29
ATOM     29  C15 NON d   1     -38.159  23.130  -2.435  0.00  0.00     0.216 C 
BRANCH  29  30
ATOM     30  C16 NON d   1     -38.995  23.579  -1.232  0.00  0.00    -0.012 A 
ATOM     31  C17 NON d   1     -38.278  23.678  -0.014  0.00  0.00     0.013 A 
ATOM     32  C18 NON d   1     -38.893  24.068   1.183  0.00  0.00     0.024 A 
ATOM     33  C19 NON d   1     -40.244  24.369   1.196  0.00  0.00     0.035 A 
ATOM     34 Cl1  NON d   1     -41.015  24.848   2.654  0.00  0.00    -0.084 Cl
ATOM     35  C20 NON d   1     -40.979  24.279   0.023  0.00  0.00     0.048 A 
ATOM     36  C21 NON d   1     -40.362  23.885  -1.176  0.00  0.00     0.044 A 
ATOM     37 Cl2  NON d   1     -41.420  23.807  -2.512  0.00  0.00    -0.084 Cl
ENDBRANCH  29  30
ENDBRANCH  28  29
ENDBRANCH   6  28
TORSDOF 12
ENDMDL
MODEL 6
REMARK VINA RESULT:   -32.613      1.678      2.641
REMARK INTER + INTRA:         -39.384
REMARK INTER:                 -36.193
REMARK INTRA:                  -3.192
REMARK CONF_INDEPENDENT:        3.580
REMARK UNBOUND:                -3.192
REMARK  12 active torsions:
REMARK  status: ('A' for Active; 'I' for Inactive)
REMARK    1  A    between atoms: C2_2  and  O1_3 
REMARK    2  A    between atoms: O1_3  and  C3_4 
REMARK    3  A    between atoms: C5_6  and  C6_7 
REMARK    4  A    between atoms: C6_7  and  N1_8 
REMARK    5  A    between atoms: N1_8  and  C7_9 
REMARK    6  A    between atoms: C7_9  and  C8_10 
REMARK    7  A    between atoms: C8_10  and  N2_11 
REMARK       I    between atoms: N2_11  and  C9_12 
REMARK    8  A    between atoms: C9_12  and  C10_14 
REMARK    9  A    between atoms: C11_18  and  N5_19 
REMARK   10  A    between atoms: C14_22  and  O4_23 
REMARK   11  A    between atoms: O4_23  and  C15_24 
REMARK   12  A    between atoms: C15_24  and  C16_25 
ROOT
ATOM      1  C3  NON d   1     -39.119  21.564  -1.833  0.00  0.00     0.102 A 
ATOM      2  C4  NON d   1     -39.564  20.236  -2.029  0.00  0.00     0.048 A 
ATOM      3  C5  NON d   1     -40.610  19.907  -2.913  0.00  0.00    -0.030 A 
ATOM      4  C12 NON d   1     -41.210  20.957  -3.611  0.00  0.00     0.012 A 
ATOM      5  C13 NON d   1     -40.780  22.283  -3.433  0.00  0.00     0.040 A 
ATOM      6  C14 NON d   1     -39.740  22.622  -2.550  0.00  0.00     0.102 A 
ENDROOT
BRANCH   3   7
ATOM      7  C6  NON d   1     -40.983  18.449  -3.079  0.00  0.00     0.271 C 
BRANCH   7   8
ATOM      8  N1  NON d   1     -42.332  18.201  -3.685  0.00  0.00    -0.070 N 
ATOM      9  H9  NON d   1     -43.027  18.588  -3.036  0.00  0.00     0.277 HD
ATOM     10  H10 NON d   1     -42.491  17.184  -3.716  0.00  0.00     0.277 HD
BRANCH   8  11
ATOM     11  C7  NON d   1     -42.614  18.820  -5.025  0.00  0.00     0.252 C 
BRANCH  11  12
ATOM     12  C8  NON d   1     -44.058  19.309  -5.174  0.00  0.00     0.150 C 
BRANCH  12  13
ATOM     13  N2  NON d   1     -45.016  18.263  -5.461  0.00  0.00    -0.354 N 
ATOM     14  C9  NON d   1     -45.332  17.346  -4.456  0.00  0.00     0.276 C 
ATOM     15  O2  NON d   1     -44.659  17.244  -3.434  0.00  0.00    -0.266 OA
ATOM     16  H15 NON d   1     -45.810  18.441  -6.075  0.00  0.00     0.162 HD
BRANCH  14  17
ATOM     17  C10 NON d   1     -46.545  16.583  -4.710  0.00  0.00     0.201 A 
ATOM     18  N3  NON d   1     -47.065  16.505  -5.947  0.00  0.00    -0.096 NA
ATOM     19  O3  NON d   1     -48.199  15.709  -5.801  0.00  0.00    -0.104 OA
ATOM     20  N4  NON d   1     -48.381  15.330  -4.481  0.00  0.00    -0.085 NA
ATOM     21  C11 NON d   1     -47.366  15.866  -3.809  0.00  0.00     0.188 A 
BRANCH  21  22
ATOM     22  N5  NON d   1     -47.183  15.743  -2.482  0.00  0.00    -0.380 N 
ATOM     23  H16 NON d   1     -46.847  14.888  -2.047  0.00  0.00     0.158 HD
ATOM     24  H17 NON d   1     -47.116  16.576  -1.903  0.00  0.00     0.158 HD
ENDBRANCH  21  22
ENDBRANCH  14  17
ENDBRANCH  12  13
ENDBRANCH  11  12
ENDBRANCH   8  11
ENDBRANCH   7   8
ENDBRANCH   3   7
BRANCH   1  25
ATOM     25  O1  NON d   1     -38.077  21.613  -0.909  0.00  0.00    -0.349 OA
BRANCH  25  26
ATOM     26  C2  NON d   1     -38.498  21.430   0.426  0.00  0.00     0.171 C 
ATOM     27  C1  NON d   1     -39.377  22.480   1.129  0.00  0.00     0.034 C 
ENDBRANCH  25  26
ENDBRANCH   1  25
BRANCH   6  28
ATOM     28  O4  NON d   1     -39.333  23.936  -2.373  0.00  0.00    -0.344 OA
BRANCH  28  29
ATOM     29  C15 NON d   1     -40.291  24.896  -1.905  0.00  0.00     0.216 C 
BRANCH  29  30
ATOM     30  C16 NON d   1     -40.262  25.381  -0.453  0.00  0.00    -0.012 A 
ATOM     31  C17 NON d   1     -41.521  25.380   0.200  0.00  0.00     0.013 A 
ATOM     32  C18 NON d   1     -41.673  25.800   1.527  0.00  0.00     0.024 A 
ATOM     33  C19 NON d   1     -40.570  26.235   2.241  0.00  0.00     0.035 A 
ATOM     34 Cl1  NON d   1     -40.736  26.755   3.869  0.00  0.00    -0.084 Cl
ATOM     35  C20 NON d   1     -39.322  26.256   1.634  0.00  0.00     0.048 A 
ATOM     36  C21 NON d   1     -39.172  25.836   0.301  0.00  0.00     0.044 A 
ATOM     37 Cl2  NON d   1     -37.575  25.949  -0.289  0.00  0.00    -0.084 Cl
ENDBRANCH  29  30
ENDBRANCH  28  29
ENDBRANCH   6  28
TORSDOF 12
ENDMDL
MODEL 7
REMARK VINA RESULT:   -32.578      4.192      5.716
REMARK INTER + INTRA:         -40.169
REMARK INTER:                 -36.158
REMARK INTRA:                  -4.012
REMARK CONF_INDEPENDENT:        3.580
REMARK UNBOUND:                -4.012
REMARK  12 active torsions:
REMARK  status: ('A' for Active; 'I' for Inactive)
REMARK    1  A    between atoms: C2_2  and  O1_3 
REMARK    2  A    between atoms: O1_3  and  C3_4 
REMARK    3  A    between atoms: C5_6  and  C6_7 
REMARK    4  A    between atoms: C6_7  and  N1_8 
REMARK    5  A    between atoms: N1_8  and  C7_9 
REMARK    6  A    between atoms: C7_9  and  C8_10 
REMARK    7  A    between atoms: C8_10  and  N2_11 
REMARK       I    between atoms: N2_11  and  C9_12 
REMARK    8  A    between atoms: C9_12  and  C10_14 
REMARK    9  A    between atoms: C11_18  and  N5_19 
REMARK   10  A    between atoms: C14_22  and  O4_23 
REMARK   11  A    between atoms: O4_23  and  C15_24 
REMARK   12  A    between atoms: C15_24  and  C16_25 
ROOT
ATOM      1  C3  NON d   1     -38.891  20.687  -3.575  0.00  0.00     0.102 A 
ATOM      2  C4  NON d   1     -40.011  20.090  -2.953  0.00  0.00     0.048 A 
ATOM      3  C5  NON d   1     -40.215  18.696  -2.927  0.00  0.00    -0.030 A 
ATOM      4  C12 NON d   1     -39.250  17.899  -3.547  0.00  0.00     0.012 A 
ATOM      5  C13 NON d   1     -38.127  18.472  -4.167  0.00  0.00     0.040 A 
ATOM      6  C14 NON d   1     -37.918  19.862  -4.203  0.00  0.00     0.102 A 
ENDROOT
BRANCH   3   7
ATOM      7  C6  NON d   1     -41.428  18.157  -2.199  0.00  0.00     0.271 C 
BRANCH   7   8
ATOM      8  N1  NON d   1     -42.612  17.860  -3.069  0.00  0.00    -0.070 N 
ATOM      9  H9  NON d   1     -43.412  18.362  -2.669  0.00  0.00     0.277 HD
ATOM     10  H10 NON d   1     -42.826  16.855  -2.992  0.00  0.00     0.277 HD
BRANCH   8  11
ATOM     11  C7  NON d   1     -42.533  18.272  -4.512  0.00  0.00     0.252 C 
BRANCH  11  12
ATOM     12  C8  NON d   1     -43.842  18.862  -5.045  0.00  0.00     0.150 C 
BRANCH  12  13
ATOM     13  N2  NON d   1     -44.825  17.875  -5.437  0.00  0.00    -0.354 N 
ATOM     14  C9  NON d   1     -45.411  17.081  -4.448  0.00  0.00     0.276 C 
ATOM     15  O2  NON d   1     -44.954  17.017  -3.310  0.00  0.00    -0.266 OA
ATOM     16  H15 NON d   1     -45.469  18.060  -6.205  0.00  0.00     0.162 HD
BRANCH  14  17
ATOM     17  C10 NON d   1     -46.623  16.397  -4.877  0.00  0.00     0.201 A 
ATOM     18  N3  NON d   1     -47.065  16.506  -6.141  0.00  0.00    -0.096 NA
ATOM     19  O3  NON d   1     -48.224  15.734  -6.175  0.00  0.00    -0.104 OA
ATOM     20  N4  NON d   1     -48.498  15.183  -4.933  0.00  0.00    -0.085 NA
ATOM     21  C11 NON d   1     -47.514  15.590  -4.134  0.00  0.00     0.188 A 
BRANCH  21  22
ATOM     22  N5  NON d   1     -47.419  15.281  -2.829  0.00  0.00    -0.380 N 
ATOM     23  H16 NON d   1     -47.488  14.328  -2.480  0.00  0.00     0.158 HD
ATOM     24  H17 NON d   1     -47.008  15.947  -2.182  0.00  0.00     0.158 HD
ENDBRANCH  21  22
ENDBRANCH  14  17
ENDBRANCH  12  13
ENDBRANCH  11  12
ENDBRANCH   8  11
ENDBRANCH   7   8
ENDBRANCH   3   7
BRANCH   1  25
ATOM     25  O1  NON d   1     -38.932  22.075  -3.459  0.00  0.00    -0.349 OA
BRANCH  25  26
ATOM     26  C2  NON d   1     -39.323  22.729  -4.647  0.00  0.00     0.171 C 
ATOM     27  C1  NON d   1     -40.664  23.483  -4.730  0.00  0.00     0.034 C 
ENDBRANCH  25  26
ENDBRANCH   1  25
BRANCH   6  28
ATOM     28  O4  NON d   1     -36.813  20.416  -4.829  0.00  0.00    -0.344 OA
BRANCH  28  29
ATOM     29  C15 NON d   1     -36.707  20.315  -6.256  0.00  0.00     0.216 C 
BRANCH  29  30
ATOM     30  C16 NON d   1     -37.665  21.091  -7.166  0.00  0.00    -0.012 A 
ATOM     31  C17 NON d   1     -37.313  22.447  -7.382  0.00  0.00     0.013 A 
ATOM     32  C18 NON d   1     -38.085  23.299  -8.182  0.00  0.00     0.024 A 
ATOM     33  C19 NON d   1     -39.233  22.819  -8.790  0.00  0.00     0.035 A 
ATOM     34 Cl1  NON d   1     -40.192  23.848  -9.774  0.00  0.00    -0.084 Cl
ATOM     35  C20 NON d   1     -39.611  21.498  -8.597  0.00  0.00     0.048 A 
ATOM     36  C21 NON d   1     -38.838  20.645  -7.791  0.00  0.00     0.044 A 
ATOM     37 Cl2  NON d   1     -39.463  19.064  -7.649  0.00  0.00    -0.084 Cl
ENDBRANCH  29  30
ENDBRANCH  28  29
ENDBRANCH   6  28
TORSDOF 12
ENDMDL
MODEL 8
REMARK VINA RESULT:   -32.432      2.546      3.178
REMARK INTER + INTRA:         -39.143
REMARK INTER:                 -36.012
REMARK INTRA:                  -3.132
REMARK CONF_INDEPENDENT:        3.580
REMARK UNBOUND:                -3.132
REMARK  12 active torsions:
REMARK  status: ('A' for Active; 'I' for Inactive)
REMARK    1  A    between atoms: C2_2  and  O1_3 
REMARK    2  A    between atoms: O1_3  and  C3_4 
REMARK    3  A    between atoms: C5_6  and  C6_7 
REMARK    4  A    between atoms: C6_7  and  N1_8 
REMARK    5  A    between atoms: N1_8  and  C7_9 
REMARK    6  A    between atoms: C7_9  and  C8_10 
REMARK    7  A    between atoms: C8_10  and  N2_11 
REMARK       I    between atoms: N2_11  and  C9_12 
REMARK    8  A    between atoms: C9_12  and  C10_14 
REMARK    9  A    between atoms: C11_18  and  N5_19 
REMARK   10  A    between atoms: C14_22  and  O4_23 
REMARK   11  A    between atoms: O4_23  and  C15_24 
REMARK   12  A    between atoms: C15_24  and  C16_25 
ROOT
ATOM      1  C3  NON d   1     -39.219  20.854  -4.125  0.00  0.00     0.102 A 
ATOM      2  C4  NON d   1     -40.126  19.781  -3.962  0.00  0.00     0.048 A 
ATOM      3  C5  NON d   1     -39.813  18.625  -3.220  0.00  0.00    -0.030 A 
ATOM      4  C12 NON d   1     -38.548  18.569  -2.631  0.00  0.00     0.012 A 
ATOM      5  C13 NON d   1     -37.634  19.625  -2.778  0.00  0.00     0.040 A 
ATOM      6  C14 NON d   1     -37.936  20.780  -3.520  0.00  0.00     0.102 A 
ENDROOT
BRANCH   3   7
ATOM      7  C6  NON d   1     -40.871  17.552  -3.074  0.00  0.00     0.271 C 
BRANCH   7   8
ATOM      8  N1  NON d   1     -42.268  17.986  -3.407  0.00  0.00    -0.070 N 
ATOM      9  H9  NON d   1     -42.483  18.789  -2.805  0.00  0.00     0.277 HD
ATOM     10  H10 NON d   1     -42.914  17.232  -3.134  0.00  0.00     0.277 HD
BRANCH   8  11
ATOM     11  C7  NON d   1     -42.539  18.428  -4.817  0.00  0.00     0.252 C 
BRANCH  11  12
ATOM     12  C8  NON d   1     -43.934  19.030  -5.004  0.00  0.00     0.150 C 
BRANCH  12  13
ATOM     13  N2  NON d   1     -44.941  18.081  -5.432  0.00  0.00    -0.354 N 
ATOM     14  C9  NON d   1     -45.338  17.077  -4.546  0.00  0.00     0.276 C 
ATOM     15  O2  NON d   1     -44.702  16.821  -3.527  0.00  0.00    -0.266 OA
ATOM     16  H15 NON d   1     -45.705  18.374  -6.040  0.00  0.00     0.162 HD
BRANCH  14  17
ATOM     17  C10 NON d   1     -46.583  16.420  -4.914  0.00  0.00     0.201 A 
ATOM     18  N3  NON d   1     -47.065  16.505  -6.165  0.00  0.00    -0.096 NA
ATOM     19  O3  NON d   1     -48.247  15.770  -6.137  0.00  0.00    -0.104 OA
ATOM     20  N4  NON d   1     -48.496  15.265  -4.871  0.00  0.00    -0.085 NA
ATOM     21  C11 NON d   1     -47.474  15.664  -4.118  0.00  0.00     0.188 A 
BRANCH  21  22
ATOM     22  N5  NON d   1     -47.344  15.390  -2.808  0.00  0.00    -0.380 N 
ATOM     23  H16 NON d   1     -46.459  15.460  -2.313  0.00  0.00     0.158 HD
ATOM     24  H17 NON d   1     -48.168  15.368  -2.213  0.00  0.00     0.158 HD
ENDBRANCH  21  22
ENDBRANCH  14  17
ENDBRANCH  12  13
ENDBRANCH  11  12
ENDBRANCH   8  11
ENDBRANCH   7   8
ENDBRANCH   3   7
BRANCH   1  25
ATOM     25  O1  NON d   1     -39.776  21.868  -4.901  0.00  0.00    -0.349 OA
BRANCH  25  26
ATOM     26  C2  NON d   1     -39.374  21.828  -6.253  0.00  0.00     0.171 C 
ATOM     27  C1  NON d   1     -40.174  21.020  -7.293  0.00  0.00     0.034 C 
ENDBRANCH  25  26
ENDBRANCH   1  25
BRANCH   6  28
ATOM     28  O4  NON d   1     -37.020  21.811  -3.668  0.00  0.00    -0.344 OA
BRANCH  28  29
ATOM     29  C15 NON d   1     -37.064  22.909  -2.747  0.00  0.00     0.216 C 
BRANCH  29  30
ATOM     30  C16 NON d   1     -38.256  23.870  -2.736  0.00  0.00    -0.012 A 
ATOM     31  C17 NON d   1     -38.060  25.070  -3.464  0.00  0.00     0.013 A 
ATOM     32  C18 NON d   1     -39.048  26.060  -3.550  0.00  0.00     0.024 A 
ATOM     33  C19 NON d   1     -40.261  25.878  -2.909  0.00  0.00     0.035 A 
ATOM     34 Cl1  NON d   1     -41.483  27.081  -3.002  0.00  0.00    -0.084 Cl
ATOM     35  C20 NON d   1     -40.487  24.719  -2.181  0.00  0.00     0.048 A 
ATOM     36  C21 NON d   1     -39.494  23.728  -2.093  0.00  0.00     0.044 A 
ATOM     37 Cl2  NON d   1     -39.936  22.382  -1.142  0.00  0.00    -0.084 Cl
ENDBRANCH  29  30
ENDBRANCH  28  29
ENDBRANCH   6  28
TORSDOF 12
ENDMDL
MODEL 9
REMARK VINA RESULT:   -32.413      3.170      5.119
REMARK INTER + INTRA:         -39.582
REMARK INTER:                 -35.993
REMARK INTRA:                  -3.589
REMARK CONF_INDEPENDENT:        3.580
REMARK UNBOUND:                -3.589
REMARK  12 active torsions:
REMARK  status: ('A' for Active; 'I' for Inactive)
REMARK    1  A    between atoms: C2_2  and  O1_3 
REMARK    2  A    between atoms: O1_3  and  C3_4 
REMARK    3  A    between atoms: C5_6  and  C6_7 
REMARK    4  A    between atoms: C6_7  and  N1_8 
REMARK    5  A    between atoms: N1_8  and  C7_9 
REMARK    6  A    between atoms: C7_9  and  C8_10 
REMARK    7  A    between atoms: C8_10  and  N2_11 
REMARK       I    between atoms: N2_11  and  C9_12 
REMARK    8  A    between atoms: C9_12  and  C10_14 
REMARK    9  A    between atoms: C11_18  and  N5_19 
REMARK   10  A    between atoms: C14_22  and  O4_23 
REMARK   11  A    between atoms: O4_23  and  C15_24 
REMARK   12  A    between atoms: C15_24  and  C16_25 
ROOT
ATOM      1  C3  NON d   1     -37.971  19.524  -2.944  0.00  0.00     0.102 A 
ATOM      2  C4  NON d   1     -38.839  18.409  -2.996  0.00  0.00     0.048 A 
ATOM      3  C5  NON d   1     -40.177  18.464  -2.557  0.00  0.00    -0.030 A 
ATOM      4  C12 NON d   1     -40.634  19.685  -2.058  0.00  0.00     0.012 A 
ATOM      5  C13 NON d   1     -39.790  20.806  -2.001  0.00  0.00     0.040 A 
ATOM      6  C14 NON d   1     -38.452  20.759  -2.432  0.00  0.00     0.102 A 
ENDROOT
BRANCH   3   7
ATOM      7  C6  NON d   1     -41.033  17.222  -2.694  0.00  0.00     0.271 C 
BRANCH   7   8
ATOM      8  N1  NON d   1     -42.364  17.436  -3.351  0.00  0.00    -0.070 N 
ATOM      9  H9  NON d   1     -42.909  18.046  -2.732  0.00  0.00     0.277 HD
ATOM     10  H10 NON d   1     -42.857  16.532  -3.384  0.00  0.00     0.277 HD
BRANCH   8  11
ATOM     11  C7  NON d   1     -42.372  18.089  -4.704  0.00  0.00     0.252 C 
BRANCH  11  12
ATOM     12  C8  NON d   1     -43.693  18.792  -5.028  0.00  0.00     0.150 C 
BRANCH  12  13
ATOM     13  N2  NON d   1     -44.784  17.895  -5.343  0.00  0.00    -0.354 N 
ATOM     14  C9  NON d   1     -45.397  17.192  -4.304  0.00  0.00     0.276 C 
ATOM     15  O2  NON d   1     -44.897  17.118  -3.185  0.00  0.00    -0.266 OA
ATOM     16  H15 NON d   1     -45.442  18.120  -6.088  0.00  0.00     0.162 HD
BRANCH  14  17
ATOM     17  C10 NON d   1     -46.688  16.618  -4.657  0.00  0.00     0.201 A 
ATOM     18  N3  NON d   1     -47.065  16.505  -5.941  0.00  0.00    -0.096 NA
ATOM     19  O3  NON d   1     -48.331  15.927  -5.886  0.00  0.00    -0.104 OA
ATOM     20  N4  NON d   1     -48.731  15.716  -4.576  0.00  0.00    -0.085 NA
ATOM     21  C11 NON d   1     -47.722  16.140  -3.819  0.00  0.00     0.188 A 
BRANCH  21  22
ATOM     22  N5  NON d   1     -47.721  16.121  -2.475  0.00  0.00    -0.380 N 
ATOM     23  H16 NON d   1     -46.869  16.077  -1.923  0.00  0.00     0.158 HD
ATOM     24  H17 NON d   1     -48.548  16.420  -1.966  0.00  0.00     0.158 HD
ENDBRANCH  21  22
ENDBRANCH  14  17
ENDBRANCH  12  13
ENDBRANCH  11  12
ENDBRANCH   8  11
ENDBRANCH   7   8
ENDBRANCH   3   7
BRANCH   1  25
ATOM     25  O1  NON d   1     -36.709  19.201  -3.436  0.00  0.00    -0.349 OA
BRANCH  25  26
ATOM     26  C2  NON d   1     -36.703  18.890  -4.813  0.00  0.00     0.171 C 
ATOM     27  C1  NON d   1     -38.002  18.933  -5.639  0.00  0.00     0.034 C 
ENDBRANCH  25  26
ENDBRANCH   1  25
BRANCH   6  28
ATOM     28  O4  NON d   1     -37.624  21.869  -2.359  0.00  0.00    -0.344 OA
BRANCH  28  29
ATOM     29  C15 NON d   1     -37.617  22.796  -3.453  0.00  0.00     0.216 C 
BRANCH  29  30
ATOM     30  C16 NON d   1     -38.334  22.461  -4.764  0.00  0.00    -0.012 A 
ATOM     31  C17 NON d   1     -37.479  22.094  -5.833  0.00  0.00     0.013 A 
ATOM     32  C18 NON d   1     -37.971  21.763  -7.102  0.00  0.00     0.024 A 
ATOM     33  C19 NON d   1     -39.334  21.791  -7.340  0.00  0.00     0.035 A 
ATOM     34 Cl1  NON d   1     -39.956  21.390  -8.889  0.00  0.00    -0.084 Cl
ATOM     35  C20 NON d   1     -40.202  22.150  -6.319  0.00  0.00     0.048 A 
ATOM     36  C21 NON d   1     -39.707  22.485  -5.047  0.00  0.00     0.044 A 
ATOM     37 Cl2  NON d   1     -40.913  22.921  -3.922  0.00  0.00    -0.084 Cl
ENDBRANCH  29  30
ENDBRANCH  28  29
ENDBRANCH   6  28
TORSDOF 12
ENDMDL
