MODEL 1
REMARK VINA RESULT:   -31.211      0.000      0.000
REMARK INTER + INTRA:         -33.027
REMARK INTER:                 -32.404
REMARK INTRA:                  -0.622
REMARK CONF_INDEPENDENT:        1.193
REMARK UNBOUND:                -0.622
REMARK  4 active torsions:
REMARK  status: ('A' for Active; 'I' for Inactive)
REMARK    1  A    between atoms: N4_9  and  C4_8 
REMARK    2  A    between atoms: N5_10  and  C5_11 
REMARK    3  A    between atoms: C5_11  and  C6_12 
REMARK    4  A    between atoms: C10_16  and  N6_17 
ROOT
ATOM      1  N4  NON d   1     -42.931  17.743  -4.316  0.00  0.00     0.041 NA
ATOM      2  N5  NON d   1     -42.208  17.391  -3.356  0.00  0.00    -0.172 NA
ENDROOT
BRANCH   1   3
ATOM      3  C4  NON d   1     -44.199  17.255  -4.299  0.00  0.00     0.769 A 
ATOM      4  N3  NON d   1     -44.887  16.842  -5.390  0.00  0.00    -0.037 NA
ATOM      5  C3  NON d   1     -46.138  16.563  -4.988  0.00  0.00     0.204 A 
ATOM      6  N2  NON d   1     -47.131  16.130  -5.810  0.00  0.00    -0.221 NA
ATOM      7  C12 NON d   1     -46.215  16.818  -3.627  0.00  0.00     0.192 A 
ATOM      8  C2  NON d   1     -48.237  15.975  -5.165  0.00  0.00     0.212 A 
ATOM      9  N1  NON d   1     -48.438  16.194  -3.823  0.00  0.00    -0.316 N 
ATOM     10  C1  NON d   1     -47.459  16.628  -2.936  0.00  0.00     0.279 A 
ATOM     11  H1  NON d   1     -49.341  16.050  -3.406  0.00  0.00     0.170 HD
ATOM     12  O1  NON d   1     -47.794  16.780  -1.756  0.00  0.00    -0.265 OA
ATOM     13  N7  NON d   1     -44.998  17.247  -3.204  0.00  0.00    -0.050 NA
ENDBRANCH   1   3
BRANCH   2  14
ATOM     14  C5  NON d   1     -40.893  18.034  -3.410  0.00  0.00     0.212 C 
BRANCH  14  15
ATOM     15  C6  NON d   1     -40.736  19.081  -4.497  0.00  0.00    -0.034 A 
ATOM     16  C7  NON d   1     -40.699  20.455  -4.214  0.00  0.00     0.009 A 
ATOM     17  C8  NON d   1     -40.511  21.395  -5.230  0.00  0.00     0.003 A 
ATOM     18  C9  NON d   1     -40.347  20.976  -6.549  0.00  0.00     0.036 A 
ATOM     19  C10 NON d   1     -40.373  19.607  -6.839  0.00  0.00     0.103 A 
ATOM     20  C11 NON d   1     -40.563  18.660  -5.825  0.00  0.00     0.045 A 
BRANCH  19  21
ATOM     21  N6  NON d   1     -40.188  19.158  -8.223  0.00  0.00    -0.116 N 
ATOM     22  O2  NON d   1     -39.532  18.124  -8.412  0.00  0.00    -0.532 OA
ATOM     23  O3  NON d   1     -40.697  19.834  -9.130  0.00  0.00    -0.532 OA
ENDBRANCH  19  21
ENDBRANCH  14  15
ENDBRANCH   2  14
TORSDOF 4
ENDMDL
MODEL 2
REMARK VINA RESULT:   -30.154      1.437      1.879
REMARK INTER + INTRA:         -31.801
REMARK INTER:                 -31.348
REMARK INTRA:                  -0.453
REMARK CONF_INDEPENDENT:        1.193
REMARK UNBOUND:                -0.453
REMARK  4 active torsions:
REMARK  status: ('A' for Active; 'I' for Inactive)
REMARK    1  A    between atoms: N4_9  and  C4_8 
REMARK    2  A    between atoms: N5_10  and  C5_11 
REMARK    3  A    between atoms: C5_11  and  C6_12 
REMARK    4  A    between atoms: C10_16  and  N6_17 
ROOT
ATOM      1  N4  NON d   1     -42.876  17.456  -4.307  0.00  0.00     0.041 NA
ATOM      2  N5  NON d   1     -42.573  18.212  -5.259  0.00  0.00    -0.172 NA
ENDROOT
BRANCH   1   3
ATOM      3  C4  NON d   1     -44.165  17.029  -4.293  0.00  0.00     0.769 A 
ATOM      4  N3  NON d   1     -44.890  16.710  -5.393  0.00  0.00    -0.037 NA
ATOM      5  C3  NON d   1     -46.146  16.469  -4.983  0.00  0.00     0.204 A 
ATOM      6  N2  NON d   1     -47.171  16.130  -5.810  0.00  0.00    -0.221 NA
ATOM      7  C12 NON d   1     -46.190  16.652  -3.609  0.00  0.00     0.192 A 
ATOM      8  C2  NON d   1     -48.273  15.993  -5.154  0.00  0.00     0.212 A 
ATOM      9  N1  NON d   1     -48.443  16.148  -3.799  0.00  0.00    -0.316 N 
ATOM     10  C1  NON d   1     -47.431  16.485  -2.908  0.00  0.00     0.279 A 
ATOM     11  H1  NON d   1     -49.346  16.024  -3.374  0.00  0.00     0.170 HD
ATOM     12  O1  NON d   1     -47.739  16.588  -1.715  0.00  0.00    -0.265 OA
ATOM     13  N7  NON d   1     -44.947  16.999  -3.186  0.00  0.00    -0.050 NA
ENDBRANCH   1   3
BRANCH   2  14
ATOM     14  C5  NON d   1     -41.147  18.549  -5.243  0.00  0.00     0.212 C 
BRANCH  14  15
ATOM     15  C6  NON d   1     -40.629  19.202  -6.510  0.00  0.00    -0.034 A 
ATOM     16  C7  NON d   1     -41.289  20.278  -7.124  0.00  0.00     0.009 A 
ATOM     17  C8  NON d   1     -40.766  20.887  -8.267  0.00  0.00     0.003 A 
ATOM     18  C9  NON d   1     -39.566  20.437  -8.813  0.00  0.00     0.036 A 
ATOM     19  C10 NON d   1     -38.895  19.371  -8.202  0.00  0.00     0.103 A 
ATOM     20  C11 NON d   1     -39.415  18.755  -7.057  0.00  0.00     0.045 A 
BRANCH  19  21
ATOM     21  N6  NON d   1     -37.625  18.900  -8.763  0.00  0.00    -0.116 N 
ATOM     22  O2  NON d   1     -37.204  19.459  -9.786  0.00  0.00    -0.532 OA
ATOM     23  O3  NON d   1     -37.039  17.970  -8.187  0.00  0.00    -0.532 OA
ENDBRANCH  19  21
ENDBRANCH  14  15
ENDBRANCH   2  14
TORSDOF 4
ENDMDL
MODEL 3
REMARK VINA RESULT:   -29.894      1.638      2.206
REMARK INTER + INTRA:         -31.558
REMARK INTER:                 -31.087
REMARK INTRA:                  -0.471
REMARK CONF_INDEPENDENT:        1.193
REMARK UNBOUND:                -0.471
REMARK  4 active torsions:
REMARK  status: ('A' for Active; 'I' for Inactive)
REMARK    1  A    between atoms: N4_9  and  C4_8 
REMARK    2  A    between atoms: N5_10  and  C5_11 
REMARK    3  A    between atoms: C5_11  and  C6_12 
REMARK    4  A    between atoms: C10_16  and  N6_17 
ROOT
ATOM      1  N4  NON d   1     -42.809  17.486  -4.250  0.00  0.00     0.041 NA
ATOM      2  N5  NON d   1     -42.549  18.495  -4.945  0.00  0.00    -0.172 NA
ENDROOT
BRANCH   1   3
ATOM      3  C4  NON d   1     -44.110  17.097  -4.253  0.00  0.00     0.769 A 
ATOM      4  N3  NON d   1     -44.798  16.694  -5.348  0.00  0.00    -0.037 NA
ATOM      5  C3  NON d   1     -46.077  16.529  -4.975  0.00  0.00     0.204 A 
ATOM      6  N2  NON d   1     -47.078  16.140  -5.810  0.00  0.00    -0.221 NA
ATOM      7  C12 NON d   1     -46.173  16.845  -3.628  0.00  0.00     0.192 A 
ATOM      8  C2  NON d   1     -48.210  16.097  -5.194  0.00  0.00     0.212 A 
ATOM      9  N1  NON d   1     -48.431  16.386  -3.868  0.00  0.00    -0.316 N 
ATOM     10  C1  NON d   1     -47.447  16.780  -2.970  0.00  0.00     0.279 A 
ATOM     11  H1  NON d   1     -49.354  16.330  -3.474  0.00  0.00     0.170 HD
ATOM     12  O1  NON d   1     -47.801  17.006  -1.807  0.00  0.00    -0.265 OA
ATOM     13  N7  NON d   1     -44.939  17.196  -3.184  0.00  0.00    -0.050 NA
ENDBRANCH   1   3
BRANCH   2  14
ATOM     14  C5  NON d   1     -41.114  18.786  -4.954  0.00  0.00     0.212 C 
BRANCH  14  15
ATOM     15  C6  NON d   1     -40.574  19.310  -6.271  0.00  0.00    -0.034 A 
ATOM     16  C7  NON d   1     -40.035  18.462  -7.251  0.00  0.00     0.009 A 
ATOM     17  C8  NON d   1     -39.583  18.968  -8.472  0.00  0.00     0.003 A 
ATOM     18  C9  NON d   1     -39.670  20.332  -8.740  0.00  0.00     0.036 A 
ATOM     19  C10 NON d   1     -40.216  21.185  -7.772  0.00  0.00     0.103 A 
ATOM     20  C11 NON d   1     -40.668  20.684  -6.545  0.00  0.00     0.045 A 
BRANCH  19  21
ATOM     21  N6  NON d   1     -40.322  22.620  -8.052  0.00  0.00    -0.116 N 
ATOM     22  O2  NON d   1     -40.259  23.401  -7.092  0.00  0.00    -0.532 OA
ATOM     23  O3  NON d   1     -40.470  22.978  -9.231  0.00  0.00    -0.532 OA
ENDBRANCH  19  21
ENDBRANCH  14  15
ENDBRANCH   2  14
TORSDOF 4
ENDMDL
MODEL 4
REMARK VINA RESULT:   -29.638      1.777      2.178
REMARK INTER + INTRA:         -31.371
REMARK INTER:                 -30.832
REMARK INTRA:                  -0.540
REMARK CONF_INDEPENDENT:        1.193
REMARK UNBOUND:                -0.540
REMARK  4 active torsions:
REMARK  status: ('A' for Active; 'I' for Inactive)
REMARK    1  A    between atoms: N4_9  and  C4_8 
REMARK    2  A    between atoms: N5_10  and  C5_11 
REMARK    3  A    between atoms: C5_11  and  C6_12 
REMARK    4  A    between atoms: C10_16  and  N6_17 
ROOT
ATOM      1  N4  NON d   1     -42.732  17.443  -4.426  0.00  0.00     0.041 NA
ATOM      2  N5  NON d   1     -42.226  17.773  -3.328  0.00  0.00    -0.172 NA
ENDROOT
BRANCH   1   3
ATOM      3  C4  NON d   1     -44.039  17.077  -4.376  0.00  0.00     0.769 A 
ATOM      4  N3  NON d   1     -44.769  16.657  -5.437  0.00  0.00    -0.037 NA
ATOM      5  C3  NON d   1     -46.038  16.523  -5.018  0.00  0.00     0.204 A 
ATOM      6  N2  NON d   1     -47.071  16.130  -5.810  0.00  0.00    -0.221 NA
ATOM      7  C12 NON d   1     -46.083  16.876  -3.678  0.00  0.00     0.192 A 
ATOM      8  C2  NON d   1     -48.183  16.122  -5.157  0.00  0.00     0.212 A 
ATOM      9  N1  NON d   1     -48.356  16.451  -3.833  0.00  0.00    -0.316 N 
ATOM     10  C1  NON d   1     -47.336  16.851  -2.977  0.00  0.00     0.279 A 
ATOM     11  H1  NON d   1     -49.266  16.420  -3.408  0.00  0.00     0.170 HD
ATOM     12  O1  NON d   1     -47.649  17.113  -1.811  0.00  0.00    -0.265 OA
ATOM     13  N7  NON d   1     -44.830  17.218  -3.284  0.00  0.00    -0.050 NA
ENDBRANCH   1   3
BRANCH   2  14
ATOM     14  C5  NON d   1     -40.846  18.236  -3.492  0.00  0.00     0.212 C 
BRANCH  14  15
ATOM     15  C6  NON d   1     -40.578  19.018  -4.763  0.00  0.00    -0.034 A 
ATOM     16  C7  NON d   1     -40.495  18.399  -6.020  0.00  0.00     0.009 A 
ATOM     17  C8  NON d   1     -40.289  19.150  -7.180  0.00  0.00     0.003 A 
ATOM     18  C9  NON d   1     -40.170  20.535  -7.106  0.00  0.00     0.036 A 
ATOM     19  C10 NON d   1     -40.260  21.163  -5.857  0.00  0.00     0.103 A 
ATOM     20  C11 NON d   1     -40.465  20.416  -4.690  0.00  0.00     0.045 A 
BRANCH  19  21
ATOM     21  N6  NON d   1     -40.149  22.622  -5.772  0.00  0.00    -0.116 N 
ATOM     22  O2  NON d   1     -40.140  23.263  -6.833  0.00  0.00    -0.532 OA
ATOM     23  O3  NON d   1     -40.069  23.139  -4.647  0.00  0.00    -0.532 OA
ENDBRANCH  19  21
ENDBRANCH  14  15
ENDBRANCH   2  14
TORSDOF 4
ENDMDL
MODEL 5
REMARK VINA RESULT:   -29.553      1.681      2.513
REMARK INTER + INTRA:         -31.229
REMARK INTER:                 -30.746
REMARK INTRA:                  -0.483
REMARK CONF_INDEPENDENT:        1.193
REMARK UNBOUND:                -0.483
REMARK  4 active torsions:
REMARK  status: ('A' for Active; 'I' for Inactive)
REMARK    1  A    between atoms: N4_9  and  C4_8 
REMARK    2  A    between atoms: N5_10  and  C5_11 
REMARK    3  A    between atoms: C5_11  and  C6_12 
REMARK    4  A    between atoms: C10_16  and  N6_17 
ROOT
ATOM      1  N4  NON d   1     -45.468  17.710  -5.532  0.00  0.00     0.041 NA
ATOM      2  N5  NON d   1     -44.782  18.294  -4.661  0.00  0.00    -0.172 NA
ENDROOT
BRANCH   1   3
ATOM      3  C4  NON d   1     -46.476  16.935  -5.055  0.00  0.00     0.769 A 
ATOM      4  N3  NON d   1     -47.261  16.130  -5.811  0.00  0.00    -0.037 NA
ATOM      5  C3  NON d   1     -48.219  15.642  -5.006  0.00  0.00     0.204 A 
ATOM      6  N2  NON d   1     -49.208  14.801  -5.412  0.00  0.00    -0.221 NA
ATOM      7  C12 NON d   1     -48.018  16.165  -3.737  0.00  0.00     0.192 A 
ATOM      8  C2  NON d   1     -50.009  14.520  -4.441  0.00  0.00     0.212 A 
ATOM      9  N1  NON d   1     -49.916  14.974  -3.147  0.00  0.00    -0.316 N 
ATOM     10  C1  NON d   1     -48.924  15.826  -2.676  0.00  0.00     0.279 A 
ATOM     11  H1  NON d   1     -50.594  14.704  -2.455  0.00  0.00     0.170 HD
ATOM     12  O1  NON d   1     -48.975  16.148  -1.484  0.00  0.00    -0.265 OA
ATOM     13  N7  NON d   1     -46.926  16.970  -3.776  0.00  0.00    -0.050 NA
ENDBRANCH   1   3
BRANCH   2  14
ATOM     14  C5  NON d   1     -43.780  19.174  -5.267  0.00  0.00     0.212 C 
BRANCH  14  15
ATOM     15  C6  NON d   1     -42.343  18.851  -4.908  0.00  0.00    -0.034 A 
ATOM     16  C7  NON d   1     -41.987  18.276  -3.678  0.00  0.00     0.009 A 
ATOM     17  C8  NON d   1     -40.660  17.951  -3.391  0.00  0.00     0.003 A 
ATOM     18  C9  NON d   1     -39.662  18.187  -4.334  0.00  0.00     0.036 A 
ATOM     19  C10 NON d   1     -40.008  18.751  -5.568  0.00  0.00     0.103 A 
ATOM     20  C11 NON d   1     -41.337  19.081  -5.861  0.00  0.00     0.045 A 
BRANCH  19  21
ATOM     21  N6  NON d   1     -38.965  18.990  -6.571  0.00  0.00    -0.116 N 
ATOM     22  O2  NON d   1     -39.198  18.649  -7.739  0.00  0.00    -0.532 OA
ATOM     23  O3  NON d   1     -37.907  19.521  -6.200  0.00  0.00    -0.532 OA
ENDBRANCH  19  21
ENDBRANCH  14  15
ENDBRANCH   2  14
TORSDOF 4
ENDMDL
MODEL 6
REMARK VINA RESULT:   -29.357      2.474      2.958
REMARK INTER + INTRA:         -31.127
REMARK INTER:                 -30.550
REMARK INTRA:                  -0.577
REMARK CONF_INDEPENDENT:        1.193
REMARK UNBOUND:                -0.577
REMARK  4 active torsions:
REMARK  status: ('A' for Active; 'I' for Inactive)
REMARK    1  A    between atoms: N4_9  and  C4_8 
REMARK    2  A    between atoms: N5_10  and  C5_11 
REMARK    3  A    between atoms: C5_11  and  C6_12 
REMARK    4  A    between atoms: C10_16  and  N6_17 
ROOT
ATOM      1  N4  NON d   1     -42.936  17.870  -4.280  0.00  0.00     0.041 NA
ATOM      2  N5  NON d   1     -42.385  17.930  -5.403  0.00  0.00    -0.172 NA
ENDROOT
BRANCH   1   3
ATOM      3  C4  NON d   1     -44.186  17.338  -4.273  0.00  0.00     0.769 A 
ATOM      4  N3  NON d   1     -44.860  16.926  -5.374  0.00  0.00    -0.037 NA
ATOM      5  C3  NON d   1     -46.100  16.595  -4.978  0.00  0.00     0.204 A 
ATOM      6  N2  NON d   1     -47.078  16.147  -5.810  0.00  0.00    -0.221 NA
ATOM      7  C12 NON d   1     -46.185  16.817  -3.612  0.00  0.00     0.192 A 
ATOM      8  C2  NON d   1     -48.178  15.939  -5.169  0.00  0.00     0.212 A 
ATOM      9  N1  NON d   1     -48.386  16.122  -3.822  0.00  0.00    -0.316 N 
ATOM     10  C1  NON d   1     -47.422  16.569  -2.926  0.00  0.00     0.279 A 
ATOM     11  H1  NON d   1     -49.284  15.938  -3.409  0.00  0.00     0.170 HD
ATOM     12  O1  NON d   1     -47.761  16.684  -1.743  0.00  0.00    -0.265 OA
ATOM     13  N7  NON d   1     -44.984  17.278  -3.179  0.00  0.00    -0.050 NA
ENDBRANCH   1   3
BRANCH   2  14
ATOM     14  C5  NON d   1     -41.012  18.431  -5.301  0.00  0.00     0.212 C 
BRANCH  14  15
ATOM     15  C6  NON d   1     -40.792  19.485  -4.233  0.00  0.00    -0.034 A 
ATOM     16  C7  NON d   1     -40.459  19.154  -2.911  0.00  0.00     0.009 A 
ATOM     17  C8  NON d   1     -40.221  20.147  -1.958  0.00  0.00     0.003 A 
ATOM     18  C9  NON d   1     -40.303  21.492  -2.312  0.00  0.00     0.036 A 
ATOM     19  C10 NON d   1     -40.625  21.832  -3.632  0.00  0.00     0.103 A 
ATOM     20  C11 NON d   1     -40.867  20.841  -4.592  0.00  0.00     0.045 A 
BRANCH  19  21
ATOM     21  N6  NON d   1     -40.701  23.245  -4.016  0.00  0.00    -0.116 N 
ATOM     22  O2  NON d   1     -40.099  23.598  -5.040  0.00  0.00    -0.532 OA
ATOM     23  O3  NON d   1     -41.363  24.012  -3.299  0.00  0.00    -0.532 OA
ENDBRANCH  19  21
ENDBRANCH  14  15
ENDBRANCH   2  14
TORSDOF 4
ENDMDL
MODEL 7
REMARK VINA RESULT:   -29.223      2.453      3.187
REMARK INTER + INTRA:         -30.865
REMARK INTER:                 -30.416
REMARK INTRA:                  -0.448
REMARK CONF_INDEPENDENT:        1.193
REMARK UNBOUND:                -0.448
REMARK  4 active torsions:
REMARK  status: ('A' for Active; 'I' for Inactive)
REMARK    1  A    between atoms: N4_9  and  C4_8 
REMARK    2  A    between atoms: N5_10  and  C5_11 
REMARK    3  A    between atoms: C5_11  and  C6_12 
REMARK    4  A    between atoms: C10_16  and  N6_17 
ROOT
ATOM      1  N4  NON d   1     -45.219  17.638  -5.504  0.00  0.00     0.041 NA
ATOM      2  N5  NON d   1     -44.292  17.830  -4.684  0.00  0.00    -0.172 NA
ENDROOT
BRANCH   1   3
ATOM      3  C4  NON d   1     -46.261  16.900  -5.042  0.00  0.00     0.769 A 
ATOM      4  N3  NON d   1     -47.072  16.134  -5.810  0.00  0.00    -0.037 NA
ATOM      5  C3  NON d   1     -48.055  15.678  -5.017  0.00  0.00     0.204 A 
ATOM      6  N2  NON d   1     -49.074  14.881  -5.438  0.00  0.00    -0.221 NA
ATOM      7  C12 NON d   1     -47.843  16.182  -3.743  0.00  0.00     0.192 A 
ATOM      8  C2  NON d   1     -49.893  14.624  -4.475  0.00  0.00     0.212 A 
ATOM      9  N1  NON d   1     -49.792  15.064  -3.177  0.00  0.00    -0.316 N 
ATOM     10  C1  NON d   1     -48.770  15.871  -2.691  0.00  0.00     0.279 A 
ATOM     11  H1  NON d   1     -50.485  14.815  -2.492  0.00  0.00     0.170 HD
ATOM     12  O1  NON d   1     -48.817  16.185  -1.497  0.00  0.00    -0.265 OA
ATOM     13  N7  NON d   1     -46.719  16.942  -3.766  0.00  0.00    -0.050 NA
ENDBRANCH   1   3
BRANCH   2  14
ATOM     14  C5  NON d   1     -43.257  18.706  -5.238  0.00  0.00     0.212 C 
BRANCH  14  15
ATOM     15  C6  NON d   1     -42.085  18.978  -4.314  0.00  0.00    -0.034 A 
ATOM     16  C7  NON d   1     -41.672  18.060  -3.337  0.00  0.00     0.009 A 
ATOM     17  C8  NON d   1     -40.563  18.318  -2.528  0.00  0.00     0.003 A 
ATOM     18  C9  NON d   1     -39.840  19.498  -2.688  0.00  0.00     0.036 A 
ATOM     19  C10 NON d   1     -40.238  20.416  -3.667  0.00  0.00     0.103 A 
ATOM     20  C11 NON d   1     -41.351  20.163  -4.480  0.00  0.00     0.045 A 
BRANCH  19  21
ATOM     21  N6  NON d   1     -39.475  21.655  -3.850  0.00  0.00    -0.116 N 
ATOM     22  O2  NON d   1     -39.837  22.429  -4.748  0.00  0.00    -0.532 OA
ATOM     23  O3  NON d   1     -38.509  21.863  -3.100  0.00  0.00    -0.532 OA
ENDBRANCH  19  21
ENDBRANCH  14  15
ENDBRANCH   2  14
TORSDOF 4
ENDMDL
MODEL 8
REMARK VINA RESULT:   -29.009      2.106      2.858
REMARK INTER + INTRA:         -30.093
REMARK INTER:                 -30.202
REMARK INTRA:                   0.109
REMARK CONF_INDEPENDENT:        1.193
REMARK UNBOUND:                 0.109
REMARK  4 active torsions:
REMARK  status: ('A' for Active; 'I' for Inactive)
REMARK    1  A    between atoms: N4_9  and  C4_8 
REMARK    2  A    between atoms: N5_10  and  C5_11 
REMARK    3  A    between atoms: C5_11  and  C6_12 
REMARK    4  A    between atoms: C10_16  and  N6_17 
ROOT
ATOM      1  N4  NON d   1     -43.349  18.320  -4.432  0.00  0.00     0.041 NA
ATOM      2  N5  NON d   1     -43.186  19.033  -5.449  0.00  0.00    -0.172 NA
ENDROOT
BRANCH   1   3
ATOM      3  C4  NON d   1     -44.524  17.640  -4.382  0.00  0.00     0.769 A 
ATOM      4  N3  NON d   1     -45.199  17.175  -5.461  0.00  0.00    -0.037 NA
ATOM      5  C3  NON d   1     -46.368  16.686  -5.017  0.00  0.00     0.204 A 
ATOM      6  N2  NON d   1     -47.326  16.142  -5.815  0.00  0.00    -0.221 NA
ATOM      7  C12 NON d   1     -46.411  16.864  -3.642  0.00  0.00     0.192 A 
ATOM      8  C2  NON d   1     -48.359  15.787  -5.129  0.00  0.00     0.212 A 
ATOM      9  N1  NON d   1     -48.519  15.911  -3.769  0.00  0.00    -0.316 N 
ATOM     10  C1  NON d   1     -47.572  16.451  -2.907  0.00  0.00     0.279 A 
ATOM     11  H1  NON d   1     -49.366  15.610  -3.319  0.00  0.00     0.170 HD
ATOM     12  O1  NON d   1     -47.862  16.496  -1.706  0.00  0.00    -0.265 OA
ATOM     13  N7  NON d   1     -45.253  17.457  -3.254  0.00  0.00    -0.050 NA
ENDBRANCH   1   3
BRANCH   2  14
ATOM     14  C5  NON d   1     -41.860  19.655  -5.460  0.00  0.00     0.212 C 
BRANCH  14  15
ATOM     15  C6  NON d   1     -40.907  19.154  -4.392  0.00  0.00    -0.034 A 
ATOM     16  C7  NON d   1     -41.324  18.895  -3.077  0.00  0.00     0.009 A 
ATOM     17  C8  NON d   1     -40.433  18.394  -2.124  0.00  0.00     0.003 A 
ATOM     18  C9  NON d   1     -39.110  18.134  -2.472  0.00  0.00     0.036 A 
ATOM     19  C10 NON d   1     -38.687  18.379  -3.784  0.00  0.00     0.103 A 
ATOM     20  C11 NON d   1     -39.575  18.884  -4.743  0.00  0.00     0.045 A 
BRANCH  19  21
ATOM     21  N6  NON d   1     -37.298  18.096  -4.161  0.00  0.00    -0.116 N 
ATOM     22  O2  NON d   1     -37.035  18.007  -5.368  0.00  0.00    -0.532 OA
ATOM     23  O3  NON d   1     -36.462  17.960  -3.254  0.00  0.00    -0.532 OA
ENDBRANCH  19  21
ENDBRANCH  14  15
ENDBRANCH   2  14
TORSDOF 4
ENDMDL
MODEL 9
REMARK VINA RESULT:   -28.555      2.227      3.108
REMARK INTER + INTRA:         -30.215
REMARK INTER:                 -29.748
REMARK INTRA:                  -0.467
REMARK CONF_INDEPENDENT:        1.193
REMARK UNBOUND:                -0.467
REMARK  4 active torsions:
REMARK  status: ('A' for Active; 'I' for Inactive)
REMARK    1  A    between atoms: N4_9  and  C4_8 
REMARK    2  A    between atoms: N5_10  and  C5_11 
REMARK    3  A    between atoms: C5_11  and  C6_12 
REMARK    4  A    between atoms: C10_16  and  N6_17 
ROOT
ATOM      1  N4  NON d   1     -45.028  17.727  -5.411  0.00  0.00     0.041 NA
ATOM      2  N5  NON d   1     -44.285  18.427  -4.684  0.00  0.00    -0.172 NA
ENDROOT
BRANCH   1   3
ATOM      3  C4  NON d   1     -46.153  17.258  -4.812  0.00  0.00     0.769 A 
ATOM      4  N3  NON d   1     -46.425  17.353  -3.488  0.00  0.00    -0.037 NA
ATOM      5  C3  NON d   1     -47.553  16.658  -3.265  0.00  0.00     0.204 A 
ATOM      6  N2  NON d   1     -48.135  16.511  -2.045  0.00  0.00    -0.221 NA
ATOM      7  C12 NON d   1     -47.971  16.123  -4.474  0.00  0.00     0.192 A 
ATOM      8  C2  NON d   1     -49.186  15.766  -2.116  0.00  0.00     0.212 A 
ATOM      9  N1  NON d   1     -49.697  15.181  -3.249  0.00  0.00    -0.316 N 
ATOM     10  C1  NON d   1     -49.149  15.303  -4.520  0.00  0.00     0.279 A 
ATOM     11  H1  NON d   1     -50.523  14.609  -3.207  0.00  0.00     0.170 HD
ATOM     12  O1  NON d   1     -49.724  14.716  -5.443  0.00  0.00    -0.265 OA
ATOM     13  N7  NON d   1     -47.092  16.505  -5.436  0.00  0.00    -0.050 NA
ENDBRANCH   1   3
BRANCH   2  14
ATOM     14  C5  NON d   1     -43.147  18.961  -5.435  0.00  0.00     0.212 C 
BRANCH  14  15
ATOM     15  C6  NON d   1     -41.807  18.848  -4.735  0.00  0.00    -0.034 A 
ATOM     16  C7  NON d   1     -41.587  17.955  -3.675  0.00  0.00     0.009 A 
ATOM     17  C8  NON d   1     -40.331  17.842  -3.076  0.00  0.00     0.003 A 
ATOM     18  C9  NON d   1     -39.266  18.616  -3.532  0.00  0.00     0.036 A 
ATOM     19  C10 NON d   1     -39.473  19.503  -4.595  0.00  0.00     0.103 A 
ATOM     20  C11 NON d   1     -40.731  19.622  -5.199  0.00  0.00     0.045 A 
BRANCH  19  21
ATOM     21  N6  NON d   1     -38.354  20.312  -5.089  0.00  0.00    -0.116 N 
ATOM     22  O2  NON d   1     -37.205  19.931  -4.824  0.00  0.00    -0.532 OA
ATOM     23  O3  NON d   1     -38.614  21.333  -5.745  0.00  0.00    -0.532 OA
ENDBRANCH  19  21
ENDBRANCH  14  15
ENDBRANCH   2  14
TORSDOF 4
ENDMDL
