MODEL 1
REMARK VINA RESULT:   -32.663      0.000      0.000
REMARK INTER + INTRA:         -35.362
REMARK INTER:                 -34.154
REMARK INTRA:                  -1.208
REMARK CONF_INDEPENDENT:        1.492
REMARK UNBOUND:                -1.208
REMARK  5 active torsions:
REMARK  status: ('A' for Active; 'I' for Inactive)
REMARK    1  A    between atoms: C8_8  and  C7_7 
REMARK    2  A    between atoms: C8_8  and  N1_10 
REMARK       I    between atoms: N1_10  and  C10_11 
REMARK    3  A    between atoms: C10_11  and  C11_13 
REMARK    4  A    between atoms: C14_16  and  N2_17 
REMARK       I    between atoms: N2_17  and  C15_18 
REMARK    5  A    between atoms: C15_18  and  C16_20 
ROOT
ATOM      1  C11 NON d   1     -40.807  19.655  -4.274  0.00  0.00     0.032 A 
ATOM      2  C12 NON d   1     -41.769  19.867  -5.273  0.00  0.00     0.019 A 
ATOM      3  C13 NON d   1     -42.954  19.117  -5.321  0.00  0.00     0.030 A 
ATOM      4  C14 NON d   1     -43.221  18.138  -4.366  0.00  0.00     0.035 A 
ATOM      5  C21 NON d   1     -42.253  17.903  -3.378  0.00  0.00     0.030 A 
ATOM      6  C22 NON d   1     -41.054  18.652  -3.330  0.00  0.00     0.019 A 
ENDROOT
BRANCH   1   7
ATOM      7  C10 NON d   1     -39.576  20.521  -4.319  0.00  0.00     0.252 C 
ATOM      8  N1  NON d   1     -39.727  21.882  -4.095  0.00  0.00    -0.349 N 
ATOM      9  H13 NON d   1     -40.682  22.175  -3.978  0.00  0.00     0.163 HD
ATOM     10  O1  NON d   1     -38.484  19.986  -4.478  0.00  0.00    -0.268 OA
BRANCH   8  11
ATOM     11  C8  NON d   1     -38.810  22.651  -3.226  0.00  0.00     0.114 C 
ATOM     12  C9  NON d   1     -38.104  23.899  -3.790  0.00  0.00     0.037 C 
BRANCH  11  13
ATOM     13  C7  NON d   1     -39.242  22.681  -1.670  0.00  0.00    -0.029 A 
ATOM     14  C5  NON d   1     -38.892  21.606  -0.774  0.00  0.00    -0.054 A 
ATOM     15  C4  NON d   1     -39.434  21.745   0.532  0.00  0.00     0.008 A 
ATOM     16  C6  NON d   1     -37.964  20.464  -1.230  0.00  0.00     0.049 C 
ATOM     17  C3  NON d   1     -40.314  22.833   0.965  0.00  0.00     0.007 A 
ATOM     18  C2  NON d   1     -40.748  23.888   0.137  0.00  0.00    -0.061 A 
ATOM     19  C1  NON d   1     -41.676  25.030   0.593  0.00  0.00     0.048 C 
ATOM     20  C23 NON d   1     -40.160  23.772  -1.181  0.00  0.00     0.016 A 
ENDBRANCH  11  13
ENDBRANCH   8  11
ENDBRANCH   1   7
BRANCH   4  21
ATOM     21  N2  NON d   1     -44.427  17.399  -4.325  0.00  0.00    -0.322 N 
ATOM     22  C15 NON d   1     -45.510  17.510  -5.186  0.00  0.00     0.274 C 
ATOM     23  O2  NON d   1     -45.569  18.203  -6.197  0.00  0.00    -0.266 OA
ATOM     24  H16 NON d   1     -44.568  16.745  -3.557  0.00  0.00     0.169 HD
BRANCH  22  25
ATOM     25  C16 NON d   1     -46.711  16.695  -4.798  0.00  0.00     0.124 A 
ATOM     26  C17 NON d   1     -47.019  16.534  -3.449  0.00  0.00     0.037 A 
ATOM     27  C18 NON d   1     -48.117  15.751  -3.106  0.00  0.00     0.004 A 
ATOM     28  C19 NON d   1     -48.869  15.159  -4.115  0.00  0.00     0.019 A 
ATOM     29  C20 NON d   1     -48.491  15.376  -5.434  0.00  0.00     0.117 A 
ATOM     30  N3  NON d   1     -47.428  16.132  -5.810  0.00  0.00    -0.256 NA
ENDBRANCH  22  25
ENDBRANCH   4  21
TORSDOF 5
ENDMDL
MODEL 2
REMARK VINA RESULT:   -32.556      2.896      4.568
REMARK INTER + INTRA:         -35.323
REMARK INTER:                 -34.047
REMARK INTRA:                  -1.276
REMARK CONF_INDEPENDENT:        1.492
REMARK UNBOUND:                -1.276
REMARK  5 active torsions:
REMARK  status: ('A' for Active; 'I' for Inactive)
REMARK    1  A    between atoms: C8_8  and  C7_7 
REMARK    2  A    between atoms: C8_8  and  N1_10 
REMARK       I    between atoms: N1_10  and  C10_11 
REMARK    3  A    between atoms: C10_11  and  C11_13 
REMARK    4  A    between atoms: C14_16  and  N2_17 
REMARK       I    between atoms: N2_17  and  C15_18 
REMARK    5  A    between atoms: C15_18  and  C16_20 
ROOT
ATOM      1  C11 NON d   1     -40.799  19.644  -4.350  0.00  0.00     0.032 A 
ATOM      2  C12 NON d   1     -41.768  19.849  -5.342  0.00  0.00     0.019 A 
ATOM      3  C13 NON d   1     -42.950  19.094  -5.380  0.00  0.00     0.030 A 
ATOM      4  C14 NON d   1     -43.207  18.117  -4.420  0.00  0.00     0.035 A 
ATOM      5  C21 NON d   1     -42.231  17.889  -3.438  0.00  0.00     0.030 A 
ATOM      6  C22 NON d   1     -41.035  18.642  -3.400  0.00  0.00     0.019 A 
ENDROOT
BRANCH   1   7
ATOM      7  C10 NON d   1     -39.571  20.514  -4.405  0.00  0.00     0.252 C 
ATOM      8  N1  NON d   1     -38.456  20.028  -5.074  0.00  0.00    -0.349 N 
ATOM      9  H13 NON d   1     -38.562  19.088  -5.418  0.00  0.00     0.163 HD
ATOM     10  O1  NON d   1     -39.625  21.641  -3.924  0.00  0.00    -0.268 OA
BRANCH   8  11
ATOM     11  C8  NON d   1     -37.659  20.862  -6.000  0.00  0.00     0.114 C 
ATOM     12  C9  NON d   1     -36.201  20.469  -6.304  0.00  0.00     0.037 C 
BRANCH  11  13
ATOM     13  C7  NON d   1     -38.515  21.525  -7.197  0.00  0.00    -0.029 A 
ATOM     14  C5  NON d   1     -38.941  20.746  -8.335  0.00  0.00    -0.054 A 
ATOM     15  C4  NON d   1     -39.598  21.506  -9.340  0.00  0.00     0.008 A 
ATOM     16  C6  NON d   1     -38.728  19.222  -8.377  0.00  0.00     0.049 C 
ATOM     17  C3  NON d   1     -39.803  22.956  -9.298  0.00  0.00     0.007 A 
ATOM     18  C2  NON d   1     -39.368  23.795  -8.252  0.00  0.00    -0.061 A 
ATOM     19  C1  NON d   1     -39.582  25.320  -8.210  0.00  0.00     0.048 C 
ATOM     20  C23 NON d   1     -38.739  23.016  -7.207  0.00  0.00     0.016 A 
ENDBRANCH  11  13
ENDBRANCH   8  11
ENDBRANCH   1   7
BRANCH   4  21
ATOM     21  N2  NON d   1     -44.410  17.374  -4.368  0.00  0.00    -0.322 N 
ATOM     22  C15 NON d   1     -45.516  17.505  -5.198  0.00  0.00     0.274 C 
ATOM     23  O2  NON d   1     -45.602  18.225  -6.187  0.00  0.00    -0.266 OA
ATOM     24  H16 NON d   1     -44.530  16.698  -3.616  0.00  0.00     0.169 HD
BRANCH  22  25
ATOM     25  C16 NON d   1     -46.704  16.675  -4.801  0.00  0.00     0.124 A 
ATOM     26  C17 NON d   1     -46.983  16.485  -3.450  0.00  0.00     0.037 A 
ATOM     27  C18 NON d   1     -48.070  15.690  -3.100  0.00  0.00     0.004 A 
ATOM     28  C19 NON d   1     -48.840  15.115  -4.105  0.00  0.00     0.019 A 
ATOM     29  C20 NON d   1     -48.491  15.361  -5.427  0.00  0.00     0.117 A 
ATOM     30  N3  NON d   1     -47.439  16.130  -5.810  0.00  0.00    -0.256 NA
ENDBRANCH  22  25
ENDBRANCH   4  21
TORSDOF 5
ENDMDL
MODEL 3
REMARK VINA RESULT:   -32.542      0.738      1.687
REMARK INTER + INTRA:         -35.154
REMARK INTER:                 -34.033
REMARK INTRA:                  -1.121
REMARK CONF_INDEPENDENT:        1.492
REMARK UNBOUND:                -1.121
REMARK  5 active torsions:
REMARK  status: ('A' for Active; 'I' for Inactive)
REMARK    1  A    between atoms: C8_8  and  C7_7 
REMARK    2  A    between atoms: C8_8  and  N1_10 
REMARK       I    between atoms: N1_10  and  C10_11 
REMARK    3  A    between atoms: C10_11  and  C11_13 
REMARK    4  A    between atoms: C14_16  and  N2_17 
REMARK       I    between atoms: N2_17  and  C15_18 
REMARK    5  A    between atoms: C15_18  and  C16_20 
ROOT
ATOM      1  C11 NON d   1     -40.674  19.357  -4.321  0.00  0.00     0.032 A 
ATOM      2  C12 NON d   1     -41.659  19.668  -5.269  0.00  0.00     0.019 A 
ATOM      3  C13 NON d   1     -42.877  18.973  -5.318  0.00  0.00     0.030 A 
ATOM      4  C14 NON d   1     -43.154  17.950  -4.412  0.00  0.00     0.035 A 
ATOM      5  C21 NON d   1     -42.163  17.617  -3.476  0.00  0.00     0.030 A 
ATOM      6  C22 NON d   1     -40.932  18.311  -3.428  0.00  0.00     0.019 A 
ENDROOT
BRANCH   1   7
ATOM      7  C10 NON d   1     -39.409  20.172  -4.361  0.00  0.00     0.252 C 
ATOM      8  N1  NON d   1     -39.512  21.546  -4.194  0.00  0.00    -0.349 N 
ATOM      9  H13 NON d   1     -40.458  21.880  -4.119  0.00  0.00     0.163 HD
ATOM     10  O1  NON d   1     -38.335  19.589  -4.465  0.00  0.00    -0.268 OA
BRANCH   8  11
ATOM     11  C8  NON d   1     -38.591  22.313  -3.328  0.00  0.00     0.114 C 
ATOM     12  C9  NON d   1     -37.819  23.508  -3.918  0.00  0.00     0.037 C 
BRANCH  11  13
ATOM     13  C7  NON d   1     -39.069  22.424  -1.789  0.00  0.00    -0.029 A 
ATOM     14  C5  NON d   1     -40.336  23.017  -1.438  0.00  0.00    -0.054 A 
ATOM     15  C4  NON d   1     -40.555  23.123  -0.038  0.00  0.00     0.008 A 
ATOM     16  C6  NON d   1     -41.347  23.428  -2.525  0.00  0.00     0.049 C 
ATOM     17  C3  NON d   1     -39.594  22.730   0.995  0.00  0.00     0.007 A 
ATOM     18  C2  NON d   1     -38.314  22.196   0.735  0.00  0.00    -0.061 A 
ATOM     19  C1  NON d   1     -37.303  21.786   1.822  0.00  0.00     0.048 C 
ATOM     20  C23 NON d   1     -38.108  22.046  -0.689  0.00  0.00     0.016 A 
ENDBRANCH  11  13
ENDBRANCH   8  11
ENDBRANCH   1   7
BRANCH   4  21
ATOM     21  N2  NON d   1     -44.389  17.261  -4.369  0.00  0.00    -0.322 N 
ATOM     22  C15 NON d   1     -45.495  17.467  -5.183  0.00  0.00     0.274 C 
ATOM     23  O2  NON d   1     -45.557  18.220  -6.150  0.00  0.00    -0.266 OA
ATOM     24  H16 NON d   1     -44.533  16.569  -3.636  0.00  0.00     0.169 HD
BRANCH  22  25
ATOM     25  C16 NON d   1     -46.716  16.681  -4.799  0.00  0.00     0.124 A 
ATOM     26  C17 NON d   1     -47.036  16.533  -3.452  0.00  0.00     0.037 A 
ATOM     27  C18 NON d   1     -48.154  15.777  -3.112  0.00  0.00     0.004 A 
ATOM     28  C19 NON d   1     -48.913  15.198  -4.123  0.00  0.00     0.019 A 
ATOM     29  C20 NON d   1     -48.522  15.401  -5.440  0.00  0.00     0.117 A 
ATOM     30  N3  NON d   1     -47.439  16.130  -5.813  0.00  0.00    -0.256 NA
ENDBRANCH  22  25
ENDBRANCH   4  21
TORSDOF 5
ENDMDL
MODEL 4
REMARK VINA RESULT:   -32.257      3.090      4.750
REMARK INTER + INTRA:         -34.922
REMARK INTER:                 -33.749
REMARK INTRA:                  -1.173
REMARK CONF_INDEPENDENT:        1.492
REMARK UNBOUND:                -1.173
REMARK  5 active torsions:
REMARK  status: ('A' for Active; 'I' for Inactive)
REMARK    1  A    between atoms: C8_8  and  C7_7 
REMARK    2  A    between atoms: C8_8  and  N1_10 
REMARK       I    between atoms: N1_10  and  C10_11 
REMARK    3  A    between atoms: C10_11  and  C11_13 
REMARK    4  A    between atoms: C14_16  and  N2_17 
REMARK       I    between atoms: N2_17  and  C15_18 
REMARK    5  A    between atoms: C15_18  and  C16_20 
ROOT
ATOM      1  C11 NON d   1     -40.740  19.440  -4.525  0.00  0.00     0.032 A 
ATOM      2  C12 NON d   1     -40.874  18.337  -3.669  0.00  0.00     0.019 A 
ATOM      3  C13 NON d   1     -42.086  17.639  -3.557  0.00  0.00     0.030 A 
ATOM      4  C14 NON d   1     -43.201  18.015  -4.305  0.00  0.00     0.035 A 
ATOM      5  C21 NON d   1     -43.081  19.133  -5.144  0.00  0.00     0.030 A 
ATOM      6  C22 NON d   1     -41.864  19.843  -5.255  0.00  0.00     0.019 A 
ENDROOT
BRANCH   1   7
ATOM      7  C10 NON d   1     -39.392  20.110  -4.567  0.00  0.00     0.252 C 
ATOM      8  N1  NON d   1     -38.467  19.657  -5.497  0.00  0.00    -0.349 N 
ATOM      9  H13 NON d   1     -38.777  18.862  -6.030  0.00  0.00     0.163 HD
ATOM     10  O1  NON d   1     -39.187  21.071  -3.833  0.00  0.00    -0.268 OA
BRANCH   8  11
ATOM     11  C8  NON d   1     -37.647  20.577  -6.315  0.00  0.00     0.114 C 
ATOM     12  C9  NON d   1     -36.247  20.131  -6.777  0.00  0.00     0.037 C 
BRANCH  11  13
ATOM     13  C7  NON d   1     -38.500  21.507  -7.321  0.00  0.00    -0.029 A 
ATOM     14  C5  NON d   1     -39.545  20.955  -8.149  0.00  0.00    -0.054 A 
ATOM     15  C4  NON d   1     -40.127  21.892  -9.045  0.00  0.00     0.008 A 
ATOM     16  C6  NON d   1     -39.988  19.488  -7.993  0.00  0.00     0.049 C 
ATOM     17  C3  NON d   1     -39.707  23.287  -9.191  0.00  0.00     0.007 A 
ATOM     18  C2  NON d   1     -38.659  23.888  -8.462  0.00  0.00    -0.061 A 
ATOM     19  C1  NON d   1     -38.216  25.354  -8.618  0.00  0.00     0.048 C 
ATOM     20  C23 NON d   1     -38.096  22.947  -7.517  0.00  0.00     0.016 A 
ENDBRANCH  11  13
ENDBRANCH   8  11
ENDBRANCH   1   7
BRANCH   4  21
ATOM     21  N2  NON d   1     -44.426  17.309  -4.283  0.00  0.00    -0.322 N 
ATOM     22  C15 NON d   1     -45.498  17.457  -5.154  0.00  0.00     0.274 C 
ATOM     23  O2  NON d   1     -45.528  18.162  -6.158  0.00  0.00    -0.266 OA
ATOM     24  H16 NON d   1     -44.593  16.651  -3.524  0.00  0.00     0.169 HD
BRANCH  22  25
ATOM     25  C16 NON d   1     -46.724  16.670  -4.785  0.00  0.00     0.124 A 
ATOM     26  C17 NON d   1     -47.054  16.510  -3.442  0.00  0.00     0.037 A 
ATOM     27  C18 NON d   1     -48.175  15.752  -3.118  0.00  0.00     0.004 A 
ATOM     28  C19 NON d   1     -48.928  15.185  -4.140  0.00  0.00     0.019 A 
ATOM     29  C20 NON d   1     -48.527  15.399  -5.452  0.00  0.00     0.117 A 
ATOM     30  N3  NON d   1     -47.440  16.130  -5.810  0.00  0.00    -0.256 NA
ENDBRANCH  22  25
ENDBRANCH   4  21
TORSDOF 5
ENDMDL
MODEL 5
REMARK VINA RESULT:   -32.169      1.032      1.680
REMARK INTER + INTRA:         -34.807
REMARK INTER:                 -33.661
REMARK INTRA:                  -1.146
REMARK CONF_INDEPENDENT:        1.492
REMARK UNBOUND:                -1.146
REMARK  5 active torsions:
REMARK  status: ('A' for Active; 'I' for Inactive)
REMARK    1  A    between atoms: C8_8  and  C7_7 
REMARK    2  A    between atoms: C8_8  and  N1_10 
REMARK       I    between atoms: N1_10  and  C10_11 
REMARK    3  A    between atoms: C10_11  and  C11_13 
REMARK    4  A    between atoms: C14_16  and  N2_17 
REMARK       I    between atoms: N2_17  and  C15_18 
REMARK    5  A    between atoms: C15_18  and  C16_20 
ROOT
ATOM      1  C11 NON d   1     -40.738  19.505  -4.638  0.00  0.00     0.032 A 
ATOM      2  C12 NON d   1     -40.953  18.603  -3.587  0.00  0.00     0.019 A 
ATOM      3  C13 NON d   1     -42.162  17.902  -3.457  0.00  0.00     0.030 A 
ATOM      4  C14 NON d   1     -43.192  18.074  -4.382  0.00  0.00     0.035 A 
ATOM      5  C21 NON d   1     -42.993  18.993  -5.423  0.00  0.00     0.030 A 
ATOM      6  C22 NON d   1     -41.778  19.706  -5.553  0.00  0.00     0.019 A 
ENDROOT
BRANCH   1   7
ATOM      7  C10 NON d   1     -39.401  20.197  -4.679  0.00  0.00     0.252 C 
ATOM      8  N1  NON d   1     -39.384  21.573  -4.861  0.00  0.00    -0.349 N 
ATOM      9  H13 NON d   1     -40.293  21.979  -5.010  0.00  0.00     0.163 HD
ATOM     10  O1  NON d   1     -38.388  19.536  -4.479  0.00  0.00    -0.268 OA
BRANCH   8  11
ATOM     11  C8  NON d   1     -38.509  22.468  -4.072  0.00  0.00     0.114 C 
ATOM     12  C9  NON d   1     -37.314  23.153  -4.760  0.00  0.00     0.037 C 
BRANCH  11  13
ATOM     13  C7  NON d   1     -39.278  23.297  -2.919  0.00  0.00    -0.029 A 
ATOM     14  C5  NON d   1     -39.735  22.653  -1.711  0.00  0.00    -0.054 A 
ATOM     15  C4  NON d   1     -40.477  23.505  -0.849  0.00  0.00     0.008 A 
ATOM     16  C6  NON d   1     -39.372  21.187  -1.408  0.00  0.00     0.049 C 
ATOM     17  C3  NON d   1     -40.819  24.900  -1.137  0.00  0.00     0.007 A 
ATOM     18  C2  NON d   1     -40.460  25.584  -2.317  0.00  0.00    -0.061 A 
ATOM     19  C1  NON d   1     -40.823  27.050  -2.620  0.00  0.00     0.048 C 
ATOM     20  C23 NON d   1     -39.666  24.731  -3.175  0.00  0.00     0.016 A 
ENDBRANCH  11  13
ENDBRANCH   8  11
ENDBRANCH   1   7
BRANCH   4  21
ATOM     21  N2  NON d   1     -44.404  17.345  -4.341  0.00  0.00    -0.322 N 
ATOM     22  C15 NON d   1     -45.499  17.486  -5.183  0.00  0.00     0.274 C 
ATOM     23  O2  NON d   1     -45.566  18.204  -6.176  0.00  0.00    -0.266 OA
ATOM     24  H16 NON d   1     -44.540  16.674  -3.587  0.00  0.00     0.169 HD
BRANCH  22  25
ATOM     25  C16 NON d   1     -46.701  16.672  -4.796  0.00  0.00     0.124 A 
ATOM     26  C17 NON d   1     -46.995  16.488  -3.447  0.00  0.00     0.037 A 
ATOM     27  C18 NON d   1     -48.095  15.707  -3.106  0.00  0.00     0.004 A 
ATOM     28  C19 NON d   1     -48.862  15.140  -4.117  0.00  0.00     0.019 A 
ATOM     29  C20 NON d   1     -48.498  15.379  -5.436  0.00  0.00     0.117 A 
ATOM     30  N3  NON d   1     -47.433  16.134  -5.811  0.00  0.00    -0.256 NA
ENDBRANCH  22  25
ENDBRANCH   4  21
TORSDOF 5
ENDMDL
MODEL 6
REMARK VINA RESULT:   -31.844      2.407      4.214
REMARK INTER + INTRA:         -34.247
REMARK INTER:                 -33.336
REMARK INTRA:                  -0.911
REMARK CONF_INDEPENDENT:        1.492
REMARK UNBOUND:                -0.911
REMARK  5 active torsions:
REMARK  status: ('A' for Active; 'I' for Inactive)
REMARK    1  A    between atoms: C8_8  and  C7_7 
REMARK    2  A    between atoms: C8_8  and  N1_10 
REMARK       I    between atoms: N1_10  and  C10_11 
REMARK    3  A    between atoms: C10_11  and  C11_13 
REMARK    4  A    between atoms: C14_16  and  N2_17 
REMARK       I    between atoms: N2_17  and  C15_18 
REMARK    5  A    between atoms: C15_18  and  C16_20 
ROOT
ATOM      1  C11 NON d   1     -40.818  19.684  -4.307  0.00  0.00     0.032 A 
ATOM      2  C12 NON d   1     -41.666  19.686  -5.423  0.00  0.00     0.019 A 
ATOM      3  C13 NON d   1     -42.827  18.899  -5.464  0.00  0.00     0.030 A 
ATOM      4  C14 NON d   1     -43.184  18.092  -4.384  0.00  0.00     0.035 A 
ATOM      5  C21 NON d   1     -42.327  18.067  -3.273  0.00  0.00     0.030 A 
ATOM      6  C22 NON d   1     -41.153  18.854  -3.231  0.00  0.00     0.019 A 
ENDROOT
BRANCH   1   7
ATOM      7  C10 NON d   1     -39.603  20.571  -4.373  0.00  0.00     0.252 C 
ATOM      8  N1  NON d   1     -39.611  21.623  -5.278  0.00  0.00    -0.349 N 
ATOM      9  H13 NON d   1     -40.431  21.657  -5.860  0.00  0.00     0.163 HD
ATOM     10  O1  NON d   1     -38.687  20.376  -3.581  0.00  0.00    -0.268 OA
BRANCH   8  11
ATOM     11  C8  NON d   1     -39.135  22.978  -4.925  0.00  0.00     0.114 C 
ATOM     12  C9  NON d   1     -37.760  23.144  -4.250  0.00  0.00     0.037 C 
BRANCH  11  13
ATOM     13  C7  NON d   1     -39.602  24.132  -5.954  0.00  0.00    -0.029 A 
ATOM     14  C5  NON d   1     -40.232  25.343  -5.486  0.00  0.00    -0.054 A 
ATOM     15  C4  NON d   1     -40.667  26.206  -6.528  0.00  0.00     0.008 A 
ATOM     16  C6  NON d   1     -40.344  25.649  -3.981  0.00  0.00     0.049 C 
ATOM     17  C3  NON d   1     -40.557  25.916  -7.960  0.00  0.00     0.007 A 
ATOM     18  C2  NON d   1     -40.007  24.733  -8.497  0.00  0.00    -0.061 A 
ATOM     19  C1  NON d   1     -39.895  24.428 -10.002  0.00  0.00     0.048 C 
ATOM     20  C23 NON d   1     -39.523  23.874  -7.437  0.00  0.00     0.016 A 
ENDBRANCH  11  13
ENDBRANCH   8  11
ENDBRANCH   1   7
BRANCH   4  21
ATOM     21  N2  NON d   1     -44.375  17.331  -4.342  0.00  0.00    -0.322 N 
ATOM     22  C15 NON d   1     -45.472  17.437  -5.188  0.00  0.00     0.274 C 
ATOM     23  O2  NON d   1     -45.555  18.147  -6.185  0.00  0.00    -0.266 OA
ATOM     24  H16 NON d   1     -44.496  16.662  -3.584  0.00  0.00     0.169 HD
BRANCH  22  25
ATOM     25  C16 NON d   1     -46.653  16.594  -4.799  0.00  0.00     0.124 A 
ATOM     26  C17 NON d   1     -46.874  16.308  -3.454  0.00  0.00     0.037 A 
ATOM     27  C18 NON d   1     -47.955  15.500  -3.114  0.00  0.00     0.004 A 
ATOM     28  C19 NON d   1     -48.776  15.009  -4.122  0.00  0.00     0.019 A 
ATOM     29  C20 NON d   1     -48.483  15.347  -5.437  0.00  0.00     0.117 A 
ATOM     30  N3  NON d   1     -47.439  16.131  -5.810  0.00  0.00    -0.256 NA
ENDBRANCH  22  25
ENDBRANCH   4  21
TORSDOF 5
ENDMDL
MODEL 7
REMARK VINA RESULT:   -30.137      2.283      3.127
REMARK INTER + INTRA:         -32.424
REMARK INTER:                 -31.628
REMARK INTRA:                  -0.796
REMARK CONF_INDEPENDENT:        1.492
REMARK UNBOUND:                -0.796
REMARK  5 active torsions:
REMARK  status: ('A' for Active; 'I' for Inactive)
REMARK    1  A    between atoms: C8_8  and  C7_7 
REMARK    2  A    between atoms: C8_8  and  N1_10 
REMARK       I    between atoms: N1_10  and  C10_11 
REMARK    3  A    between atoms: C10_11  and  C11_13 
REMARK    4  A    between atoms: C14_16  and  N2_17 
REMARK       I    between atoms: N2_17  and  C15_18 
REMARK    5  A    between atoms: C15_18  and  C16_20 
ROOT
ATOM      1  C11 NON d   1     -40.442  19.330  -4.206  0.00  0.00     0.032 A 
ATOM      2  C12 NON d   1     -41.044  18.894  -5.395  0.00  0.00     0.019 A 
ATOM      3  C13 NON d   1     -42.259  18.191  -5.388  0.00  0.00     0.030 A 
ATOM      4  C14 NON d   1     -42.916  17.911  -4.191  0.00  0.00     0.035 A 
ATOM      5  C21 NON d   1     -42.308  18.322  -2.995  0.00  0.00     0.030 A 
ATOM      6  C22 NON d   1     -41.081  19.025  -2.998  0.00  0.00     0.019 A 
ENDROOT
BRANCH   1   7
ATOM      7  C10 NON d   1     -39.142  20.078  -4.335  0.00  0.00     0.252 C 
ATOM      8  N1  NON d   1     -39.178  21.365  -4.854  0.00  0.00    -0.349 N 
ATOM      9  H13 NON d   1     -40.091  21.660  -5.156  0.00  0.00     0.163 HD
ATOM     10  O1  NON d   1     -38.116  19.555  -3.913  0.00  0.00    -0.268 OA
BRANCH   8  11
ATOM     11  C8  NON d   1     -38.411  22.482  -4.261  0.00  0.00     0.114 C 
ATOM     12  C9  NON d   1     -36.928  22.274  -3.903  0.00  0.00     0.037 C 
BRANCH  11  13
ATOM     13  C7  NON d   1     -38.848  23.942  -4.797  0.00  0.00    -0.029 A 
ATOM     14  C5  NON d   1     -38.033  24.670  -5.739  0.00  0.00    -0.054 A 
ATOM     15  C4  NON d   1     -38.513  25.975  -6.028  0.00  0.00     0.008 A 
ATOM     16  C6  NON d   1     -36.795  24.019  -6.385  0.00  0.00     0.049 C 
ATOM     17  C3  NON d   1     -39.692  26.592  -5.416  0.00  0.00     0.007 A 
ATOM     18  C2  NON d   1     -40.508  25.971  -4.447  0.00  0.00    -0.061 A 
ATOM     19  C1  NON d   1     -41.745  26.621  -3.802  0.00  0.00     0.048 C 
ATOM     20  C23 NON d   1     -40.046  24.624  -4.186  0.00  0.00     0.016 A 
ENDBRANCH  11  13
ENDBRANCH   8  11
ENDBRANCH   1   7
BRANCH   4  21
ATOM     21  N2  NON d   1     -44.174  17.266  -4.127  0.00  0.00    -0.322 N 
ATOM     22  C15 NON d   1     -45.290  17.520  -4.914  0.00  0.00     0.274 C 
ATOM     23  O2  NON d   1     -45.346  18.284  -5.872  0.00  0.00    -0.266 OA
ATOM     24  H16 NON d   1     -44.327  16.574  -3.396  0.00  0.00     0.169 HD
BRANCH  22  25
ATOM     25  C16 NON d   1     -46.530  16.775  -4.509  0.00  0.00     0.124 A 
ATOM     26  C17 NON d   1     -46.687  16.381  -3.182  0.00  0.00     0.037 A 
ATOM     27  C18 NON d   1     -47.828  15.666  -2.831  0.00  0.00     0.004 A 
ATOM     28  C19 NON d   1     -48.771  15.371  -3.809  0.00  0.00     0.019 A 
ATOM     29  C20 NON d   1     -48.534  15.806  -5.107  0.00  0.00     0.117 A 
ATOM     30  N3  NON d   1     -47.435  16.505  -5.491  0.00  0.00    -0.256 NA
ENDBRANCH  22  25
ENDBRANCH   4  21
TORSDOF 5
ENDMDL
