MODEL 1
REMARK VINA RESULT:   -16.763      0.000      0.000
REMARK INTER + INTRA:         -19.738
REMARK INTER:                 -18.553
REMARK INTRA:                  -1.185
REMARK CONF_INDEPENDENT:        1.790
REMARK UNBOUND:                -1.185
REMARK  6 active torsions:
REMARK  status: ('A' for Active; 'I' for Inactive)
REMARK    1  A    between atoms: C1_2  and  C2_3 
REMARK       I    between atoms: C1_2  and  N1_15 
REMARK    2  A    between atoms: C2_3  and  S1_4 
REMARK    3  A    between atoms: S1_4  and  C3_5 
REMARK    4  A    between atoms: N1_15  and  N2_16 
REMARK       I    between atoms: N2_16  and  C11_17 
REMARK    5  A    between atoms: C11_17  and  C12_19 
REMARK    6  A    between atoms: C12_19  and  C13_20 
ROOT
ATOM      1  O1  NON d   1     -48.191  15.566  -5.810  0.00  0.00    -0.271 OA
ATOM      2  C1  NON d   1     -47.718  16.039  -4.778  0.00  0.00     0.245 C 
ATOM      3  N1  NON d   1     -48.499  16.239  -3.653  0.00  0.00    -0.267 N 
ATOM      4  H10 NON d   1     -48.124  16.435  -2.724  0.00  0.00     0.190 HD
ENDROOT
BRANCH   3   5
ATOM      5  N2  NON d   1     -49.851  15.876  -3.709  0.00  0.00    -0.267 N 
ATOM      6  C11 NON d   1     -50.637  16.089  -2.584  0.00  0.00     0.240 C 
ATOM      7  O4  NON d   1     -50.170  16.631  -1.585  0.00  0.00    -0.272 OA
ATOM      8  H11 NON d   1     -50.122  15.267  -4.481  0.00  0.00     0.190 HD
BRANCH   6   9
ATOM      9  C12 NON d   1     -52.058  15.573  -2.768  0.00  0.00     0.145 C 
BRANCH   9  10
ATOM     10  C13 NON d   1     -53.198  16.490  -2.424  0.00  0.00    -0.021 A 
ATOM     11  C14 NON d   1     -54.493  16.505  -2.903  0.00  0.00     0.097 A 
ATOM     12  N3  NON d   1     -55.177  17.526  -2.302  0.00  0.00    -0.365 N 
ATOM     13  C15 NON d   1     -54.361  18.191  -1.421  0.00  0.00     0.042 A 
ATOM     14  H15 NON d   1     -56.144  17.761  -2.477  0.00  0.00     0.165 HD
ATOM     15  C16 NON d   1     -54.632  19.288  -0.593  0.00  0.00     0.030 A 
ATOM     16  C20 NON d   1     -53.115  17.567  -1.472  0.00  0.00    -0.001 A 
ATOM     17  C17 NON d   1     -53.595  19.762   0.212  0.00  0.00     0.002 A 
ATOM     18  C18 NON d   1     -52.339  19.163   0.189  0.00  0.00     0.001 A 
ATOM     19  C19 NON d   1     -52.085  18.068  -0.645  0.00  0.00     0.014 A 
ENDBRANCH   9  10
ENDBRANCH   6   9
ENDBRANCH   3   5
BRANCH   2  20
ATOM     20  C2  NON d   1     -46.260  16.422  -4.574  0.00  0.00     0.184 C 
BRANCH  20  21
ATOM     21  S1  NON d   1     -45.678  17.629  -5.810  0.00  0.00    -0.121 SA
BRANCH  21  22
ATOM     22  C3  NON d   1     -44.126  18.246  -5.160  0.00  0.00     0.003 A 
ATOM     23  C4  NON d   1     -43.524  19.458  -5.514  0.00  0.00     0.021 A 
ATOM     24  C5  NON d   1     -42.291  19.832  -4.969  0.00  0.00     0.041 A 
ATOM     25  C6  NON d   1     -41.655  19.008  -4.045  0.00  0.00     0.102 A 
ATOM     26  C7  NON d   1     -42.246  17.800  -3.675  0.00  0.00     0.103 A 
ATOM     27  O3  NON d   1     -40.457  19.447  -3.547  0.00  0.00    -0.346 OA
ATOM     28  C8  NON d   1     -43.472  17.426  -4.227  0.00  0.00     0.058 A 
ATOM     29  O2  NON d   1     -41.689  16.938  -2.765  0.00  0.00    -0.346 OA
ATOM     30  C9  NON d   1     -40.319  17.255  -2.494  0.00  0.00     0.202 C 
ATOM     31  C10 NON d   1     -40.112  18.753  -2.343  0.00  0.00     0.202 C 
ENDBRANCH  21  22
ENDBRANCH  20  21
ENDBRANCH   2  20
TORSDOF 6
ENDMDL
MODEL 2
REMARK VINA RESULT:   -13.982      1.376      2.258
REMARK INTER + INTRA:         -16.530
REMARK INTER:                 -15.772
REMARK INTRA:                  -0.758
REMARK CONF_INDEPENDENT:        1.790
REMARK UNBOUND:                -0.758
REMARK  6 active torsions:
REMARK  status: ('A' for Active; 'I' for Inactive)
REMARK    1  A    between atoms: C1_2  and  C2_3 
REMARK       I    between atoms: C1_2  and  N1_15 
REMARK    2  A    between atoms: C2_3  and  S1_4 
REMARK    3  A    between atoms: S1_4  and  C3_5 
REMARK    4  A    between atoms: N1_15  and  N2_16 
REMARK       I    between atoms: N2_16  and  C11_17 
REMARK    5  A    between atoms: C11_17  and  C12_19 
REMARK    6  A    between atoms: C12_19  and  C13_20 
ROOT
ATOM      1  O1  NON d   1     -48.512  15.343  -5.799  0.00  0.00    -0.271 OA
ATOM      2  C1  NON d   1     -47.645  15.931  -5.155  0.00  0.00     0.245 C 
ATOM      3  N1  NON d   1     -47.950  16.609  -3.987  0.00  0.00    -0.267 N 
ATOM      4  H10 NON d   1     -47.253  16.938  -3.318  0.00  0.00     0.190 HD
ENDROOT
BRANCH   3   5
ATOM      5  N2  NON d   1     -49.278  16.601  -3.542  0.00  0.00    -0.267 N 
ATOM      6  C11 NON d   1     -49.863  15.378  -3.239  0.00  0.00     0.240 C 
ATOM      7  O4  NON d   1     -49.214  14.337  -3.308  0.00  0.00    -0.272 OA
ATOM      8  H11 NON d   1     -49.808  17.460  -3.689  0.00  0.00     0.190 HD
BRANCH   6   9
ATOM      9  C12 NON d   1     -51.328  15.521  -2.847  0.00  0.00     0.145 C 
BRANCH   9  10
ATOM     10  C13 NON d   1     -51.710  16.640  -1.920  0.00  0.00    -0.021 A 
ATOM     11  C14 NON d   1     -50.946  17.315  -0.988  0.00  0.00     0.097 A 
ATOM     12  N3  NON d   1     -51.725  18.257  -0.373  0.00  0.00    -0.365 N 
ATOM     13  C15 NON d   1     -52.998  18.229  -0.885  0.00  0.00     0.042 A 
ATOM     14  H15 NON d   1     -51.412  18.886   0.354  0.00  0.00     0.165 HD
ATOM     15  C16 NON d   1     -54.117  19.007  -0.561  0.00  0.00     0.030 A 
ATOM     16  C20 NON d   1     -53.023  17.229  -1.856  0.00  0.00    -0.001 A 
ATOM     17  C17 NON d   1     -55.302  18.757  -1.255  0.00  0.00     0.002 A 
ATOM     18  C18 NON d   1     -55.364  17.768  -2.233  0.00  0.00     0.001 A 
ATOM     19  C19 NON d   1     -54.236  16.998  -2.544  0.00  0.00     0.014 A 
ENDBRANCH   9  10
ENDBRANCH   6   9
ENDBRANCH   3   5
BRANCH   2  20
ATOM     20  C2  NON d   1     -46.164  15.969  -5.503  0.00  0.00     0.184 C 
BRANCH  20  21
ATOM     21  S1  NON d   1     -45.565  17.663  -5.810  0.00  0.00    -0.121 SA
BRANCH  21  22
ATOM     22  C3  NON d   1     -44.022  17.780  -4.904  0.00  0.00     0.003 A 
ATOM     23  C4  NON d   1     -43.639  16.948  -3.848  0.00  0.00     0.021 A 
ATOM     24  C5  NON d   1     -42.422  17.147  -3.185  0.00  0.00     0.041 A 
ATOM     25  C6  NON d   1     -41.564  18.165  -3.588  0.00  0.00     0.102 A 
ATOM     26  C7  NON d   1     -41.928  18.998  -4.645  0.00  0.00     0.103 A 
ATOM     27  O3  NON d   1     -40.386  18.290  -2.899  0.00  0.00    -0.346 OA
ATOM     28  C8  NON d   1     -43.146  18.804  -5.298  0.00  0.00     0.058 A 
ATOM     29  O2  NON d   1     -41.135  20.017  -5.108  0.00  0.00    -0.346 OA
ATOM     30  C9  NON d   1     -40.072  20.325  -4.198  0.00  0.00     0.202 C 
ATOM     31  C10 NON d   1     -39.434  19.065  -3.636  0.00  0.00     0.202 C 
ENDBRANCH  21  22
ENDBRANCH  20  21
ENDBRANCH   2  20
TORSDOF 6
ENDMDL
MODEL 3
REMARK VINA RESULT:   -13.851      4.366     11.445
REMARK INTER + INTRA:         -17.267
REMARK INTER:                 -15.641
REMARK INTRA:                  -1.626
REMARK CONF_INDEPENDENT:        1.790
REMARK UNBOUND:                -1.626
REMARK  6 active torsions:
REMARK  status: ('A' for Active; 'I' for Inactive)
REMARK    1  A    between atoms: C1_2  and  C2_3 
REMARK       I    between atoms: C1_2  and  N1_15 
REMARK    2  A    between atoms: C2_3  and  S1_4 
REMARK    3  A    between atoms: S1_4  and  C3_5 
REMARK    4  A    between atoms: N1_15  and  N2_16 
REMARK       I    between atoms: N2_16  and  C11_17 
REMARK    5  A    between atoms: C11_17  and  C12_19 
REMARK    6  A    between atoms: C12_19  and  C13_20 
ROOT
ATOM      1  O1  NON d   1     -44.308  19.031  -5.205  0.00  0.00    -0.271 OA
ATOM      2  C1  NON d   1     -43.619  18.026  -5.042  0.00  0.00     0.245 C 
ATOM      3  N1  NON d   1     -42.248  18.052  -5.233  0.00  0.00    -0.267 N 
ATOM      4  H10 NON d   1     -41.613  17.316  -4.924  0.00  0.00     0.190 HD
ENDROOT
BRANCH   3   5
ATOM      5  N2  NON d   1     -41.653  19.265  -5.605  0.00  0.00    -0.267 N 
ATOM      6  C11 NON d   1     -40.313  19.462  -5.296  0.00  0.00     0.240 C 
ATOM      7  O4  NON d   1     -39.655  18.575  -4.758  0.00  0.00    -0.272 OA
ATOM      8  H11 NON d   1     -42.289  20.018  -5.868  0.00  0.00     0.190 HD
BRANCH   6   9
ATOM      9  C12 NON d   1     -39.830  20.852  -5.690  0.00  0.00     0.145 C 
BRANCH   9  10
ATOM     10  C13 NON d   1     -39.951  21.266  -7.129  0.00  0.00    -0.021 A 
ATOM     11  C14 NON d   1     -40.148  20.493  -8.257  0.00  0.00     0.097 A 
ATOM     12  N3  NON d   1     -40.190  21.309  -9.354  0.00  0.00    -0.365 N 
ATOM     13  C15 NON d   1     -40.032  22.620  -8.977  0.00  0.00     0.042 A 
ATOM     14  H15 NON d   1     -40.320  20.998 -10.306  0.00  0.00     0.165 HD
ATOM     15  C16 NON d   1     -40.010  23.785  -9.754  0.00  0.00     0.030 A 
ATOM     16  C20 NON d   1     -39.881  22.629  -7.591  0.00  0.00    -0.001 A 
ATOM     17  C17 NON d   1     -39.831  25.001  -9.092  0.00  0.00     0.002 A 
ATOM     18  C18 NON d   1     -39.679  25.048  -7.710  0.00  0.00     0.001 A 
ATOM     19  C19 NON d   1     -39.702  23.874  -6.948  0.00  0.00     0.014 A 
ENDBRANCH   9  10
ENDBRANCH   6   9
ENDBRANCH   3   5
BRANCH   2  20
ATOM     20  C2  NON d   1     -44.137  16.669  -4.590  0.00  0.00     0.184 C 
BRANCH  20  21
ATOM     21  S1  NON d   1     -45.681  16.196  -5.435  0.00  0.00    -0.121 SA
BRANCH  21  22
ATOM     22  C3  NON d   1     -46.973  16.459  -4.221  0.00  0.00     0.003 A 
ATOM     23  C4  NON d   1     -46.846  17.220  -3.055  0.00  0.00     0.021 A 
ATOM     24  C5  NON d   1     -47.912  17.336  -2.155  0.00  0.00     0.041 A 
ATOM     25  C6  NON d   1     -49.125  16.711  -2.423  0.00  0.00     0.102 A 
ATOM     26  C7  NON d   1     -49.272  15.956  -3.586  0.00  0.00     0.103 A 
ATOM     27  O3  NON d   1     -50.125  16.880  -1.502  0.00  0.00    -0.346 OA
ATOM     28  C8  NON d   1     -48.204  15.835  -4.478  0.00  0.00     0.058 A 
ATOM     29  O2  NON d   1     -50.437  15.318  -3.928  0.00  0.00    -0.346 OA
ATOM     30  C9  NON d   1     -51.352  15.248  -2.829  0.00  0.00     0.202 C 
ATOM     31  C10 NON d   1     -51.404  16.558  -2.060  0.00  0.00     0.202 C 
ENDBRANCH  21  22
ENDBRANCH  20  21
ENDBRANCH   2  20
TORSDOF 6
ENDMDL
