MODEL 1
REMARK VINA RESULT:   -11.530      0.000      0.000
REMARK INTER + INTRA:         -13.045
REMARK INTER:                 -12.127
REMARK INTRA:                  -0.918
REMARK CONF_INDEPENDENT:        0.597
REMARK UNBOUND:                -0.918
REMARK  2 active torsions:
REMARK  status: ('A' for Active; 'I' for Inactive)
REMARK       I    between atoms: C1_2  and  N1_3 
REMARK    1  A    between atoms: C1_2  and  C2_5 
REMARK    2  A    between atoms: N1_3  and  O2_4 
ROOT
ATOM      1  C2  NON d   1     -48.073  16.310  -3.736  0.00  0.00     0.051 A 
ATOM      2  C3  NON d   1     -47.576  17.255  -2.811  0.00  0.00     0.018 A 
ATOM      3  C4  NON d   1     -48.189  17.466  -1.574  0.00  0.00     0.001 A 
ATOM      4  C5  NON d   1     -49.317  16.734  -1.232  0.00  0.00     0.001 A 
ATOM      5  C6  NON d   1     -49.827  15.796  -2.126  0.00  0.00     0.020 A 
ATOM      6  C7  NON d   1     -49.216  15.576  -3.374  0.00  0.00     0.026 A 
ATOM      7 Br1  NON d   1     -50.065  14.255  -4.447  0.00  0.00    -0.050 Br
ENDROOT
BRANCH   1   8
ATOM      8  C1  NON d   1     -47.294  16.212  -5.012  0.00  0.00     0.276 C 
ATOM      9  O1  NON d   1     -47.192  17.185  -5.763  0.00  0.00    -0.265 OA
ATOM     10  N1  NON d   1     -46.690  15.030  -5.345  0.00  0.00    -0.233 N 
ATOM     11  H1  NON d   1     -46.712  14.175  -4.800  0.00  0.00     0.197 HD
BRANCH  10  12
ATOM     12  O2  NON d   1     -45.972  15.005  -6.560  0.00  0.00    -0.287 OA
ATOM     13  H2  NON d   1     -46.488  15.633  -7.113  0.00  0.00     0.244 HD
ENDBRANCH  10  12
ENDBRANCH   1   8
TORSDOF 2
ENDMDL
MODEL 2
REMARK VINA RESULT:   -11.055      1.978      2.875
REMARK INTER + INTRA:         -12.398
REMARK INTER:                 -11.652
REMARK INTRA:                  -0.747
REMARK CONF_INDEPENDENT:        0.597
REMARK UNBOUND:                -0.747
REMARK  2 active torsions:
REMARK  status: ('A' for Active; 'I' for Inactive)
REMARK       I    between atoms: C1_2  and  N1_3 
REMARK    1  A    between atoms: C1_2  and  C2_5 
REMARK    2  A    between atoms: N1_3  and  O2_4 
ROOT
ATOM      1  C2  NON d   1     -48.512  15.612  -4.557  0.00  0.00     0.051 A 
ATOM      2  C3  NON d   1     -49.353  14.655  -5.167  0.00  0.00     0.018 A 
ATOM      3  C4  NON d   1     -50.438  14.093  -4.491  0.00  0.00     0.001 A 
ATOM      4  C5  NON d   1     -50.709  14.478  -3.185  0.00  0.00     0.001 A 
ATOM      5  C6  NON d   1     -49.895  15.420  -2.561  0.00  0.00     0.020 A 
ATOM      6  C7  NON d   1     -48.799  15.991  -3.234  0.00  0.00     0.026 A 
ATOM      7 Br1  NON d   1     -47.815  17.255  -2.209  0.00  0.00    -0.050 Br
ENDROOT
BRANCH   1   8
ATOM      8  C1  NON d   1     -47.396  16.109  -5.425  0.00  0.00     0.276 C 
ATOM      9  O1  NON d   1     -46.542  15.333  -5.859  0.00  0.00    -0.265 OA
ATOM     10  N1  NON d   1     -47.327  17.440  -5.738  0.00  0.00    -0.233 N 
ATOM     11  H1  NON d   1     -47.975  18.158  -5.435  0.00  0.00     0.197 HD
BRANCH  10  12
ATOM     12  O2  NON d   1     -46.252  17.843  -6.560  0.00  0.00    -0.287 OA
ATOM     13  H2  NON d   1     -46.276  17.165  -7.271  0.00  0.00     0.244 HD
ENDBRANCH  10  12
ENDBRANCH   1   8
TORSDOF 2
ENDMDL
MODEL 3
REMARK VINA RESULT:    -8.586      5.907      6.846
REMARK INTER + INTRA:         -10.081
REMARK INTER:                  -9.183
REMARK INTRA:                  -0.898
REMARK CONF_INDEPENDENT:        0.597
REMARK UNBOUND:                -0.898
REMARK  2 active torsions:
REMARK  status: ('A' for Active; 'I' for Inactive)
REMARK       I    between atoms: C1_2  and  N1_3 
REMARK    1  A    between atoms: C1_2  and  C2_5 
REMARK    2  A    between atoms: N1_3  and  O2_4 
ROOT
ATOM      1  C2  NON d   1     -42.723  18.305  -4.424  0.00  0.00     0.051 A 
ATOM      2  C3  NON d   1     -42.636  17.632  -3.186  0.00  0.00     0.018 A 
ATOM      3  C4  NON d   1     -41.441  17.569  -2.466  0.00  0.00     0.001 A 
ATOM      4  C5  NON d   1     -40.301  18.180  -2.969  0.00  0.00     0.001 A 
ATOM      5  C6  NON d   1     -40.360  18.850  -4.189  0.00  0.00     0.020 A 
ATOM      6  C7  NON d   1     -41.560  18.919  -4.921  0.00  0.00     0.026 A 
ATOM      7 Br1  NON d   1     -41.431  19.878  -6.558  0.00  0.00    -0.050 Br
ENDROOT
BRANCH   1   8
ATOM      8  C1  NON d   1     -44.079  18.274  -5.060  0.00  0.00     0.276 C 
ATOM      9  O1  NON d   1     -44.614  19.313  -5.453  0.00  0.00    -0.265 OA
ATOM     10  N1  NON d   1     -44.729  17.078  -5.203  0.00  0.00    -0.233 N 
ATOM     11  H1  NON d   1     -44.380  16.171  -4.915  0.00  0.00     0.197 HD
BRANCH  10  12
ATOM     12  O2  NON d   1     -46.003  17.118  -5.810  0.00  0.00    -0.287 OA
ATOM     13  H2  NON d   1     -46.328  18.005  -5.540  0.00  0.00     0.244 HD
ENDBRANCH  10  12
ENDBRANCH   1   8
TORSDOF 2
ENDMDL
