MODEL 1
REMARK VINA RESULT:   -15.807      0.000      0.000
REMARK INTER + INTRA:         -18.776
REMARK INTER:                 -18.194
REMARK INTRA:                  -0.582
REMARK CONF_INDEPENDENT:        2.386
REMARK UNBOUND:                -0.582
REMARK  8 active torsions:
REMARK  status: ('A' for Active; 'I' for Inactive)
REMARK    1  A    between atoms: C7_7  and  N1_8 
REMARK    2  A    between atoms: C9_12  and  S1_13 
REMARK    3  A    between atoms: S1_13  and  C10_14 
REMARK    4  A    between atoms: C10_14  and  C11_15 
REMARK       I    between atoms: C11_15  and  N4_17 
REMARK    5  A    between atoms: C12_18  and  N4_17 
REMARK    6  A    between atoms: C12_18  and  C13_19 
REMARK    7  A    between atoms: C12_18  and  C22_29 
REMARK    8  A    between atoms: C13_19  and  C14_20 
ROOT
ATOM      1  C11 NON d   1     -45.815  16.876  -4.687  0.00  0.00     0.207 C 
ATOM      2  O1  NON d   1     -46.148  17.259  -5.810  0.00  0.00    -0.279 OA
ATOM      3  N4  NON d   1     -46.726  16.473  -3.713  0.00  0.00    -0.247 NA
ATOM      4  H16 NON d   1     -46.375  15.758  -3.090  0.00  0.00     0.131 HD
ENDROOT
BRANCH   1   5
ATOM      5  C10 NON d   1     -44.344  16.919  -4.235  0.00  0.00     0.173 C 
BRANCH   5   6
ATOM      6  S1  NON d   1     -43.596  18.527  -4.671  0.00  0.00    -0.124 SA
BRANCH   6   7
ATOM      7  C9  NON d   1     -41.941  18.461  -3.922  0.00  0.00     0.214 C 
ATOM      8  N3  NON d   1     -42.106  18.000  -2.510  0.00  0.00    -0.232 NA
ATOM      9  N2  NON d   1     -41.029  18.678  -1.739  0.00  0.00    -0.246 NA
ATOM     10  H12 NON d   1     -43.004  18.392  -2.222  0.00  0.00     0.143 HD
ATOM     11  C8  NON d   1     -40.273  19.432  -2.764  0.00  0.00     0.203 C 
ATOM     12  H11 NON d   1     -40.399  17.981  -1.335  0.00  0.00     0.142 HD
ATOM     13  N1  NON d   1     -41.020  19.616  -4.003  0.00  0.00    -0.242 NA
BRANCH  13  14
ATOM     14  C7  NON d   1     -40.385  19.972  -5.202  0.00  0.00     0.020 A 
ATOM     15  C5  NON d   1     -39.935  21.263  -5.601  0.00  0.00    -0.041 A 
ATOM     16  C4  NON d   1     -39.305  21.441  -6.866  0.00  0.00     0.009 A 
ATOM     17  C6  NON d   1     -40.038  22.541  -4.805  0.00  0.00     0.050 C 
ATOM     18  C3  NON d   1     -39.145  20.400  -7.769  0.00  0.00     0.007 A 
ATOM     19  C2  NON d   1     -39.625  19.147  -7.438  0.00  0.00    -0.060 A 
ATOM     20  C1  NON d   1     -39.564  18.006  -8.410  0.00  0.00     0.048 C 
ATOM     21  C23 NON d   1     -40.248  18.969  -6.189  0.00  0.00     0.031 A 
ENDBRANCH  13  14
ENDBRANCH   6   7
ENDBRANCH   5   6
ENDBRANCH   1   5
BRANCH   3  22
ATOM     22  C12 NON d   1     -48.140  16.185  -4.101  0.00  0.00     0.168 C 
BRANCH  22  23
ATOM     23  C13 NON d   1     -49.037  15.615  -2.984  0.00  0.00     0.071 C 
BRANCH  23  24
ATOM     24  C14 NON d   1     -49.567  16.489  -1.866  0.00  0.00    -0.028 A 
ATOM     25  C15 NON d   1     -50.953  16.880  -1.720  0.00  0.00    -0.002 A 
ATOM     26  C16 NON d   1     -52.133  16.581  -2.435  0.00  0.00     0.014 A 
ATOM     27  C20 NON d   1     -51.053  17.718  -0.609  0.00  0.00     0.042 A 
ATOM     28  C17 NON d   1     -53.354  17.140  -2.030  0.00  0.00     0.001 A 
ATOM     29  C18 NON d   1     -53.411  17.998  -0.935  0.00  0.00     0.002 A 
ATOM     30  C19 NON d   1     -52.262  18.305  -0.202  0.00  0.00     0.030 A 
ATOM     31  N5  NON d   1     -49.795  17.796  -0.062  0.00  0.00    -0.365 N 
ATOM     32  C21 NON d   1     -48.907  17.048  -0.790  0.00  0.00     0.096 A 
ATOM     33  H24 NON d   1     -49.563  18.299   0.781  0.00  0.00     0.165 HD
ENDBRANCH  23  24
ENDBRANCH  22  23
BRANCH  22  34
ATOM     34  C22 NON d   1     -48.309  15.252  -5.331  0.00  0.00     0.192 C 
ATOM     35  O2  NON d   1     -47.308  15.222  -6.114  0.00  0.00    -0.647 OA
ATOM     36  O3  NON d   1     -49.410  14.629  -5.406  0.00  0.00    -0.647 OA
ENDBRANCH  22  34
ENDBRANCH   3  22
TORSDOF 8
ENDMDL
MODEL 2
REMARK VINA RESULT:   -15.246      0.627      1.905
REMARK INTER + INTRA:         -18.133
REMARK INTER:                 -17.632
REMARK INTRA:                  -0.501
REMARK CONF_INDEPENDENT:        2.386
REMARK UNBOUND:                -0.501
REMARK  8 active torsions:
REMARK  status: ('A' for Active; 'I' for Inactive)
REMARK    1  A    between atoms: C7_7  and  N1_8 
REMARK    2  A    between atoms: C9_12  and  S1_13 
REMARK    3  A    between atoms: S1_13  and  C10_14 
REMARK    4  A    between atoms: C10_14  and  C11_15 
REMARK       I    between atoms: C11_15  and  N4_17 
REMARK    5  A    between atoms: C12_18  and  N4_17 
REMARK    6  A    between atoms: C12_18  and  C13_19 
REMARK    7  A    between atoms: C12_18  and  C22_29 
REMARK    8  A    between atoms: C13_19  and  C14_20 
ROOT
ATOM      1  C11 NON d   1     -45.578  16.917  -4.681  0.00  0.00     0.207 C 
ATOM      2  O1  NON d   1     -45.937  17.255  -5.810  0.00  0.00    -0.279 OA
ATOM      3  N4  NON d   1     -46.466  16.554  -3.670  0.00  0.00    -0.247 NA
ATOM      4  H16 NON d   1     -46.102  15.865  -3.028  0.00  0.00     0.131 HD
ENDROOT
BRANCH   1   5
ATOM      5  C10 NON d   1     -44.097  16.976  -4.265  0.00  0.00     0.173 C 
BRANCH   5   6
ATOM      6  S1  NON d   1     -43.349  18.548  -4.818  0.00  0.00    -0.124 SA
BRANCH   6   7
ATOM      7  C9  NON d   1     -41.763  18.616  -3.932  0.00  0.00     0.214 C 
ATOM      8  N3  NON d   1     -41.930  17.861  -2.654  0.00  0.00    -0.232 NA
ATOM      9  N2  NON d   1     -41.050  18.545  -1.667  0.00  0.00    -0.246 NA
ATOM     10  H12 NON d   1     -42.902  18.029  -2.388  0.00  0.00     0.143 HD
ATOM     11  C8  NON d   1     -40.383  19.605  -2.455  0.00  0.00     0.203 C 
ATOM     12  H11 NON d   1     -40.329  17.898  -1.338  0.00  0.00     0.142 HD
ATOM     13  N1  NON d   1     -41.070  19.904  -3.706  0.00  0.00    -0.242 NA
BRANCH  13  14
ATOM     14  C7  NON d   1     -40.436  20.594  -4.749  0.00  0.00     0.020 A 
ATOM     15  C5  NON d   1     -40.083  20.097  -6.037  0.00  0.00    -0.041 A 
ATOM     16  C4  NON d   1     -39.438  20.948  -6.980  0.00  0.00     0.009 A 
ATOM     17  C6  NON d   1     -40.327  18.705  -6.564  0.00  0.00     0.050 C 
ATOM     18  C3  NON d   1     -39.089  22.257  -6.682  0.00  0.00     0.007 A 
ATOM     19  C2  NON d   1     -39.363  22.752  -5.421  0.00  0.00    -0.060 A 
ATOM     20  C1  NON d   1     -38.925  24.127  -5.011  0.00  0.00     0.048 C 
ATOM     21  C23 NON d   1     -39.999  21.913  -4.487  0.00  0.00     0.031 A 
ENDBRANCH  13  14
ENDBRANCH   6   7
ENDBRANCH   5   6
ENDBRANCH   1   5
BRANCH   3  22
ATOM     22  C12 NON d   1     -47.889  16.253  -4.013  0.00  0.00     0.168 C 
BRANCH  22  23
ATOM     23  C13 NON d   1     -48.735  15.641  -2.878  0.00  0.00     0.071 C 
BRANCH  23  24
ATOM     24  C14 NON d   1     -49.464  16.508  -1.873  0.00  0.00    -0.028 A 
ATOM     25  C15 NON d   1     -50.891  16.750  -1.884  0.00  0.00    -0.002 A 
ATOM     26  C16 NON d   1     -51.955  16.286  -2.688  0.00  0.00     0.014 A 
ATOM     27  C20 NON d   1     -51.190  17.629  -0.843  0.00  0.00     0.042 A 
ATOM     28  C17 NON d   1     -53.262  16.727  -2.436  0.00  0.00     0.001 A 
ATOM     29  C18 NON d   1     -53.519  17.630  -1.408  0.00  0.00     0.002 A 
ATOM     30  C19 NON d   1     -52.489  18.100  -0.590  0.00  0.00     0.030 A 
ATOM     31  N5  NON d   1     -50.009  17.873  -0.185  0.00  0.00    -0.365 N 
ATOM     32  C21 NON d   1     -48.978  17.191  -0.777  0.00  0.00     0.096 A 
ATOM     33  H24 NON d   1     -49.918  18.442   0.643  0.00  0.00     0.165 HD
ENDBRANCH  23  24
ENDBRANCH  22  23
BRANCH  22  34
ATOM     34  C22 NON d   1     -48.089  15.348  -5.259  0.00  0.00     0.192 C 
ATOM     35  O2  NON d   1     -49.283  14.948  -5.436  0.00  0.00    -0.647 OA
ATOM     36  O3  NON d   1     -47.053  15.124  -5.954  0.00  0.00    -0.647 OA
ENDBRANCH  22  34
ENDBRANCH   3  22
TORSDOF 8
ENDMDL
MODEL 3
REMARK VINA RESULT:   -14.906      1.220      1.650
REMARK INTER + INTRA:         -18.182
REMARK INTER:                 -17.293
REMARK INTRA:                  -0.889
REMARK CONF_INDEPENDENT:        2.386
REMARK UNBOUND:                -0.889
REMARK  8 active torsions:
REMARK  status: ('A' for Active; 'I' for Inactive)
REMARK    1  A    between atoms: C7_7  and  N1_8 
REMARK    2  A    between atoms: C9_12  and  S1_13 
REMARK    3  A    between atoms: S1_13  and  C10_14 
REMARK    4  A    between atoms: C10_14  and  C11_15 
REMARK       I    between atoms: C11_15  and  N4_17 
REMARK    5  A    between atoms: C12_18  and  N4_17 
REMARK    6  A    between atoms: C12_18  and  C13_19 
REMARK    7  A    between atoms: C12_18  and  C22_29 
REMARK    8  A    between atoms: C13_19  and  C14_20 
ROOT
ATOM      1  C11 NON d   1     -45.019  17.218  -4.686  0.00  0.00     0.207 C 
ATOM      2  O1  NON d   1     -45.316  17.630  -5.808  0.00  0.00    -0.279 OA
ATOM      3  N4  NON d   1     -45.961  16.810  -3.743  0.00  0.00    -0.247 NA
ATOM      4  H16 NON d   1     -45.638  16.077  -3.127  0.00  0.00     0.131 HD
ENDROOT
BRANCH   1   5
ATOM      5  C10 NON d   1     -43.559  17.225  -4.196  0.00  0.00     0.173 C 
BRANCH   5   6
ATOM      6  S1  NON d   1     -42.736  18.779  -4.689  0.00  0.00    -0.124 SA
BRANCH   6   7
ATOM      7  C9  NON d   1     -41.074  18.646  -3.964  0.00  0.00     0.214 C 
ATOM      8  N3  NON d   1     -41.231  18.665  -2.477  0.00  0.00    -0.232 NA
ATOM      9  N2  NON d   1     -40.011  19.340  -1.955  0.00  0.00    -0.246 NA
ATOM     10  H12 NON d   1     -42.031  19.279  -2.318  0.00  0.00     0.143 HD
ATOM     11  C8  NON d   1     -39.202  19.606  -3.165  0.00  0.00     0.203 C 
ATOM     12  H11 NON d   1     -39.485  18.695  -1.361  0.00  0.00     0.142 HD
ATOM     13  N1  NON d   1     -39.979  19.542  -4.397  0.00  0.00    -0.242 NA
BRANCH  13  14
ATOM     14  C7  NON d   1     -39.365  19.404  -5.650  0.00  0.00     0.020 A 
ATOM     15  C5  NON d   1     -38.085  18.847  -5.939  0.00  0.00    -0.041 A 
ATOM     16  C4  NON d   1     -37.618  18.788  -7.283  0.00  0.00     0.009 A 
ATOM     17  C6  NON d   1     -37.108  18.270  -4.945  0.00  0.00     0.050 C 
ATOM     18  C3  NON d   1     -38.348  19.298  -8.347  0.00  0.00     0.007 A 
ATOM     19  C2  NON d   1     -39.567  19.900  -8.094  0.00  0.00    -0.060 A 
ATOM     20  C1  NON d   1     -40.357  20.552  -9.190  0.00  0.00     0.048 C 
ATOM     21  C23 NON d   1     -40.030  19.961  -6.767  0.00  0.00     0.031 A 
ENDBRANCH  13  14
ENDBRANCH   6   7
ENDBRANCH   5   6
ENDBRANCH   1   5
BRANCH   3  22
ATOM     22  C12 NON d   1     -47.369  16.556  -4.172  0.00  0.00     0.168 C 
BRANCH  22  23
ATOM     23  C13 NON d   1     -48.253  15.805  -3.155  0.00  0.00     0.071 C 
BRANCH  23  24
ATOM     24  C14 NON d   1     -49.004  16.535  -2.063  0.00  0.00    -0.028 A 
ATOM     25  C15 NON d   1     -50.444  16.667  -2.007  0.00  0.00    -0.002 A 
ATOM     26  C16 NON d   1     -51.501  16.184  -2.809  0.00  0.00     0.014 A 
ATOM     27  C20 NON d   1     -50.768  17.440  -0.892  0.00  0.00     0.042 A 
ATOM     28  C17 NON d   1     -52.827  16.503  -2.481  0.00  0.00     0.001 A 
ATOM     29  C18 NON d   1     -53.110  17.304  -1.377  0.00  0.00     0.002 A 
ATOM     30  C19 NON d   1     -52.087  17.789  -0.560  0.00  0.00     0.030 A 
ATOM     31  N5  NON d   1     -49.583  17.725  -0.256  0.00  0.00    -0.365 N 
ATOM     32  C21 NON d   1     -48.528  17.170  -0.933  0.00  0.00     0.096 A 
ATOM     33  H24 NON d   1     -49.502  18.236   0.610  0.00  0.00     0.165 HD
ENDBRANCH  23  24
ENDBRANCH  22  23
BRANCH  22  34
ATOM     34  C22 NON d   1     -47.522  15.818  -5.530  0.00  0.00     0.192 C 
ATOM     35  O2  NON d   1     -48.565  16.129  -6.187  0.00  0.00    -0.647 OA
ATOM     36  O3  NON d   1     -46.594  15.007  -5.827  0.00  0.00    -0.647 OA
ENDBRANCH  22  34
ENDBRANCH   3  22
TORSDOF 8
ENDMDL
MODEL 4
REMARK VINA RESULT:   -13.490      2.039      2.903
REMARK INTER + INTRA:         -16.840
REMARK INTER:                 -15.877
REMARK INTRA:                  -0.963
REMARK CONF_INDEPENDENT:        2.386
REMARK UNBOUND:                -0.963
REMARK  8 active torsions:
REMARK  status: ('A' for Active; 'I' for Inactive)
REMARK    1  A    between atoms: C7_7  and  N1_8 
REMARK    2  A    between atoms: C9_12  and  S1_13 
REMARK    3  A    between atoms: S1_13  and  C10_14 
REMARK    4  A    between atoms: C10_14  and  C11_15 
REMARK       I    between atoms: C11_15  and  N4_17 
REMARK    5  A    between atoms: C12_18  and  N4_17 
REMARK    6  A    between atoms: C12_18  and  C13_19 
REMARK    7  A    between atoms: C12_18  and  C22_29 
REMARK    8  A    between atoms: C13_19  and  C14_20 
ROOT
ATOM      1  C11 NON d   1     -43.220  17.524  -4.046  0.00  0.00     0.207 C 
ATOM      2  O1  NON d   1     -43.445  16.879  -3.021  0.00  0.00    -0.279 OA
ATOM      3  N4  NON d   1     -44.189  17.794  -5.011  0.00  0.00    -0.247 NA
ATOM      4  H16 NON d   1     -44.059  18.672  -5.493  0.00  0.00     0.131 HD
ENDROOT
BRANCH   1   5
ATOM      5  C10 NON d   1     -41.796  17.996  -4.394  0.00  0.00     0.173 C 
BRANCH   5   6
ATOM      6  S1  NON d   1     -40.815  18.216  -2.869  0.00  0.00    -0.124 SA
BRANCH   6   7
ATOM      7  C9  NON d   1     -39.138  18.572  -3.473  0.00  0.00     0.214 C 
ATOM      8  N3  NON d   1     -38.190  18.307  -2.347  0.00  0.00    -0.232 NA
ATOM      9  N2  NON d   1     -37.079  19.282  -2.521  0.00  0.00    -0.246 NA
ATOM     10  H12 NON d   1     -38.716  18.565  -1.511  0.00  0.00     0.143 HD
ATOM     11  C8  NON d   1     -37.423  19.999  -3.770  0.00  0.00     0.203 C 
ATOM     12  H11 NON d   1     -36.200  18.782  -2.678  0.00  0.00     0.142 HD
ATOM     13  N1  NON d   1     -38.824  19.852  -4.145  0.00  0.00    -0.242 NA
BRANCH  13  14
ATOM     14  C7  NON d   1     -39.274  20.134  -5.443  0.00  0.00     0.020 A 
ATOM     15  C5  NON d   1     -39.877  21.335  -5.916  0.00  0.00    -0.041 A 
ATOM     16  C4  NON d   1     -40.276  21.446  -7.279  0.00  0.00     0.009 A 
ATOM     17  C6  NON d   1     -40.157  22.581  -5.112  0.00  0.00     0.050 C 
ATOM     18  C3  NON d   1     -40.142  20.400  -8.180  0.00  0.00     0.007 A 
ATOM     19  C2  NON d   1     -39.616  19.200  -7.738  0.00  0.00    -0.060 A 
ATOM     20  C1  NON d   1     -39.534  18.006  -8.642  0.00  0.00     0.048 C 
ATOM     21  C23 NON d   1     -39.222  19.087  -6.392  0.00  0.00     0.031 A 
ENDBRANCH  13  14
ENDBRANCH   6   7
ENDBRANCH   5   6
ENDBRANCH   1   5
BRANCH   3  22
ATOM     22  C12 NON d   1     -45.631  17.579  -4.686  0.00  0.00     0.168 C 
BRANCH  22  23
ATOM     23  C13 NON d   1     -45.917  16.869  -3.347  0.00  0.00     0.071 C 
BRANCH  23  24
ATOM     24  C14 NON d   1     -47.302  16.852  -2.736  0.00  0.00    -0.028 A 
ATOM     25  C15 NON d   1     -48.375  15.979  -3.165  0.00  0.00    -0.002 A 
ATOM     26  C16 NON d   1     -48.472  14.952  -4.129  0.00  0.00     0.014 A 
ATOM     27  C20 NON d   1     -49.508  16.280  -2.408  0.00  0.00     0.042 A 
ATOM     28  C17 NON d   1     -49.691  14.283  -4.312  0.00  0.00     0.001 A 
ATOM     29  C18 NON d   1     -50.810  14.630  -3.560  0.00  0.00     0.002 A 
ATOM     30  C19 NON d   1     -50.742  15.636  -2.593  0.00  0.00     0.030 A 
ATOM     31  N5  NON d   1     -49.135  17.254  -1.514  0.00  0.00    -0.365 N 
ATOM     32  C21 NON d   1     -47.816  17.585  -1.685  0.00  0.00     0.096 A 
ATOM     33  H24 NON d   1     -49.735  17.643  -0.803  0.00  0.00     0.165 HD
ENDBRANCH  23  24
ENDBRANCH  22  23
BRANCH  22  34
ATOM     34  C22 NON d   1     -46.448  16.830  -5.774  0.00  0.00     0.192 C 
ATOM     35  O2  NON d   1     -47.464  17.463  -6.203  0.00  0.00    -0.647 OA
ATOM     36  O3  NON d   1     -46.006  15.691  -6.111  0.00  0.00    -0.647 OA
ENDBRANCH  22  34
ENDBRANCH   3  22
TORSDOF 8
ENDMDL
MODEL 5
REMARK VINA RESULT:   -13.326      1.884      2.492
REMARK INTER + INTRA:         -16.907
REMARK INTER:                 -15.713
REMARK INTRA:                  -1.195
REMARK CONF_INDEPENDENT:        2.386
REMARK UNBOUND:                -1.195
REMARK  8 active torsions:
REMARK  status: ('A' for Active; 'I' for Inactive)
REMARK    1  A    between atoms: C7_7  and  N1_8 
REMARK    2  A    between atoms: C9_12  and  S1_13 
REMARK    3  A    between atoms: S1_13  and  C10_14 
REMARK    4  A    between atoms: C10_14  and  C11_15 
REMARK       I    between atoms: C11_15  and  N4_17 
REMARK    5  A    between atoms: C12_18  and  N4_17 
REMARK    6  A    between atoms: C12_18  and  C13_19 
REMARK    7  A    between atoms: C12_18  and  C22_29 
REMARK    8  A    between atoms: C13_19  and  C14_20 
ROOT
ATOM      1  C11 NON d   1     -44.119  17.642  -4.534  0.00  0.00     0.207 C 
ATOM      2  O1  NON d   1     -44.481  18.728  -4.990  0.00  0.00    -0.279 OA
ATOM      3  N4  NON d   1     -44.990  16.734  -3.933  0.00  0.00    -0.247 NA
ATOM      4  H16 NON d   1     -44.728  15.767  -4.056  0.00  0.00     0.131 HD
ENDROOT
BRANCH   1   5
ATOM      5  C10 NON d   1     -42.631  17.248  -4.498  0.00  0.00     0.173 C 
BRANCH   5   6
ATOM      6  S1  NON d   1     -41.758  18.198  -3.207  0.00  0.00    -0.124 SA
BRANCH   6   7
ATOM      7  C9  NON d   1     -39.999  17.874  -3.535  0.00  0.00     0.214 C 
ATOM      8  N3  NON d   1     -39.377  17.432  -2.250  0.00  0.00    -0.232 NA
ATOM      9  N2  NON d   1     -37.976  17.931  -2.291  0.00  0.00    -0.246 NA
ATOM     10  H12 NON d   1     -39.884  17.954  -1.533  0.00  0.00     0.143 HD
ATOM     11  C8  NON d   1     -37.861  18.569  -3.622  0.00  0.00     0.203 C 
ATOM     12  H11 NON d   1     -37.325  17.143  -2.264  0.00  0.00     0.142 HD
ATOM     13  N1  NON d   1     -39.154  18.876  -4.221  0.00  0.00    -0.242 NA
BRANCH  13  14
ATOM     14  C7  NON d   1     -39.288  19.140  -5.592  0.00  0.00     0.020 A 
ATOM     15  C5  NON d   1     -40.423  19.670  -6.272  0.00  0.00    -0.041 A 
ATOM     16  C4  NON d   1     -40.380  19.874  -7.681  0.00  0.00     0.009 A 
ATOM     17  C6  NON d   1     -41.738  20.073  -5.653  0.00  0.00     0.050 C 
ATOM     18  C3  NON d   1     -39.277  19.534  -8.448  0.00  0.00     0.007 A 
ATOM     19  C2  NON d   1     -38.181  18.962  -7.828  0.00  0.00    -0.060 A 
ATOM     20  C1  NON d   1     -36.997  18.487  -8.619  0.00  0.00     0.048 C 
ATOM     21  C23 NON d   1     -38.220  18.757  -6.437  0.00  0.00     0.031 A 
ENDBRANCH  13  14
ENDBRANCH   6   7
ENDBRANCH   5   6
ENDBRANCH   1   5
BRANCH   3  22
ATOM     22  C12 NON d   1     -46.465  16.906  -4.102  0.00  0.00     0.168 C 
BRANCH  22  23
ATOM     23  C13 NON d   1     -47.338  16.342  -2.963  0.00  0.00     0.071 C 
BRANCH  23  24
ATOM     24  C14 NON d   1     -48.666  15.669  -3.238  0.00  0.00    -0.028 A 
ATOM     25  C15 NON d   1     -49.941  16.137  -2.737  0.00  0.00    -0.002 A 
ATOM     26  C16 NON d   1     -50.339  17.255  -1.971  0.00  0.00     0.014 A 
ATOM     27  C20 NON d   1     -50.927  15.241  -3.153  0.00  0.00     0.042 A 
ATOM     28  C17 NON d   1     -51.690  17.424  -1.637  0.00  0.00     0.001 A 
ATOM     29  C18 NON d   1     -52.643  16.494  -2.043  0.00  0.00     0.002 A 
ATOM     30  C19 NON d   1     -52.281  15.383  -2.810  0.00  0.00     0.030 A 
ATOM     31  N5  NON d   1     -50.296  14.295  -3.924  0.00  0.00    -0.365 N 
ATOM     32  C21 NON d   1     -48.952  14.554  -4.000  0.00  0.00     0.096 A 
ATOM     33  H24 NON d   1     -50.761  13.538  -4.401  0.00  0.00     0.165 HD
ENDBRANCH  23  24
ENDBRANCH  22  23
BRANCH  22  34
ATOM     34  C22 NON d   1     -47.045  16.349  -5.430  0.00  0.00     0.192 C 
ATOM     35  O2  NON d   1     -47.818  17.149  -6.046  0.00  0.00    -0.647 OA
ATOM     36  O3  NON d   1     -46.677  15.179  -5.747  0.00  0.00    -0.647 OA
ENDBRANCH  22  34
ENDBRANCH   3  22
TORSDOF 8
ENDMDL
