MODEL 1
REMARK VINA RESULT:   -28.117      0.000      0.000
REMARK INTER + INTRA:         -32.114
REMARK INTER:                 -30.802
REMARK INTRA:                  -1.312
REMARK CONF_INDEPENDENT:        2.685
REMARK UNBOUND:                -1.312
REMARK  9 active torsions:
REMARK  status: ('A' for Active; 'I' for Inactive)
REMARK    1  A    between atoms: O1_2  and  C2_3 
REMARK    2  A    between atoms: C3_4  and  C2_3 
REMARK    3  A    between atoms: C3_4  and  N1_6 
REMARK    4  A    between atoms: N1_6  and  S1_7 
REMARK    5  A    between atoms: S1_7  and  C5_10 
REMARK    6  A    between atoms: C8_13  and  N2_14 
REMARK    7  A    between atoms: N2_14  and  C9_15 
REMARK    8  A    between atoms: C12_18  and  N3_19 
REMARK    9  A    between atoms: C16_24  and  N5_25 
ROOT
ATOM      1  C5  NON d   1     -40.350  19.522  -2.969  0.00  0.00     0.082 A 
ATOM      2  C6  NON d   1     -41.385  18.750  -2.358  0.00  0.00     0.028 A 
ATOM      3  C7  NON d   1     -42.465  18.154  -3.053  0.00  0.00     0.034 A 
ATOM      4  C8  NON d   1     -42.615  18.270  -4.435  0.00  0.00     0.066 A 
ATOM      5  C16 NON d   1     -41.646  19.103  -5.064  0.00  0.00     0.131 A 
ATOM      6  C17 NON d   1     -40.555  19.717  -4.347  0.00  0.00     0.063 A 
ENDROOT
BRANCH   4   7
ATOM      7  N2  NON d   1     -43.654  17.579  -5.128  0.00  0.00    -0.353 N 
ATOM      8  H13 NON d   1     -43.366  17.279  -6.065  0.00  0.00     0.166 HD
BRANCH   7   9
ATOM      9  C9  NON d   1     -44.955  17.117  -4.799  0.00  0.00     0.050 A 
ATOM     10  C10 NON d   1     -45.400  16.855  -3.516  0.00  0.00     0.035 A 
ATOM     11  C11 NON d   1     -46.733  16.459  -3.279  0.00  0.00     0.052 A 
ATOM     12  C12 NON d   1     -47.669  16.284  -4.313  0.00  0.00     0.124 A 
ATOM     13  N4  NON d   1     -47.249  16.505  -5.573  0.00  0.00    -0.241 NA
ATOM     14  C15 NON d   1     -45.943  16.917  -5.776  0.00  0.00     0.148 A 
BRANCH  12  15
ATOM     15  N3  NON d   1     -48.979  15.883  -4.025  0.00  0.00    -0.374 N 
ATOM     16  C13 NON d   1     -49.732  16.806  -3.048  0.00  0.00     0.150 C 
ATOM     17  C14 NON d   1     -49.680  14.642  -4.606  0.00  0.00     0.150 C 
ENDBRANCH  12  15
ENDBRANCH   7   9
ENDBRANCH   4   7
BRANCH   5  18
ATOM     18  N5  NON d   1     -41.733  19.394  -6.510  0.00  0.00    -0.113 N 
ATOM     19  O4  NON d   1     -40.748  19.136  -7.215  0.00  0.00    -0.532 OA
ATOM     20  O5  NON d   1     -42.785  19.891  -6.942  0.00  0.00    -0.532 OA
ENDBRANCH   5  18
BRANCH   1  21
ATOM     21  S1  NON d   1     -39.272  20.057  -2.009  0.00  0.00     0.259 S 
ATOM     22  O2  NON d   1     -40.263  20.245  -0.940  0.00  0.00    -0.201 OA
ATOM     23  O3  NON d   1     -38.525  18.792  -2.066  0.00  0.00    -0.201 OA
BRANCH  21  24
ATOM     24  N1  NON d   1     -38.193  20.592  -1.049  0.00  0.00    -0.309 N 
ATOM     25  H10 NON d   1     -37.777  19.879  -0.453  0.00  0.00     0.172 HD
BRANCH  24  26
ATOM     26  C3  NON d   1     -37.818  21.999  -0.792  0.00  0.00     0.113 C 
ATOM     27  C4  NON d   1     -37.928  22.245   0.714  0.00  0.00     0.035 C 
BRANCH  26  28
ATOM     28  C2  NON d   1     -38.613  23.083  -1.560  0.00  0.00     0.192 C 
BRANCH  28  29
ATOM     29  O1  NON d   1     -40.018  23.065  -1.268  0.00  0.00    -0.394 OA
ATOM     30  C1  NON d   1     -40.800  23.121  -2.594  0.00  0.00     0.201 C 
ENDBRANCH  28  29
ENDBRANCH  26  28
ENDBRANCH  24  26
ENDBRANCH  21  24
ENDBRANCH   1  21
TORSDOF 9
ENDMDL
MODEL 2
REMARK VINA RESULT:   -28.059      1.122      2.122
REMARK INTER + INTRA:         -31.641
REMARK INTER:                 -30.743
REMARK INTRA:                  -0.898
REMARK CONF_INDEPENDENT:        2.685
REMARK UNBOUND:                -0.898
REMARK  9 active torsions:
REMARK  status: ('A' for Active; 'I' for Inactive)
REMARK    1  A    between atoms: O1_2  and  C2_3 
REMARK    2  A    between atoms: C3_4  and  C2_3 
REMARK    3  A    between atoms: C3_4  and  N1_6 
REMARK    4  A    between atoms: N1_6  and  S1_7 
REMARK    5  A    between atoms: S1_7  and  C5_10 
REMARK    6  A    between atoms: C8_13  and  N2_14 
REMARK    7  A    between atoms: N2_14  and  C9_15 
REMARK    8  A    between atoms: C12_18  and  N3_19 
REMARK    9  A    between atoms: C16_24  and  N5_25 
ROOT
ATOM      1  C5  NON d   1     -40.298  19.370  -2.924  0.00  0.00     0.082 A 
ATOM      2  C6  NON d   1     -41.358  18.636  -2.310  0.00  0.00     0.028 A 
ATOM      3  C7  NON d   1     -42.448  18.058  -3.005  0.00  0.00     0.034 A 
ATOM      4  C8  NON d   1     -42.583  18.156  -4.390  0.00  0.00     0.066 A 
ATOM      5  C16 NON d   1     -41.587  18.954  -5.023  0.00  0.00     0.131 A 
ATOM      6  C17 NON d   1     -40.487  19.549  -4.307  0.00  0.00     0.063 A 
ENDROOT
BRANCH   4   7
ATOM      7  N2  NON d   1     -43.634  17.482  -5.081  0.00  0.00    -0.353 N 
ATOM      8  H13 NON d   1     -43.347  17.160  -6.012  0.00  0.00     0.166 HD
BRANCH   7   9
ATOM      9  C9  NON d   1     -44.950  17.061  -4.757  0.00  0.00     0.050 A 
ATOM     10  C10 NON d   1     -45.412  16.828  -3.475  0.00  0.00     0.035 A 
ATOM     11  C11 NON d   1     -46.757  16.473  -3.243  0.00  0.00     0.052 A 
ATOM     12  C12 NON d   1     -47.690  16.311  -4.283  0.00  0.00     0.124 A 
ATOM     13  N4  NON d   1     -47.255  16.504  -5.542  0.00  0.00    -0.241 NA
ATOM     14  C15 NON d   1     -45.936  16.877  -5.740  0.00  0.00     0.148 A 
BRANCH  12  15
ATOM     15  N3  NON d   1     -49.013  15.950  -4.000  0.00  0.00    -0.374 N 
ATOM     16  C13 NON d   1     -49.491  14.665  -4.700  0.00  0.00     0.150 C 
ATOM     17  C14 NON d   1     -49.967  16.718  -3.066  0.00  0.00     0.150 C 
ENDBRANCH  12  15
ENDBRANCH   7   9
ENDBRANCH   4   7
BRANCH   5  18
ATOM     18  N5  NON d   1     -41.654  19.224  -6.475  0.00  0.00    -0.113 N 
ATOM     19  O4  NON d   1     -42.613  19.883  -6.899  0.00  0.00    -0.532 OA
ATOM     20  O5  NON d   1     -40.750  18.769  -7.194  0.00  0.00    -0.532 OA
ENDBRANCH   5  18
BRANCH   1  21
ATOM     21  S1  NON d   1     -39.213  19.891  -1.963  0.00  0.00     0.259 S 
ATOM     22  O2  NON d   1     -38.219  19.924  -3.044  0.00  0.00    -0.201 OA
ATOM     23  O3  NON d   1     -39.985  21.109  -1.675  0.00  0.00    -0.201 OA
BRANCH  21  24
ATOM     24  N1  NON d   1     -38.129  20.413  -1.002  0.00  0.00    -0.309 N 
ATOM     25  H10 NON d   1     -37.949  19.801  -0.208  0.00  0.00     0.172 HD
BRANCH  24  26
ATOM     26  C3  NON d   1     -37.456  21.728  -1.014  0.00  0.00     0.113 C 
ATOM     27  C4  NON d   1     -36.685  21.849  -2.330  0.00  0.00     0.035 C 
BRANCH  26  28
ATOM     28  C2  NON d   1     -36.513  22.039   0.175  0.00  0.00     0.192 C 
BRANCH  28  29
ATOM     29  O1  NON d   1     -37.107  21.765   1.453  0.00  0.00    -0.394 OA
ATOM     30  C1  NON d   1     -36.342  20.604   2.116  0.00  0.00     0.201 C 
ENDBRANCH  28  29
ENDBRANCH  26  28
ENDBRANCH  24  26
ENDBRANCH  21  24
ENDBRANCH   1  21
TORSDOF 9
ENDMDL
MODEL 3
REMARK VINA RESULT:   -26.482      2.119      2.871
REMARK INTER + INTRA:         -29.959
REMARK INTER:                 -29.167
REMARK INTRA:                  -0.792
REMARK CONF_INDEPENDENT:        2.685
REMARK UNBOUND:                -0.792
REMARK  9 active torsions:
REMARK  status: ('A' for Active; 'I' for Inactive)
REMARK    1  A    between atoms: O1_2  and  C2_3 
REMARK    2  A    between atoms: C3_4  and  C2_3 
REMARK    3  A    between atoms: C3_4  and  N1_6 
REMARK    4  A    between atoms: N1_6  and  S1_7 
REMARK    5  A    between atoms: S1_7  and  C5_10 
REMARK    6  A    between atoms: C8_13  and  N2_14 
REMARK    7  A    between atoms: N2_14  and  C9_15 
REMARK    8  A    between atoms: C12_18  and  N3_19 
REMARK    9  A    between atoms: C16_24  and  N5_25 
ROOT
ATOM      1  C5  NON d   1     -40.897  20.522  -3.755  0.00  0.00     0.082 A 
ATOM      2  C6  NON d   1     -41.692  20.669  -4.933  0.00  0.00     0.028 A 
ATOM      3  C7  NON d   1     -42.580  19.688  -5.436  0.00  0.00     0.034 A 
ATOM      4  C8  NON d   1     -42.764  18.458  -4.804  0.00  0.00     0.066 A 
ATOM      5  C16 NON d   1     -41.924  18.245  -3.673  0.00  0.00     0.131 A 
ATOM      6  C17 NON d   1     -41.013  19.246  -3.174  0.00  0.00     0.063 A 
ENDROOT
BRANCH   4   7
ATOM      7  N2  NON d   1     -43.737  17.524  -5.271  0.00  0.00    -0.353 N 
ATOM      8  H13 NON d   1     -43.392  16.960  -6.056  0.00  0.00     0.166 HD
BRANCH   7   9
ATOM      9  C9  NON d   1     -45.029  17.113  -4.851  0.00  0.00     0.050 A 
ATOM     10  C10 NON d   1     -45.415  16.946  -3.534  0.00  0.00     0.035 A 
ATOM     11  C11 NON d   1     -46.743  16.597  -3.208  0.00  0.00     0.052 A 
ATOM     12  C12 NON d   1     -47.732  16.377  -4.183  0.00  0.00     0.124 A 
ATOM     13  N4  NON d   1     -47.370  16.505  -5.473  0.00  0.00    -0.241 NA
ATOM     14  C15 NON d   1     -46.067  16.873  -5.765  0.00  0.00     0.148 A 
BRANCH  12  15
ATOM     15  N3  NON d   1     -49.033  16.025  -3.806  0.00  0.00    -0.374 N 
ATOM     16  C13 NON d   1     -49.585  14.767  -4.504  0.00  0.00     0.150 C 
ATOM     17  C14 NON d   1     -49.899  16.777  -2.778  0.00  0.00     0.150 C 
ENDBRANCH  12  15
ENDBRANCH   7   9
ENDBRANCH   4   7
BRANCH   5  18
ATOM     18  N5  NON d   1     -41.941  16.952  -2.959  0.00  0.00    -0.113 N 
ATOM     19  O4  NON d   1     -41.021  16.715  -2.164  0.00  0.00    -0.532 OA
ATOM     20  O5  NON d   1     -42.871  16.166  -3.200  0.00  0.00    -0.532 OA
ENDBRANCH   5  18
BRANCH   1  21
ATOM     21  S1  NON d   1     -40.016  21.733  -3.398  0.00  0.00     0.259 S 
ATOM     22  O2  NON d   1     -38.861  21.145  -4.090  0.00  0.00    -0.201 OA
ATOM     23  O3  NON d   1     -40.893  22.651  -4.140  0.00  0.00    -0.201 OA
BRANCH  21  24
ATOM     24  N1  NON d   1     -39.135  22.945  -3.040  0.00  0.00    -0.309 N 
ATOM     25  H10 NON d   1     -38.161  22.847  -3.321  0.00  0.00     0.172 HD
BRANCH  24  26
ATOM     26  C3  NON d   1     -39.493  24.124  -2.224  0.00  0.00     0.113 C 
ATOM     27  C4  NON d   1     -40.629  23.715  -1.283  0.00  0.00     0.035 C 
BRANCH  26  28
ATOM     28  C2  NON d   1     -39.887  25.409  -2.993  0.00  0.00     0.192 C 
BRANCH  28  29
ATOM     29  O1  NON d   1     -40.924  26.160  -2.343  0.00  0.00    -0.394 OA
ATOM     30  C1  NON d   1     -41.644  27.023  -3.397  0.00  0.00     0.201 C 
ENDBRANCH  28  29
ENDBRANCH  26  28
ENDBRANCH  24  26
ENDBRANCH  21  24
ENDBRANCH   1  21
TORSDOF 9
ENDMDL
MODEL 4
REMARK VINA RESULT:   -26.290      1.874      2.734
REMARK INTER + INTRA:         -29.947
REMARK INTER:                 -28.975
REMARK INTRA:                  -0.972
REMARK CONF_INDEPENDENT:        2.685
REMARK UNBOUND:                -0.972
REMARK  9 active torsions:
REMARK  status: ('A' for Active; 'I' for Inactive)
REMARK    1  A    between atoms: O1_2  and  C2_3 
REMARK    2  A    between atoms: C3_4  and  C2_3 
REMARK    3  A    between atoms: C3_4  and  N1_6 
REMARK    4  A    between atoms: N1_6  and  S1_7 
REMARK    5  A    between atoms: S1_7  and  C5_10 
REMARK    6  A    between atoms: C8_13  and  N2_14 
REMARK    7  A    between atoms: N2_14  and  C9_15 
REMARK    8  A    between atoms: C12_18  and  N3_19 
REMARK    9  A    between atoms: C16_24  and  N5_25 
ROOT
ATOM      1  C5  NON d   1     -40.878  20.544  -3.820  0.00  0.00     0.082 A 
ATOM      2  C6  NON d   1     -41.677  20.661  -4.997  0.00  0.00     0.028 A 
ATOM      3  C7  NON d   1     -42.554  19.660  -5.481  0.00  0.00     0.034 A 
ATOM      4  C8  NON d   1     -42.721  18.439  -4.827  0.00  0.00     0.066 A 
ATOM      5  C16 NON d   1     -41.876  18.257  -3.696  0.00  0.00     0.131 A 
ATOM      6  C17 NON d   1     -40.976  19.276  -3.216  0.00  0.00     0.063 A 
ENDROOT
BRANCH   4   7
ATOM      7  N2  NON d   1     -43.683  17.485  -5.275  0.00  0.00    -0.353 N 
ATOM      8  H13 NON d   1     -43.319  16.884  -6.023  0.00  0.00     0.166 HD
BRANCH   7   9
ATOM      9  C9  NON d   1     -44.987  17.097  -4.871  0.00  0.00     0.050 A 
ATOM     10  C10 NON d   1     -45.399  16.956  -3.559  0.00  0.00     0.035 A 
ATOM     11  C11 NON d   1     -46.735  16.629  -3.250  0.00  0.00     0.052 A 
ATOM     12  C12 NON d   1     -47.710  16.403  -4.238  0.00  0.00     0.124 A 
ATOM     13  N4  NON d   1     -47.324  16.505  -5.524  0.00  0.00    -0.241 NA
ATOM     14  C15 NON d   1     -46.013  16.853  -5.799  0.00  0.00     0.148 A 
BRANCH  12  15
ATOM     15  N3  NON d   1     -49.022  16.073  -3.879  0.00  0.00    -0.374 N 
ATOM     16  C13 NON d   1     -49.570  14.800  -4.551  0.00  0.00     0.150 C 
ATOM     17  C14 NON d   1     -49.902  16.861  -2.891  0.00  0.00     0.150 C 
ENDBRANCH  12  15
ENDBRANCH   7   9
ENDBRANCH   4   7
BRANCH   5  18
ATOM     18  N5  NON d   1     -41.874  16.976  -2.958  0.00  0.00    -0.113 N 
ATOM     19  O4  NON d   1     -40.952  16.766  -2.160  0.00  0.00    -0.532 OA
ATOM     20  O5  NON d   1     -42.794  16.173  -3.185  0.00  0.00    -0.532 OA
ENDBRANCH   5  18
BRANCH   1  21
ATOM     21  S1  NON d   1     -40.011  21.772  -3.486  0.00  0.00     0.259 S 
ATOM     22  O2  NON d   1     -38.936  21.301  -4.372  0.00  0.00    -0.201 OA
ATOM     23  O3  NON d   1     -41.021  22.692  -4.028  0.00  0.00    -0.201 OA
BRANCH  21  24
ATOM     24  N1  NON d   1     -39.144  23.000  -3.152  0.00  0.00    -0.309 N 
ATOM     25  H10 NON d   1     -38.365  23.145  -3.792  0.00  0.00     0.172 HD
BRANCH  24  26
ATOM     26  C3  NON d   1     -39.215  23.870  -1.959  0.00  0.00     0.113 C 
ATOM     27  C4  NON d   1     -37.784  24.236  -1.560  0.00  0.00     0.035 C 
BRANCH  26  28
ATOM     28  C2  NON d   1     -39.973  23.306  -0.731  0.00  0.00     0.192 C 
BRANCH  28  29
ATOM     29  O1  NON d   1     -40.058  21.873  -0.730  0.00  0.00    -0.394 OA
ATOM     30  C1  NON d   1     -39.116  21.323   0.358  0.00  0.00     0.201 C 
ENDBRANCH  28  29
ENDBRANCH  26  28
ENDBRANCH  24  26
ENDBRANCH  21  24
ENDBRANCH   1  21
TORSDOF 9
ENDMDL
MODEL 5
REMARK VINA RESULT:   -26.080      2.627      3.510
REMARK INTER + INTRA:         -29.802
REMARK INTER:                 -28.765
REMARK INTRA:                  -1.037
REMARK CONF_INDEPENDENT:        2.685
REMARK UNBOUND:                -1.037
REMARK  9 active torsions:
REMARK  status: ('A' for Active; 'I' for Inactive)
REMARK    1  A    between atoms: O1_2  and  C2_3 
REMARK    2  A    between atoms: C3_4  and  C2_3 
REMARK    3  A    between atoms: C3_4  and  N1_6 
REMARK    4  A    between atoms: N1_6  and  S1_7 
REMARK    5  A    between atoms: S1_7  and  C5_10 
REMARK    6  A    between atoms: C8_13  and  N2_14 
REMARK    7  A    between atoms: N2_14  and  C9_15 
REMARK    8  A    between atoms: C12_18  and  N3_19 
REMARK    9  A    between atoms: C16_24  and  N5_25 
ROOT
ATOM      1  C5  NON d   1     -40.846  20.777  -4.435  0.00  0.00     0.082 A 
ATOM      2  C6  NON d   1     -41.449  20.570  -5.713  0.00  0.00     0.028 A 
ATOM      3  C7  NON d   1     -42.309  19.492  -6.034  0.00  0.00     0.034 A 
ATOM      4  C8  NON d   1     -42.654  18.513  -5.103  0.00  0.00     0.066 A 
ATOM      5  C16 NON d   1     -42.003  18.643  -3.843  0.00  0.00     0.131 A 
ATOM      6  C17 NON d   1     -41.118  19.738  -3.527  0.00  0.00     0.063 A 
ENDROOT
BRANCH   4   7
ATOM      7  N2  NON d   1     -43.600  17.492  -5.418  0.00  0.00    -0.353 N 
ATOM      8  H13 NON d   1     -43.241  16.828  -6.113  0.00  0.00     0.166 HD
BRANCH   7   9
ATOM      9  C9  NON d   1     -44.878  17.111  -4.931  0.00  0.00     0.050 A 
ATOM     10  C10 NON d   1     -45.212  16.996  -3.595  0.00  0.00     0.035 A 
ATOM     11  C11 NON d   1     -46.528  16.674  -3.202  0.00  0.00     0.052 A 
ATOM     12  C12 NON d   1     -47.558  16.428  -4.127  0.00  0.00     0.124 A 
ATOM     13  N4  NON d   1     -47.248  16.505  -5.435  0.00  0.00    -0.241 NA
ATOM     14  C15 NON d   1     -45.955  16.848  -5.793  0.00  0.00     0.148 A 
BRANCH  12  15
ATOM     15  N3  NON d   1     -48.846  16.104  -3.685  0.00  0.00    -0.374 N 
ATOM     16  C13 NON d   1     -49.531  14.976  -4.479  0.00  0.00     0.150 C 
ATOM     17  C14 NON d   1     -49.578  16.768  -2.504  0.00  0.00     0.150 C 
ENDBRANCH  12  15
ENDBRANCH   7   9
ENDBRANCH   4   7
BRANCH   5  18
ATOM     18  N5  NON d   1     -42.198  17.627  -2.789  0.00  0.00    -0.113 N 
ATOM     19  O4  NON d   1     -42.563  16.495  -3.133  0.00  0.00    -0.532 OA
ATOM     20  O5  NON d   1     -41.995  17.963  -1.611  0.00  0.00    -0.532 OA
ENDBRANCH   5  18
BRANCH   1  21
ATOM     21  S1  NON d   1     -39.958  22.031  -4.320  0.00  0.00     0.259 S 
ATOM     22  O2  NON d   1     -40.910  22.665  -3.397  0.00  0.00    -0.201 OA
ATOM     23  O3  NON d   1     -38.846  21.250  -3.761  0.00  0.00    -0.201 OA
BRANCH  21  24
ATOM     24  N1  NON d   1     -39.071  23.284  -4.205  0.00  0.00    -0.309 N 
ATOM     25  H10 NON d   1     -38.897  23.582  -3.247  0.00  0.00     0.172 HD
BRANCH  24  26
ATOM     26  C3  NON d   1     -38.591  24.165  -5.290  0.00  0.00     0.113 C 
ATOM     27  C4  NON d   1     -38.719  25.612  -4.811  0.00  0.00     0.035 C 
BRANCH  26  28
ATOM     28  C2  NON d   1     -39.278  24.007  -6.669  0.00  0.00     0.192 C 
BRANCH  28  29
ATOM     29  O1  NON d   1     -38.610  23.071  -7.528  0.00  0.00    -0.394 OA
ATOM     30  C1  NON d   1     -39.669  22.307  -8.345  0.00  0.00     0.201 C 
ENDBRANCH  28  29
ENDBRANCH  26  28
ENDBRANCH  24  26
ENDBRANCH  21  24
ENDBRANCH   1  21
TORSDOF 9
ENDMDL
