MODEL 1
REMARK VINA RESULT:   -28.108      0.000      0.000
REMARK INTER + INTRA:         -30.310
REMARK INTER:                 -30.196
REMARK INTRA:                  -0.114
REMARK CONF_INDEPENDENT:        2.088
REMARK UNBOUND:                -0.114
REMARK  7 active torsions:
REMARK  status: ('A' for Active; 'I' for Inactive)
REMARK    1  A    between atoms: N1_1  and  C1_2 
REMARK    2  A    between atoms: C2_6  and  N4_7 
REMARK    3  A    between atoms: C3_10  and  C4_11 
REMARK       I    between atoms: C4_11  and  N7_13 
REMARK    4  A    between atoms: N7_13  and  N8_14 
REMARK    5  A    between atoms: C5_15  and  C6_16 
REMARK    6  A    between atoms: C13_25  and  C14_26 
REMARK    7  A    between atoms: C14_26  and  N9_27 
ROOT
ATOM      1  N4  NON d   1     -45.342  17.705  -5.327  0.00  0.00    -0.215 N 
ATOM      2  N5  NON d   1     -45.536  18.707  -6.236  0.00  0.00     0.012 NA
ATOM      3  N6  NON d   1     -44.577  19.600  -6.065  0.00  0.00    -0.152 NA
ATOM      4  C3  NON d   1     -43.642  19.065  -5.214  0.00  0.00     0.170 C 
ATOM      5  C13 NON d   1     -44.025  17.764  -4.875  0.00  0.00     0.098 C 
ENDROOT
BRANCH   4   6
ATOM      6  C4  NON d   1     -42.490  19.841  -4.751  0.00  0.00     0.293 C 
ATOM      7  O2  NON d   1     -42.190  19.928  -3.562  0.00  0.00    -0.264 OA
ATOM      8  N7  NON d   1     -41.814  20.521  -5.769  0.00  0.00    -0.242 N 
ATOM      9  H3  NON d   1     -42.134  20.440  -6.728  0.00  0.00     0.192 HD
BRANCH   8  10
ATOM     10  N8  NON d   1     -40.743  21.320  -5.461  0.00  0.00    -0.183 NA
ATOM     11  C5  NON d   1     -40.932  22.292  -4.624  0.00  0.00     0.150 C 
BRANCH  11  12
ATOM     12  C6  NON d   1     -39.828  23.219  -4.266  0.00  0.00    -0.014 A 
ATOM     13  C7  NON d   1     -39.536  23.484  -2.911  0.00  0.00     0.016 A 
ATOM     14  C8  NON d   1     -38.482  24.333  -2.554  0.00  0.00     0.040 A 
ATOM     15  C9  NON d   1     -37.745  24.902  -3.571  0.00  0.00     0.105 A 
ATOM     16  C10 NON d   1     -38.031  24.649  -4.896  0.00  0.00     0.105 A 
ATOM     17  O4  NON d   1     -36.686  25.735  -3.414  0.00  0.00    -0.323 OA
ATOM     18  C11 NON d   1     -39.068  23.818  -5.279  0.00  0.00     0.052 A 
ATOM     19  O3  NON d   1     -37.181  25.304  -5.734  0.00  0.00    -0.323 OA
ATOM     20  C12 NON d   1     -36.325  25.982  -4.788  0.00  0.00     0.352 A 
ENDBRANCH  11  12
ENDBRANCH   8  10
ENDBRANCH   4   6
BRANCH   5  21
ATOM     21  C14 NON d   1     -43.334  16.712  -4.047  0.00  0.00     0.333 C 
BRANCH  21  22
ATOM     22  N9  NON d   1     -41.875  16.880  -3.735  0.00  0.00     0.094 N 
ATOM     23  C15 NON d   1     -41.260  17.552  -4.914  0.00  0.00     0.273 C 
ATOM     24  C16 NON d   1     -39.836  18.097  -4.735  0.00  0.00     0.030 C 
ATOM     25  C17 NON d   1     -39.687  18.921  -3.469  0.00  0.00     0.003 C 
ATOM     26  C18 NON d   1     -40.177  18.097  -2.294  0.00  0.00     0.030 C 
ATOM     27  C19 NON d   1     -41.629  17.678  -2.523  0.00  0.00     0.273 C 
ENDBRANCH  21  22
ENDBRANCH   5  21
BRANCH   1  28
ATOM     28  C2  NON d   1     -46.414  16.877  -4.918  0.00  0.00     0.225 A 
ATOM     29  N3  NON d   1     -47.066  16.130  -5.810  0.00  0.00    -0.081 NA
ATOM     30  O1  NON d   1     -48.052  15.492  -5.059  0.00  0.00    -0.103 OA
ATOM     31  N2  NON d   1     -47.961  15.835  -3.714  0.00  0.00    -0.083 NA
ATOM     32  C1  NON d   1     -46.927  16.673  -3.627  0.00  0.00     0.201 A 
BRANCH  32  33
ATOM     33  N1  NON d   1     -46.520  17.259  -2.486  0.00  0.00    -0.379 N 
ATOM     34  H1  NON d   1     -47.055  17.097  -1.639  0.00  0.00     0.158 HD
ATOM     35  H2  NON d   1     -45.540  17.480  -2.327  0.00  0.00     0.158 HD
ENDBRANCH  32  33
ENDBRANCH   1  28
TORSDOF 7
ENDMDL
MODEL 2
REMARK VINA RESULT:   -26.323      1.388      2.009
REMARK INTER + INTRA:         -29.735
REMARK INTER:                 -28.411
REMARK INTRA:                  -1.324
REMARK CONF_INDEPENDENT:        2.088
REMARK UNBOUND:                -1.324
REMARK  7 active torsions:
REMARK  status: ('A' for Active; 'I' for Inactive)
REMARK    1  A    between atoms: N1_1  and  C1_2 
REMARK    2  A    between atoms: C2_6  and  N4_7 
REMARK    3  A    between atoms: C3_10  and  C4_11 
REMARK       I    between atoms: C4_11  and  N7_13 
REMARK    4  A    between atoms: N7_13  and  N8_14 
REMARK    5  A    between atoms: C5_15  and  C6_16 
REMARK    6  A    between atoms: C13_25  and  C14_26 
REMARK    7  A    between atoms: C14_26  and  N9_27 
ROOT
ATOM      1  N4  NON d   1     -45.280  17.694  -5.428  0.00  0.00    -0.215 N 
ATOM      2  N5  NON d   1     -45.513  18.749  -6.265  0.00  0.00     0.012 NA
ATOM      3  N6  NON d   1     -44.502  19.591  -6.145  0.00  0.00    -0.152 NA
ATOM      4  C3  NON d   1     -43.517  18.975  -5.415  0.00  0.00     0.170 C 
ATOM      5  C13 NON d   1     -43.926  17.674  -5.104  0.00  0.00     0.098 C 
ENDROOT
BRANCH   4   6
ATOM      6  C4  NON d   1     -42.291  19.677  -5.029  0.00  0.00     0.293 C 
ATOM      7  O2  NON d   1     -41.172  19.228  -5.273  0.00  0.00    -0.264 OA
ATOM      8  N7  NON d   1     -42.510  20.853  -4.306  0.00  0.00    -0.242 N 
ATOM      9  H3  NON d   1     -43.458  21.151  -4.102  0.00  0.00     0.192 HD
BRANCH   8  10
ATOM     10  N8  NON d   1     -41.443  21.580  -3.847  0.00  0.00    -0.183 NA
ATOM     11  C5  NON d   1     -41.658  22.804  -3.473  0.00  0.00     0.150 C 
BRANCH  11  12
ATOM     12  C6  NON d   1     -40.547  23.665  -2.994  0.00  0.00    -0.014 A 
ATOM     13  C7  NON d   1     -39.483  23.995  -3.860  0.00  0.00     0.016 A 
ATOM     14  C8  NON d   1     -38.440  24.827  -3.436  0.00  0.00     0.040 A 
ATOM     15  C9  NON d   1     -38.491  25.309  -2.145  0.00  0.00     0.105 A 
ATOM     16  C10 NON d   1     -39.527  24.985  -1.295  0.00  0.00     0.105 A 
ATOM     17  O4  NON d   1     -37.580  26.134  -1.569  0.00  0.00    -0.323 OA
ATOM     18  C11 NON d   1     -40.567  24.162  -1.685  0.00  0.00     0.052 A 
ATOM     19  O3  NON d   1     -39.384  25.568  -0.073  0.00  0.00    -0.323 OA
ATOM     20  C12 NON d   1     -38.154  26.304  -0.258  0.00  0.00     0.352 A 
ENDBRANCH  11  12
ENDBRANCH   8  10
ENDBRANCH   4   6
BRANCH   5  21
ATOM     21  C14 NON d   1     -43.209  16.553  -4.397  0.00  0.00     0.333 C 
BRANCH  21  22
ATOM     22  N9  NON d   1     -42.299  16.886  -3.249  0.00  0.00     0.094 N 
ATOM     23  C15 NON d   1     -40.983  17.255  -3.840  0.00  0.00     0.273 C 
ATOM     24  C16 NON d   1     -39.962  17.912  -2.900  0.00  0.00     0.030 C 
ATOM     25  C17 NON d   1     -40.565  19.052  -2.098  0.00  0.00     0.003 C 
ATOM     26  C18 NON d   1     -41.807  18.544  -1.392  0.00  0.00     0.030 C 
ATOM     27  C19 NON d   1     -42.798  17.992  -2.416  0.00  0.00     0.273 C 
ENDBRANCH  21  22
ENDBRANCH   5  21
BRANCH   1  28
ATOM     28  C2  NON d   1     -46.346  16.891  -4.957  0.00  0.00     0.225 A 
ATOM     29  N3  NON d   1     -47.068  16.163  -5.810  0.00  0.00    -0.081 NA
ATOM     30  O1  NON d   1     -48.023  15.546  -5.002  0.00  0.00    -0.103 OA
ATOM     31  N2  NON d   1     -47.844  15.883  -3.665  0.00  0.00    -0.083 NA
ATOM     32  C1  NON d   1     -46.787  16.695  -3.639  0.00  0.00     0.201 A 
BRANCH  32  33
ATOM     33  N1  NON d   1     -46.299  17.268  -2.523  0.00  0.00    -0.379 N 
ATOM     34  H1  NON d   1     -46.659  16.966  -1.624  0.00  0.00     0.158 HD
ATOM     35  H2  NON d   1     -45.352  17.641  -2.492  0.00  0.00     0.158 HD
ENDBRANCH  32  33
ENDBRANCH   1  28
TORSDOF 7
ENDMDL
MODEL 3
REMARK VINA RESULT:   -25.779      1.934      2.703
REMARK INTER + INTRA:         -27.306
REMARK INTER:                 -27.867
REMARK INTRA:                   0.561
REMARK CONF_INDEPENDENT:        2.088
REMARK UNBOUND:                 0.561
REMARK  7 active torsions:
REMARK  status: ('A' for Active; 'I' for Inactive)
REMARK    1  A    between atoms: N1_1  and  C1_2 
REMARK    2  A    between atoms: C2_6  and  N4_7 
REMARK    3  A    between atoms: C3_10  and  C4_11 
REMARK       I    between atoms: C4_11  and  N7_13 
REMARK    4  A    between atoms: N7_13  and  N8_14 
REMARK    5  A    between atoms: C5_15  and  C6_16 
REMARK    6  A    between atoms: C13_25  and  C14_26 
REMARK    7  A    between atoms: C14_26  and  N9_27 
ROOT
ATOM      1  N4  NON d   1     -46.748  16.773  -4.493  0.00  0.00    -0.215 N 
ATOM      2  N5  NON d   1     -47.099  16.880  -5.810  0.00  0.00     0.012 NA
ATOM      3  N6  NON d   1     -46.357  17.830  -6.350  0.00  0.00    -0.152 NA
ATOM      4  C3  NON d   1     -45.377  18.170  -5.451  0.00  0.00     0.170 C 
ATOM      5  C13 NON d   1     -45.498  17.362  -4.317  0.00  0.00     0.098 C 
ENDROOT
BRANCH   4   6
ATOM      6  C4  NON d   1     -44.436  19.262  -5.714  0.00  0.00     0.293 C 
ATOM      7  O2  NON d   1     -44.425  19.878  -6.777  0.00  0.00    -0.264 OA
ATOM      8  N7  NON d   1     -43.519  19.485  -4.683  0.00  0.00    -0.242 N 
ATOM      9  H3  NON d   1     -43.555  18.916  -3.844  0.00  0.00     0.192 HD
BRANCH   8  10
ATOM     10  N8  NON d   1     -42.556  20.450  -4.824  0.00  0.00    -0.183 NA
ATOM     11  C5  NON d   1     -41.731  20.342  -5.819  0.00  0.00     0.150 C 
BRANCH  11  12
ATOM     12  C6  NON d   1     -40.640  21.331  -6.020  0.00  0.00    -0.014 A 
ATOM     13  C7  NON d   1     -40.184  22.112  -4.937  0.00  0.00     0.016 A 
ATOM     14  C8  NON d   1     -39.139  23.028  -5.100  0.00  0.00     0.040 A 
ATOM     15  C9  NON d   1     -38.576  23.142  -6.354  0.00  0.00     0.105 A 
ATOM     16  C10 NON d   1     -39.023  22.383  -7.415  0.00  0.00     0.105 A 
ATOM     17  O4  NON d   1     -37.551  23.964  -6.693  0.00  0.00    -0.323 OA
ATOM     18  C11 NON d   1     -40.056  21.473  -7.285  0.00  0.00     0.052 A 
ATOM     19  O3  NON d   1     -38.330  22.647  -8.557  0.00  0.00    -0.323 OA
ATOM     20  C12 NON d   1     -37.391  23.641  -8.090  0.00  0.00     0.352 A 
ENDBRANCH  11  12
ENDBRANCH   8  10
ENDBRANCH   4   6
BRANCH   5  21
ATOM     21  C14 NON d   1     -44.648  17.261  -3.076  0.00  0.00     0.333 C 
BRANCH  21  22
ATOM     22  N9  NON d   1     -43.175  17.007  -3.228  0.00  0.00     0.094 N 
ATOM     23  C15 NON d   1     -42.858  17.179  -4.673  0.00  0.00     0.273 C 
ATOM     24  C16 NON d   1     -41.372  17.255  -5.051  0.00  0.00     0.030 C 
ATOM     25  C17 NON d   1     -40.603  18.233  -4.180  0.00  0.00     0.003 C 
ATOM     26  C18 NON d   1     -40.846  17.880  -2.726  0.00  0.00     0.030 C 
ATOM     27  C19 NON d   1     -42.344  17.918  -2.425  0.00  0.00     0.273 C 
ENDBRANCH  21  22
ENDBRANCH   5  21
BRANCH   1  28
ATOM     28  C2  NON d   1     -47.645  16.227  -3.544  0.00  0.00     0.225 A 
ATOM     29  N3  NON d   1     -47.551  16.566  -2.257  0.00  0.00    -0.081 NA
ATOM     30  O1  NON d   1     -48.554  15.821  -1.639  0.00  0.00    -0.103 OA
ATOM     31  N2  NON d   1     -49.265  15.066  -2.566  0.00  0.00    -0.083 NA
ATOM     32  C1  NON d   1     -48.715  15.341  -3.748  0.00  0.00     0.201 A 
BRANCH  32  33
ATOM     33  N1  NON d   1     -49.103  14.788  -4.912  0.00  0.00    -0.379 N 
ATOM     34  H1  NON d   1     -49.983  14.284  -4.941  0.00  0.00     0.158 HD
ATOM     35  H2  NON d   1     -48.816  15.182  -5.805  0.00  0.00     0.158 HD
ENDBRANCH  32  33
ENDBRANCH   1  28
TORSDOF 7
ENDMDL
