MODEL 1
REMARK VINA RESULT:   -13.256      0.000      0.000
REMARK INTER + INTRA:         -19.429
REMARK INTER:                 -16.537
REMARK INTRA:                  -2.892
REMARK CONF_INDEPENDENT:        3.281
REMARK UNBOUND:                -2.892
REMARK  11 active torsions:
REMARK  status: ('A' for Active; 'I' for Inactive)
REMARK    1  A    between atoms: C2_2  and  C3_3 
REMARK    2  A    between atoms: C3_3  and  C4_4 
REMARK    3  A    between atoms: C4_4  and  O1_5 
REMARK    4  A    between atoms: O1_5  and  C5_6 
REMARK    5  A    between atoms: C10_11  and  C11_12 
REMARK       I    between atoms: C11_12  and  N1_14 
REMARK    6  A    between atoms: N1_14  and  C12_15 
REMARK    7  A    between atoms: C12_15  and  N2_17 
REMARK    8  A    between atoms: N2_17  and  N3_18 
REMARK       I    between atoms: N3_18  and  C13_19 
REMARK    9  A    between atoms: C13_19  and  C14_21 
REMARK   10  A    between atoms: C17_24  and  N4_25 
REMARK       I    between atoms: N4_25  and  C18_26 
REMARK   11  A    between atoms: C18_26  and  C19_28 
ROOT
ATOM      1  N3  NON d   1     -39.369  18.865  -6.029  0.00  0.00    -0.264 N 
ATOM      2  C13 NON d   1     -39.781  18.681  -4.704  0.00  0.00     0.270 C 
ATOM      3  O3  NON d   1     -39.006  18.881  -3.768  0.00  0.00    -0.266 OA
ATOM      4  H16 NON d   1     -39.970  18.722  -6.835  0.00  0.00     0.190 HD
ENDROOT
BRANCH   1   5
ATOM      5  N2  NON d   1     -38.004  19.272  -6.353  0.00  0.00    -0.273 N 
ATOM      6  H15 NON d   1     -37.502  19.701  -5.577  0.00  0.00     0.189 HD
BRANCH   5   7
ATOM      7  C12 NON d   1     -37.560  19.260  -7.697  0.00  0.00     0.193 C 
ATOM      8  S1  NON d   1     -36.589  18.010  -8.264  0.00  0.00    -0.039 SA
BRANCH   7   9
ATOM      9  N1  NON d   1     -37.987  20.388  -8.454  0.00  0.00    -0.298 N 
ATOM     10  C11 NON d   1     -39.300  20.724  -8.933  0.00  0.00     0.260 C 
ATOM     11  O2  NON d   1     -40.294  20.083  -8.606  0.00  0.00    -0.267 OA
ATOM     12  H14 NON d   1     -37.236  20.987  -8.743  0.00  0.00     0.171 HD
BRANCH  10  13
ATOM     13  C10 NON d   1     -39.491  21.897  -9.900  0.00  0.00     0.065 A 
ATOM     14  C9  NON d   1     -39.190  21.756 -11.270  0.00  0.00     0.020 A 
ATOM     15  C8  NON d   1     -39.436  22.792 -12.187  0.00  0.00     0.001 A 
ATOM     16  C7  NON d   1     -40.027  23.972 -11.772  0.00  0.00     0.003 A 
ATOM     17  C6  NON d   1     -40.314  24.151 -10.425  0.00  0.00     0.038 A 
ATOM     18  C5  NON d   1     -40.020  23.159  -9.473  0.00  0.00     0.084 A 
BRANCH  18  19
ATOM     19  O1  NON d   1     -39.996  23.525  -8.146  0.00  0.00    -0.350 OA
BRANCH  19  20
ATOM     20  C4  NON d   1     -38.801  23.347  -7.371  0.00  0.00     0.175 C 
BRANCH  20  21
ATOM     21  C3  NON d   1     -38.931  22.828  -5.922  0.00  0.00     0.026 C 
BRANCH  21  22
ATOM     22  C2  NON d   1     -40.322  22.356  -5.486  0.00  0.00    -0.002 C 
ATOM     23  C1  NON d   1     -40.321  21.834  -4.050  0.00  0.00     0.005 C 
ENDBRANCH  21  22
ENDBRANCH  20  21
ENDBRANCH  19  20
ENDBRANCH  18  19
ENDBRANCH  10  13
ENDBRANCH   7   9
ENDBRANCH   5   7
ENDBRANCH   1   5
BRANCH   2  24
ATOM     24  C14 NON d   1     -41.225  18.239  -4.424  0.00  0.00     0.033 A 
ATOM     25  C15 NON d   1     -42.273  18.703  -5.248  0.00  0.00     0.019 A 
ATOM     26  C16 NON d   1     -43.643  18.331  -5.047  0.00  0.00     0.030 A 
ATOM     27  C17 NON d   1     -44.030  17.478  -4.009  0.00  0.00     0.035 A 
ATOM     28  C26 NON d   1     -42.981  17.021  -3.185  0.00  0.00     0.030 A 
ATOM     29  C27 NON d   1     -41.604  17.384  -3.387  0.00  0.00     0.019 A 
BRANCH  27  30
ATOM     30  N4  NON d   1     -45.387  17.040  -3.720  0.00  0.00    -0.323 N 
ATOM     31  C18 NON d   1     -46.340  16.487  -4.599  0.00  0.00     0.256 C 
ATOM     32  O4  NON d   1     -46.083  16.329  -5.796  0.00  0.00    -0.267 OA
ATOM     33  H19 NON d   1     -45.649  17.166  -2.760  0.00  0.00     0.169 HD
BRANCH  31  34
ATOM     34  C19 NON d   1     -47.783  16.033  -4.129  0.00  0.00     0.038 A 
ATOM     35  C20 NON d   1     -48.420  15.155  -5.025  0.00  0.00     0.017 A 
ATOM     36  C21 NON d   1     -49.690  14.627  -4.764  0.00  0.00     0.001 A 
ATOM     37  C22 NON d   1     -50.370  14.953  -3.592  0.00  0.00     0.001 A 
ATOM     38  C23 NON d   1     -49.791  15.815  -2.665  0.00  0.00     0.007 A 
ATOM     39  C24 NON d   1     -48.528  16.353  -2.930  0.00  0.00    -0.046 A 
ATOM     40  C25 NON d   1     -47.791  17.328  -1.993  0.00  0.00     0.049 C 
ENDBRANCH  31  34
ENDBRANCH  27  30
ENDBRANCH   2  24
TORSDOF 11
ENDMDL
MODEL 2
REMARK VINA RESULT:   -13.165      1.212      2.738
REMARK INTER + INTRA:         -18.954
REMARK INTER:                 -16.446
REMARK INTRA:                  -2.508
REMARK CONF_INDEPENDENT:        3.281
REMARK UNBOUND:                -2.508
REMARK  11 active torsions:
REMARK  status: ('A' for Active; 'I' for Inactive)
REMARK    1  A    between atoms: C2_2  and  C3_3 
REMARK    2  A    between atoms: C3_3  and  C4_4 
REMARK    3  A    between atoms: C4_4  and  O1_5 
REMARK    4  A    between atoms: O1_5  and  C5_6 
REMARK    5  A    between atoms: C10_11  and  C11_12 
REMARK       I    between atoms: C11_12  and  N1_14 
REMARK    6  A    between atoms: N1_14  and  C12_15 
REMARK    7  A    between atoms: C12_15  and  N2_17 
REMARK    8  A    between atoms: N2_17  and  N3_18 
REMARK       I    between atoms: N3_18  and  C13_19 
REMARK    9  A    between atoms: C13_19  and  C14_21 
REMARK   10  A    between atoms: C17_24  and  N4_25 
REMARK       I    between atoms: N4_25  and  C18_26 
REMARK   11  A    between atoms: C18_26  and  C19_28 
ROOT
ATOM      1  N3  NON d   1     -39.486  19.196  -6.011  0.00  0.00    -0.264 N 
ATOM      2  C13 NON d   1     -39.803  18.701  -4.741  0.00  0.00     0.270 C 
ATOM      3  O3  NON d   1     -38.948  18.633  -3.857  0.00  0.00    -0.266 OA
ATOM      4  H16 NON d   1     -40.155  19.281  -6.770  0.00  0.00     0.190 HD
ENDROOT
BRANCH   1   5
ATOM      5  N2  NON d   1     -38.129  19.624  -6.344  0.00  0.00    -0.273 N 
ATOM      6  H15 NON d   1     -37.579  19.929  -5.543  0.00  0.00     0.189 HD
BRANCH   5   7
ATOM      7  C12 NON d   1     -37.754  19.799  -7.698  0.00  0.00     0.193 C 
ATOM      8  S1  NON d   1     -36.841  18.629  -8.489  0.00  0.00    -0.039 SA
BRANCH   7   9
ATOM      9  N1  NON d   1     -38.192  21.031  -8.262  0.00  0.00    -0.298 N 
ATOM     10  C11 NON d   1     -39.517  21.450  -8.626  0.00  0.00     0.260 C 
ATOM     11  O2  NON d   1     -40.508  20.779  -8.353  0.00  0.00    -0.267 OA
ATOM     12  H14 NON d   1     -37.443  21.657  -8.494  0.00  0.00     0.171 HD
BRANCH  10  13
ATOM     13  C10 NON d   1     -39.728  22.754  -9.402  0.00  0.00     0.065 A 
ATOM     14  C9  NON d   1     -40.208  23.909  -8.752  0.00  0.00     0.020 A 
ATOM     15  C8  NON d   1     -40.331  25.135  -9.426  0.00  0.00     0.001 A 
ATOM     16  C7  NON d   1     -39.936  25.253 -10.748  0.00  0.00     0.003 A 
ATOM     17  C6  NON d   1     -39.480  24.129 -11.423  0.00  0.00     0.038 A 
ATOM     18  C5  NON d   1     -39.408  22.873 -10.794  0.00  0.00     0.084 A 
BRANCH  18  19
ATOM     19  O1  NON d   1     -39.295  21.758 -11.594  0.00  0.00    -0.350 OA
BRANCH  19  20
ATOM     20  C4  NON d   1     -38.852  21.888 -12.953  0.00  0.00     0.175 C 
BRANCH  20  21
ATOM     21  C3  NON d   1     -37.449  21.358 -13.327  0.00  0.00     0.026 C 
BRANCH  21  22
ATOM     22  C2  NON d   1     -36.703  20.573 -12.243  0.00  0.00    -0.002 C 
ATOM     23  C1  NON d   1     -36.450  21.423 -10.999  0.00  0.00     0.005 C 
ENDBRANCH  21  22
ENDBRANCH  20  21
ENDBRANCH  19  20
ENDBRANCH  18  19
ENDBRANCH  10  13
ENDBRANCH   7   9
ENDBRANCH   5   7
ENDBRANCH   1   5
BRANCH   2  24
ATOM     24  C14 NON d   1     -41.244  18.253  -4.451  0.00  0.00     0.033 A 
ATOM     25  C15 NON d   1     -42.299  18.711  -5.270  0.00  0.00     0.019 A 
ATOM     26  C16 NON d   1     -43.666  18.333  -5.060  0.00  0.00     0.030 A 
ATOM     27  C17 NON d   1     -44.043  17.481  -4.018  0.00  0.00     0.035 A 
ATOM     28  C26 NON d   1     -42.987  17.030  -3.199  0.00  0.00     0.030 A 
ATOM     29  C27 NON d   1     -41.613  17.399  -3.411  0.00  0.00     0.019 A 
BRANCH  27  30
ATOM     30  N4  NON d   1     -45.396  17.037  -3.719  0.00  0.00    -0.323 N 
ATOM     31  C18 NON d   1     -46.364  16.509  -4.598  0.00  0.00     0.256 C 
ATOM     32  O4  NON d   1     -46.125  16.382  -5.801  0.00  0.00    -0.267 OA
ATOM     33  H19 NON d   1     -45.643  17.139  -2.753  0.00  0.00     0.169 HD
BRANCH  31  34
ATOM     34  C19 NON d   1     -47.800  16.044  -4.117  0.00  0.00     0.038 A 
ATOM     35  C20 NON d   1     -48.430  15.149  -5.001  0.00  0.00     0.017 A 
ATOM     36  C21 NON d   1     -49.694  14.611  -4.730  0.00  0.00     0.001 A 
ATOM     37  C22 NON d   1     -50.373  14.943  -3.559  0.00  0.00     0.001 A 
ATOM     38  C23 NON d   1     -49.801  15.822  -2.644  0.00  0.00     0.007 A 
ATOM     39  C24 NON d   1     -48.544  16.370  -2.920  0.00  0.00    -0.046 A 
ATOM     40  C25 NON d   1     -47.815  17.365  -1.997  0.00  0.00     0.049 C 
ENDBRANCH  31  34
ENDBRANCH  27  30
ENDBRANCH   2  24
TORSDOF 11
ENDMDL
MODEL 3
REMARK VINA RESULT:   -13.091      1.727      2.802
REMARK INTER + INTRA:         -19.458
REMARK INTER:                 -16.372
REMARK INTRA:                  -3.086
REMARK CONF_INDEPENDENT:        3.281
REMARK UNBOUND:                -3.086
REMARK  11 active torsions:
REMARK  status: ('A' for Active; 'I' for Inactive)
REMARK    1  A    between atoms: C2_2  and  C3_3 
REMARK    2  A    between atoms: C3_3  and  C4_4 
REMARK    3  A    between atoms: C4_4  and  O1_5 
REMARK    4  A    between atoms: O1_5  and  C5_6 
REMARK    5  A    between atoms: C10_11  and  C11_12 
REMARK       I    between atoms: C11_12  and  N1_14 
REMARK    6  A    between atoms: N1_14  and  C12_15 
REMARK    7  A    between atoms: C12_15  and  N2_17 
REMARK    8  A    between atoms: N2_17  and  N3_18 
REMARK       I    between atoms: N3_18  and  C13_19 
REMARK    9  A    between atoms: C13_19  and  C14_21 
REMARK   10  A    between atoms: C17_24  and  N4_25 
REMARK       I    between atoms: N4_25  and  C18_26 
REMARK   11  A    between atoms: C18_26  and  C19_28 
ROOT
ATOM      1  N3  NON d   1     -40.003  20.572  -5.669  0.00  0.00    -0.264 N 
ATOM      2  C13 NON d   1     -40.113  19.291  -5.116  0.00  0.00     0.270 C 
ATOM      3  O3  NON d   1     -39.112  18.611  -4.891  0.00  0.00    -0.266 OA
ATOM      4  H16 NON d   1     -40.795  21.176  -5.865  0.00  0.00     0.190 HD
ENDROOT
BRANCH   1   5
ATOM      5  N2  NON d   1     -38.704  21.139  -6.024  0.00  0.00    -0.273 N 
ATOM      6  H15 NON d   1     -37.913  20.689  -5.565  0.00  0.00     0.189 HD
BRANCH   5   7
ATOM      7  C12 NON d   1     -38.634  22.347  -6.758  0.00  0.00     0.193 C 
ATOM      8  S1  NON d   1     -38.989  23.817  -6.021  0.00  0.00    -0.039 SA
BRANCH   7   9
ATOM      9  N1  NON d   1     -38.279  22.170  -8.126  0.00  0.00    -0.298 N 
ATOM     10  C11 NON d   1     -38.979  22.581  -9.312  0.00  0.00     0.260 C 
ATOM     11  O2  NON d   1     -39.976  23.294  -9.264  0.00  0.00    -0.267 OA
ATOM     12  H14 NON d   1     -37.453  21.616  -8.259  0.00  0.00     0.171 HD
BRANCH  10  13
ATOM     13  C10 NON d   1     -38.503  22.108 -10.690  0.00  0.00     0.065 A 
ATOM     14  C9  NON d   1     -39.266  22.373 -11.845  0.00  0.00     0.020 A 
ATOM     15  C8  NON d   1     -38.809  22.021 -13.125  0.00  0.00     0.001 A 
ATOM     16  C7  NON d   1     -37.563  21.440 -13.292  0.00  0.00     0.003 A 
ATOM     17  C6  NON d   1     -36.797  21.146 -12.172  0.00  0.00     0.038 A 
ATOM     18  C5  NON d   1     -37.256  21.425 -10.873  0.00  0.00     0.084 A 
BRANCH  18  19
ATOM     19  O1  NON d   1     -36.628  20.800  -9.819  0.00  0.00    -0.350 OA
BRANCH  19  20
ATOM     20  C4  NON d   1     -36.868  19.409  -9.560  0.00  0.00     0.175 C 
BRANCH  20  21
ATOM     21  C3  NON d   1     -37.494  19.006  -8.206  0.00  0.00     0.026 C 
BRANCH  21  22
ATOM     22  C2  NON d   1     -38.920  18.447  -8.250  0.00  0.00    -0.002 C 
ATOM     23  C1  NON d   1     -39.934  19.511  -8.671  0.00  0.00     0.005 C 
ENDBRANCH  21  22
ENDBRANCH  20  21
ENDBRANCH  19  20
ENDBRANCH  18  19
ENDBRANCH  10  13
ENDBRANCH   7   9
ENDBRANCH   5   7
ENDBRANCH   1   5
BRANCH   2  24
ATOM     24  C14 NON d   1     -41.507  18.742  -4.774  0.00  0.00     0.033 A 
ATOM     25  C15 NON d   1     -41.648  17.774  -3.756  0.00  0.00     0.019 A 
ATOM     26  C16 NON d   1     -42.916  17.219  -3.382  0.00  0.00     0.030 A 
ATOM     27  C17 NON d   1     -44.103  17.604  -4.012  0.00  0.00     0.035 A 
ATOM     28  C26 NON d   1     -43.957  18.567  -5.031  0.00  0.00     0.030 A 
ATOM     29  C27 NON d   1     -42.689  19.134  -5.404  0.00  0.00     0.019 A 
BRANCH  27  30
ATOM     30  N4  NON d   1     -45.436  17.105  -3.709  0.00  0.00    -0.323 N 
ATOM     31  C18 NON d   1     -46.410  16.601  -4.595  0.00  0.00     0.256 C 
ATOM     32  O4  NON d   1     -46.198  16.552  -5.809  0.00  0.00    -0.267 OA
ATOM     33  H19 NON d   1     -45.662  17.143  -2.733  0.00  0.00     0.169 HD
BRANCH  31  34
ATOM     34  C19 NON d   1     -47.821  16.068  -4.110  0.00  0.00     0.038 A 
ATOM     35  C20 NON d   1     -48.449  15.212  -5.033  0.00  0.00     0.017 A 
ATOM     36  C21 NON d   1     -49.692  14.624  -4.766  0.00  0.00     0.001 A 
ATOM     37  C22 NON d   1     -50.349  14.863  -3.560  0.00  0.00     0.001 A 
ATOM     38  C23 NON d   1     -49.777  15.699  -2.606  0.00  0.00     0.007 A 
ATOM     39  C24 NON d   1     -48.542  16.298  -2.877  0.00  0.00    -0.046 A 
ATOM     40  C25 NON d   1     -47.815  17.253  -1.911  0.00  0.00     0.049 C 
ENDBRANCH  31  34
ENDBRANCH  27  30
ENDBRANCH   2  24
TORSDOF 11
ENDMDL
MODEL 4
REMARK VINA RESULT:   -13.012      0.890      1.324
REMARK INTER + INTRA:         -18.762
REMARK INTER:                 -16.293
REMARK INTRA:                  -2.469
REMARK CONF_INDEPENDENT:        3.281
REMARK UNBOUND:                -2.469
REMARK  11 active torsions:
REMARK  status: ('A' for Active; 'I' for Inactive)
REMARK    1  A    between atoms: C2_2  and  C3_3 
REMARK    2  A    between atoms: C3_3  and  C4_4 
REMARK    3  A    between atoms: C4_4  and  O1_5 
REMARK    4  A    between atoms: O1_5  and  C5_6 
REMARK    5  A    between atoms: C10_11  and  C11_12 
REMARK       I    between atoms: C11_12  and  N1_14 
REMARK    6  A    between atoms: N1_14  and  C12_15 
REMARK    7  A    between atoms: C12_15  and  N2_17 
REMARK    8  A    between atoms: N2_17  and  N3_18 
REMARK       I    between atoms: N3_18  and  C13_19 
REMARK    9  A    between atoms: C13_19  and  C14_21 
REMARK   10  A    between atoms: C17_24  and  N4_25 
REMARK       I    between atoms: N4_25  and  C18_26 
REMARK   11  A    between atoms: C18_26  and  C19_28 
ROOT
ATOM      1  N3  NON d   1     -39.839  19.914  -6.335  0.00  0.00    -0.264 N 
ATOM      2  C13 NON d   1     -40.018  19.108  -5.205  0.00  0.00     0.270 C 
ATOM      3  O3  NON d   1     -39.063  18.803  -4.488  0.00  0.00    -0.266 OA
ATOM      4  H16 NON d   1     -40.593  20.200  -6.952  0.00  0.00     0.190 HD
ENDROOT
BRANCH   1   5
ATOM      5  N2  NON d   1     -38.518  20.401  -6.722  0.00  0.00    -0.273 N 
ATOM      6  H15 NON d   1     -38.127  21.095  -6.088  0.00  0.00     0.189 HD
BRANCH   5   7
ATOM      7  C12 NON d   1     -37.987  20.075  -7.994  0.00  0.00     0.193 C 
ATOM      8  S1  NON d   1     -37.104  18.660  -8.214  0.00  0.00    -0.039 SA
BRANCH   7   9
ATOM      9  N1  NON d   1     -38.249  21.053  -8.995  0.00  0.00    -0.298 N 
ATOM     10  C11 NON d   1     -39.441  21.818  -9.234  0.00  0.00     0.260 C 
ATOM     11  O2  NON d   1     -40.394  21.796  -8.461  0.00  0.00    -0.267 OA
ATOM     12  H14 NON d   1     -37.506  21.158  -9.660  0.00  0.00     0.171 HD
BRANCH  10  13
ATOM     13  C10 NON d   1     -39.565  22.677 -10.497  0.00  0.00     0.065 A 
ATOM     14  C9  NON d   1     -39.010  22.246 -11.719  0.00  0.00     0.020 A 
ATOM     15  C8  NON d   1     -39.183  22.978 -12.905  0.00  0.00     0.001 A 
ATOM     16  C7  NON d   1     -39.949  24.131 -12.913  0.00  0.00     0.003 A 
ATOM     17  C6  NON d   1     -40.490  24.595 -11.722  0.00  0.00     0.038 A 
ATOM     18  C5  NON d   1     -40.280  23.920 -10.507  0.00  0.00     0.084 A 
BRANCH  18  19
ATOM     19  O1  NON d   1     -40.531  24.603  -9.338  0.00  0.00    -0.350 OA
BRANCH  19  20
ATOM     20  C4  NON d   1     -39.448  25.187  -8.598  0.00  0.00     0.175 C 
BRANCH  20  21
ATOM     21  C3  NON d   1     -38.905  24.434  -7.364  0.00  0.00     0.026 C 
BRANCH  21  22
ATOM     22  C2  NON d   1     -39.773  24.473  -6.101  0.00  0.00    -0.002 C 
ATOM     23  C1  NON d   1     -40.054  23.071  -5.562  0.00  0.00     0.005 C 
ENDBRANCH  21  22
ENDBRANCH  20  21
ENDBRANCH  19  20
ENDBRANCH  18  19
ENDBRANCH  10  13
ENDBRANCH   7   9
ENDBRANCH   5   7
ENDBRANCH   1   5
BRANCH   2  24
ATOM     24  C14 NON d   1     -41.429  18.614  -4.853  0.00  0.00     0.033 A 
ATOM     25  C15 NON d   1     -41.597  17.613  -3.871  0.00  0.00     0.019 A 
ATOM     26  C16 NON d   1     -42.883  17.107  -3.490  0.00  0.00     0.030 A 
ATOM     27  C17 NON d   1     -44.063  17.576  -4.076  0.00  0.00     0.035 A 
ATOM     28  C26 NON d   1     -43.891  18.572  -5.059  0.00  0.00     0.030 A 
ATOM     29  C27 NON d   1     -42.603  19.090  -5.439  0.00  0.00     0.019 A 
BRANCH  27  30
ATOM     30  N4  NON d   1     -45.412  17.131  -3.763  0.00  0.00    -0.323 N 
ATOM     31  C18 NON d   1     -46.366  16.541  -4.617  0.00  0.00     0.256 C 
ATOM     32  O4  NON d   1     -46.116  16.350  -5.810  0.00  0.00    -0.267 OA
ATOM     33  H19 NON d   1     -45.669  17.284  -2.805  0.00  0.00     0.169 HD
BRANCH  31  34
ATOM     34  C19 NON d   1     -47.800  16.084  -4.122  0.00  0.00     0.038 A 
ATOM     35  C20 NON d   1     -48.428  15.164  -4.980  0.00  0.00     0.017 A 
ATOM     36  C21 NON d   1     -49.690  14.629  -4.692  0.00  0.00     0.001 A 
ATOM     37  C22 NON d   1     -50.368  14.990  -3.528  0.00  0.00     0.001 A 
ATOM     38  C23 NON d   1     -49.797  15.894  -2.639  0.00  0.00     0.007 A 
ATOM     39  C24 NON d   1     -48.543  16.440  -2.931  0.00  0.00    -0.046 A 
ATOM     40  C25 NON d   1     -47.815  17.461  -2.037  0.00  0.00     0.049 C 
ENDBRANCH  31  34
ENDBRANCH  27  30
ENDBRANCH   2  24
TORSDOF 11
ENDMDL
MODEL 5
REMARK VINA RESULT:   -12.828      3.106      5.443
REMARK INTER + INTRA:         -19.972
REMARK INTER:                 -16.109
REMARK INTRA:                  -3.863
REMARK CONF_INDEPENDENT:        3.281
REMARK UNBOUND:                -3.863
REMARK  11 active torsions:
REMARK  status: ('A' for Active; 'I' for Inactive)
REMARK    1  A    between atoms: C2_2  and  C3_3 
REMARK    2  A    between atoms: C3_3  and  C4_4 
REMARK    3  A    between atoms: C4_4  and  O1_5 
REMARK    4  A    between atoms: O1_5  and  C5_6 
REMARK    5  A    between atoms: C10_11  and  C11_12 
REMARK       I    between atoms: C11_12  and  N1_14 
REMARK    6  A    between atoms: N1_14  and  C12_15 
REMARK    7  A    between atoms: C12_15  and  N2_17 
REMARK    8  A    between atoms: N2_17  and  N3_18 
REMARK       I    between atoms: N3_18  and  C13_19 
REMARK    9  A    between atoms: C13_19  and  C14_21 
REMARK   10  A    between atoms: C17_24  and  N4_25 
REMARK       I    between atoms: N4_25  and  C18_26 
REMARK   11  A    between atoms: C18_26  and  C19_28 
ROOT
ATOM      1  N3  NON d   1     -40.167  20.835  -5.563  0.00  0.00    -0.264 N 
ATOM      2  C13 NON d   1     -40.466  19.530  -5.969  0.00  0.00     0.270 C 
ATOM      3  O3  NON d   1     -39.691  18.898  -6.688  0.00  0.00    -0.266 OA
ATOM      4  H16 NON d   1     -40.767  21.394  -4.965  0.00  0.00     0.190 HD
ENDROOT
BRANCH   1   5
ATOM      5  N2  NON d   1     -38.943  21.505  -5.995  0.00  0.00    -0.273 N 
ATOM      6  H15 NON d   1     -38.496  21.076  -6.803  0.00  0.00     0.189 HD
BRANCH   5   7
ATOM      7  C12 NON d   1     -38.360  22.508  -5.184  0.00  0.00     0.193 C 
ATOM      8  S1  NON d   1     -37.234  23.580  -5.827  0.00  0.00    -0.039 SA
BRANCH   7   9
ATOM      9  N1  NON d   1     -38.796  22.478  -3.828  0.00  0.00    -0.298 N 
ATOM     10  C11 NON d   1     -40.069  22.840  -3.269  0.00  0.00     0.260 C 
ATOM     11  O2  NON d   1     -41.033  23.120  -3.976  0.00  0.00    -0.267 OA
ATOM     12  H14 NON d   1     -38.073  22.230  -3.178  0.00  0.00     0.171 HD
BRANCH  10  13
ATOM     13  C10 NON d   1     -40.252  22.912  -1.750  0.00  0.00     0.065 A 
ATOM     14  C9  NON d   1     -41.191  23.794  -1.178  0.00  0.00     0.020 A 
ATOM     15  C8  NON d   1     -41.432  23.816   0.205  0.00  0.00     0.001 A 
ATOM     16  C7  NON d   1     -40.778  22.932   1.047  0.00  0.00     0.003 A 
ATOM     17  C6  NON d   1     -39.831  22.066   0.518  0.00  0.00     0.038 A 
ATOM     18  C5  NON d   1     -39.520  22.066  -0.853  0.00  0.00     0.084 A 
BRANCH  18  19
ATOM     19  O1  NON d   1     -38.350  21.457  -1.249  0.00  0.00    -0.350 OA
BRANCH  19  20
ATOM     20  C4  NON d   1     -38.391  20.196  -1.935  0.00  0.00     0.175 C 
BRANCH  20  21
ATOM     21  C3  NON d   1     -39.721  19.749  -2.581  0.00  0.00     0.026 C 
BRANCH  21  22
ATOM     22  C2  NON d   1     -40.071  18.261  -2.467  0.00  0.00    -0.002 C 
ATOM     23  C1  NON d   1     -41.200  18.019  -1.465  0.00  0.00     0.005 C 
ENDBRANCH  21  22
ENDBRANCH  20  21
ENDBRANCH  19  20
ENDBRANCH  18  19
ENDBRANCH  10  13
ENDBRANCH   7   9
ENDBRANCH   5   7
ENDBRANCH   1   5
BRANCH   2  24
ATOM     24  C14 NON d   1     -41.775  18.879  -5.494  0.00  0.00     0.033 A 
ATOM     25  C15 NON d   1     -41.759  17.561  -4.990  0.00  0.00     0.019 A 
ATOM     26  C16 NON d   1     -42.940  16.892  -4.527  0.00  0.00     0.030 A 
ATOM     27  C17 NON d   1     -44.194  17.510  -4.550  0.00  0.00     0.035 A 
ATOM     28  C26 NON d   1     -44.206  18.825  -5.059  0.00  0.00     0.030 A 
ATOM     29  C27 NON d   1     -43.023  19.504  -5.516  0.00  0.00     0.019 A 
BRANCH  27  30
ATOM     30  N4  NON d   1     -45.448  16.923  -4.105  0.00  0.00    -0.323 N 
ATOM     31  C18 NON d   1     -46.666  16.810  -4.807  0.00  0.00     0.256 C 
ATOM     32  O4  NON d   1     -46.780  17.253  -5.953  0.00  0.00    -0.267 OA
ATOM     33  H19 NON d   1     -45.410  16.564  -3.169  0.00  0.00     0.169 HD
BRANCH  31  34
ATOM     34  C19 NON d   1     -47.952  16.118  -4.194  0.00  0.00     0.038 A 
ATOM     35  C20 NON d   1     -48.582  15.217  -5.072  0.00  0.00     0.017 A 
ATOM     36  C21 NON d   1     -49.719  14.492  -4.694  0.00  0.00     0.001 A 
ATOM     37  C22 NON d   1     -50.265  14.636  -3.419  0.00  0.00     0.001 A 
ATOM     38  C23 NON d   1     -49.685  15.511  -2.506  0.00  0.00     0.007 A 
ATOM     39  C24 NON d   1     -48.557  16.245  -2.885  0.00  0.00    -0.046 A 
ATOM     40  C25 NON d   1     -47.836  17.255  -1.973  0.00  0.00     0.049 C 
ENDBRANCH  31  34
ENDBRANCH  27  30
ENDBRANCH   2  24
TORSDOF 11
ENDMDL
MODEL 6
REMARK VINA RESULT:   -12.802      3.398      5.753
REMARK INTER + INTRA:         -18.826
REMARK INTER:                 -16.083
REMARK INTRA:                  -2.743
REMARK CONF_INDEPENDENT:        3.281
REMARK UNBOUND:                -2.743
REMARK  11 active torsions:
REMARK  status: ('A' for Active; 'I' for Inactive)
REMARK    1  A    between atoms: C2_2  and  C3_3 
REMARK    2  A    between atoms: C3_3  and  C4_4 
REMARK    3  A    between atoms: C4_4  and  O1_5 
REMARK    4  A    between atoms: O1_5  and  C5_6 
REMARK    5  A    between atoms: C10_11  and  C11_12 
REMARK       I    between atoms: C11_12  and  N1_14 
REMARK    6  A    between atoms: N1_14  and  C12_15 
REMARK    7  A    between atoms: C12_15  and  N2_17 
REMARK    8  A    between atoms: N2_17  and  N3_18 
REMARK       I    between atoms: N3_18  and  C13_19 
REMARK    9  A    between atoms: C13_19  and  C14_21 
REMARK   10  A    between atoms: C17_24  and  N4_25 
REMARK       I    between atoms: N4_25  and  C18_26 
REMARK   11  A    between atoms: C18_26  and  C19_28 
ROOT
ATOM      1  N3  NON d   1     -39.711  20.414  -4.526  0.00  0.00    -0.264 N 
ATOM      2  C13 NON d   1     -40.179  19.302  -5.235  0.00  0.00     0.270 C 
ATOM      3  O3  NON d   1     -39.503  18.790  -6.128  0.00  0.00    -0.266 OA
ATOM      4  H16 NON d   1     -40.225  20.867  -3.777  0.00  0.00     0.190 HD
ENDROOT
BRANCH   1   5
ATOM      5  N2  NON d   1     -38.421  21.026  -4.835  0.00  0.00    -0.273 N 
ATOM      6  H15 NON d   1     -37.716  20.369  -5.164  0.00  0.00     0.189 HD
BRANCH   5   7
ATOM      7  C12 NON d   1     -38.168  22.370  -4.468  0.00  0.00     0.193 C 
ATOM      8  S1  NON d   1     -37.224  23.359  -5.447  0.00  0.00    -0.039 SA
BRANCH   7   9
ATOM      9  N1  NON d   1     -38.750  22.746  -3.224  0.00  0.00    -0.298 N 
ATOM     10  C11 NON d   1     -40.121  23.038  -2.908  0.00  0.00     0.260 C 
ATOM     11  O2  NON d   1     -41.026  22.860  -3.717  0.00  0.00    -0.267 OA
ATOM     12  H14 NON d   1     -38.079  22.887  -2.492  0.00  0.00     0.171 HD
BRANCH  10  13
ATOM     13  C10 NON d   1     -40.490  23.614  -1.537  0.00  0.00     0.065 A 
ATOM     14  C9  NON d   1     -40.702  24.998  -1.371  0.00  0.00     0.020 A 
ATOM     15  C8  NON d   1     -41.121  25.535  -0.143  0.00  0.00     0.001 A 
ATOM     16  C7  NON d   1     -41.382  24.707   0.935  0.00  0.00     0.003 A 
ATOM     17  C6  NON d   1     -41.161  23.342   0.810  0.00  0.00     0.038 A 
ATOM     18  C5  NON d   1     -40.679  22.781  -0.386  0.00  0.00     0.084 A 
BRANCH  18  19
ATOM     19  O1  NON d   1     -40.152  21.510  -0.336  0.00  0.00    -0.350 OA
BRANCH  19  20
ATOM     20  C4  NON d   1     -38.733  21.322  -0.223  0.00  0.00     0.175 C 
BRANCH  20  21
ATOM     21  C3  NON d   1     -37.875  22.486   0.322  0.00  0.00     0.026 C 
BRANCH  21  22
ATOM     22  C2  NON d   1     -37.827  22.646   1.845  0.00  0.00    -0.002 C 
ATOM     23  C1  NON d   1     -38.248  24.049   2.281  0.00  0.00     0.005 C 
ENDBRANCH  21  22
ENDBRANCH  20  21
ENDBRANCH  19  20
ENDBRANCH  18  19
ENDBRANCH  10  13
ENDBRANCH   7   9
ENDBRANCH   5   7
ENDBRANCH   1   5
BRANCH   2  24
ATOM     24  C14 NON d   1     -41.550  18.708  -4.875  0.00  0.00     0.033 A 
ATOM     25  C15 NON d   1     -41.633  17.655  -3.938  0.00  0.00     0.019 A 
ATOM     26  C16 NON d   1     -42.877  17.054  -3.553  0.00  0.00     0.030 A 
ATOM     27  C17 NON d   1     -44.097  17.477  -4.090  0.00  0.00     0.035 A 
ATOM     28  C26 NON d   1     -44.008  18.525  -5.029  0.00  0.00     0.030 A 
ATOM     29  C27 NON d   1     -42.764  19.138  -5.412  0.00  0.00     0.019 A 
BRANCH  27  30
ATOM     30  N4  NON d   1     -45.409  16.937  -3.768  0.00  0.00    -0.323 N 
ATOM     31  C18 NON d   1     -46.517  16.749  -4.619  0.00  0.00     0.256 C 
ATOM     32  O4  NON d   1     -46.463  17.069  -5.810  0.00  0.00    -0.267 OA
ATOM     33  H19 NON d   1     -45.507  16.679  -2.804  0.00  0.00     0.169 HD
BRANCH  31  34
ATOM     34  C19 NON d   1     -47.885  16.123  -4.125  0.00  0.00     0.038 A 
ATOM     35  C20 NON d   1     -48.487  15.266  -5.065  0.00  0.00     0.017 A 
ATOM     36  C21 NON d   1     -49.689  14.601  -4.793  0.00  0.00     0.001 A 
ATOM     37  C22 NON d   1     -50.332  14.763  -3.566  0.00  0.00     0.001 A 
ATOM     38  C23 NON d   1     -49.784  15.596  -2.595  0.00  0.00     0.007 A 
ATOM     39  C24 NON d   1     -48.591  16.271  -2.870  0.00  0.00    -0.046 A 
ATOM     40  C25 NON d   1     -47.895  17.230  -1.886  0.00  0.00     0.049 C 
ENDBRANCH  31  34
ENDBRANCH  27  30
ENDBRANCH   2  24
TORSDOF 11
ENDMDL
MODEL 7
REMARK VINA RESULT:   -12.709      1.096      1.621
REMARK INTER + INTRA:         -18.557
REMARK INTER:                 -15.991
REMARK INTRA:                  -2.566
REMARK CONF_INDEPENDENT:        3.281
REMARK UNBOUND:                -2.566
REMARK  11 active torsions:
REMARK  status: ('A' for Active; 'I' for Inactive)
REMARK    1  A    between atoms: C2_2  and  C3_3 
REMARK    2  A    between atoms: C3_3  and  C4_4 
REMARK    3  A    between atoms: C4_4  and  O1_5 
REMARK    4  A    between atoms: O1_5  and  C5_6 
REMARK    5  A    between atoms: C10_11  and  C11_12 
REMARK       I    between atoms: C11_12  and  N1_14 
REMARK    6  A    between atoms: N1_14  and  C12_15 
REMARK    7  A    between atoms: C12_15  and  N2_17 
REMARK    8  A    between atoms: N2_17  and  N3_18 
REMARK       I    between atoms: N3_18  and  C13_19 
REMARK    9  A    between atoms: C13_19  and  C14_21 
REMARK   10  A    between atoms: C17_24  and  N4_25 
REMARK       I    between atoms: N4_25  and  C18_26 
REMARK   11  A    between atoms: C18_26  and  C19_28 
ROOT
ATOM      1  N3  NON d   1     -39.370  18.751  -6.151  0.00  0.00    -0.264 N 
ATOM      2  C13 NON d   1     -40.092  19.286  -5.079  0.00  0.00     0.270 C 
ATOM      3  O3  NON d   1     -39.640  20.221  -4.416  0.00  0.00    -0.266 OA
ATOM      4  H16 NON d   1     -39.702  17.988  -6.733  0.00  0.00     0.190 HD
ENDROOT
BRANCH   1   5
ATOM      5  N2  NON d   1     -38.047  19.258  -6.508  0.00  0.00    -0.273 N 
ATOM      6  H15 NON d   1     -37.403  19.332  -5.723  0.00  0.00     0.189 HD
BRANCH   5   7
ATOM      7  C12 NON d   1     -37.819  19.799  -7.797  0.00  0.00     0.193 C 
ATOM      8  S1  NON d   1     -37.004  18.907  -8.966  0.00  0.00    -0.039 SA
BRANCH   7   9
ATOM      9  N1  NON d   1     -38.308  21.127  -7.958  0.00  0.00    -0.298 N 
ATOM     10  C11 NON d   1     -39.303  21.631  -8.865  0.00  0.00     0.260 C 
ATOM     11  O2  NON d   1     -39.977  20.885  -9.569  0.00  0.00    -0.267 OA
ATOM     12  H14 NON d   1     -37.829  21.804  -7.395  0.00  0.00     0.171 HD
BRANCH  10  13
ATOM     13  C10 NON d   1     -39.531  23.140  -8.997  0.00  0.00     0.065 A 
ATOM     14  C9  NON d   1     -39.926  23.703 -10.228  0.00  0.00     0.020 A 
ATOM     15  C8  NON d   1     -40.220  25.071 -10.350  0.00  0.00     0.001 A 
ATOM     16  C7  NON d   1     -40.173  25.901  -9.243  0.00  0.00     0.003 A 
ATOM     17  C6  NON d   1     -39.766  25.382  -8.022  0.00  0.00     0.038 A 
ATOM     18  C5  NON d   1     -39.402  24.031  -7.882  0.00  0.00     0.084 A 
BRANCH  18  19
ATOM     19  O1  NON d   1     -38.684  23.669  -6.765  0.00  0.00    -0.350 OA
BRANCH  19  20
ATOM     20  C4  NON d   1     -39.346  23.521  -5.500  0.00  0.00     0.175 C 
BRANCH  20  21
ATOM     21  C3  NON d   1     -40.112  24.731  -4.920  0.00  0.00     0.026 C 
BRANCH  21  22
ATOM     22  C2  NON d   1     -41.059  24.445  -3.750  0.00  0.00    -0.002 C 
ATOM     23  C1  NON d   1     -41.226  22.945  -3.509  0.00  0.00     0.005 C 
ENDBRANCH  21  22
ENDBRANCH  20  21
ENDBRANCH  19  20
ENDBRANCH  18  19
ENDBRANCH  10  13
ENDBRANCH   7   9
ENDBRANCH   5   7
ENDBRANCH   1   5
BRANCH   2  24
ATOM     24  C14 NON d   1     -41.473  18.705  -4.741  0.00  0.00     0.033 A 
ATOM     25  C15 NON d   1     -41.610  17.805  -3.662  0.00  0.00     0.019 A 
ATOM     26  C16 NON d   1     -42.867  17.226  -3.288  0.00  0.00     0.030 A 
ATOM     27  C17 NON d   1     -44.047  17.517  -3.979  0.00  0.00     0.035 A 
ATOM     28  C26 NON d   1     -43.905  18.411  -5.060  0.00  0.00     0.030 A 
ATOM     29  C27 NON d   1     -42.648  19.003  -5.434  0.00  0.00     0.019 A 
BRANCH  27  30
ATOM     30  N4  NON d   1     -45.369  16.985  -3.683  0.00  0.00    -0.323 N 
ATOM     31  C18 NON d   1     -46.431  16.718  -4.571  0.00  0.00     0.256 C 
ATOM     32  O4  NON d   1     -46.320  16.948  -5.778  0.00  0.00    -0.267 OA
ATOM     33  H19 NON d   1     -45.513  16.799  -2.708  0.00  0.00     0.169 HD
BRANCH  31  34
ATOM     34  C19 NON d   1     -47.816  16.113  -4.099  0.00  0.00     0.038 A 
ATOM     35  C20 NON d   1     -48.422  15.275  -5.053  0.00  0.00     0.017 A 
ATOM     36  C21 NON d   1     -49.639  14.630  -4.802  0.00  0.00     0.001 A 
ATOM     37  C22 NON d   1     -50.293  14.793  -3.582  0.00  0.00     0.001 A 
ATOM     38  C23 NON d   1     -49.743  15.607  -2.597  0.00  0.00     0.007 A 
ATOM     39  C24 NON d   1     -48.534  16.263  -2.851  0.00  0.00    -0.046 A 
ATOM     40  C25 NON d   1     -47.834  17.202  -1.851  0.00  0.00     0.049 C 
ENDBRANCH  31  34
ENDBRANCH  27  30
ENDBRANCH   2  24
TORSDOF 11
ENDMDL
MODEL 8
REMARK VINA RESULT:   -12.247      3.181      5.409
REMARK INTER + INTRA:         -19.116
REMARK INTER:                 -15.529
REMARK INTRA:                  -3.587
REMARK CONF_INDEPENDENT:        3.281
REMARK UNBOUND:                -3.587
REMARK  11 active torsions:
REMARK  status: ('A' for Active; 'I' for Inactive)
REMARK    1  A    between atoms: C2_2  and  C3_3 
REMARK    2  A    between atoms: C3_3  and  C4_4 
REMARK    3  A    between atoms: C4_4  and  O1_5 
REMARK    4  A    between atoms: O1_5  and  C5_6 
REMARK    5  A    between atoms: C10_11  and  C11_12 
REMARK       I    between atoms: C11_12  and  N1_14 
REMARK    6  A    between atoms: N1_14  and  C12_15 
REMARK    7  A    between atoms: C12_15  and  N2_17 
REMARK    8  A    between atoms: N2_17  and  N3_18 
REMARK       I    between atoms: N3_18  and  C13_19 
REMARK    9  A    between atoms: C13_19  and  C14_21 
REMARK   10  A    between atoms: C17_24  and  N4_25 
REMARK       I    between atoms: N4_25  and  C18_26 
REMARK   11  A    between atoms: C18_26  and  C19_28 
ROOT
ATOM      1  N3  NON d   1     -39.250  19.723  -4.012  0.00  0.00    -0.264 N 
ATOM      2  C13 NON d   1     -40.009  19.126  -5.025  0.00  0.00     0.270 C 
ATOM      3  O3  NON d   1     -39.562  19.014  -6.167  0.00  0.00    -0.266 OA
ATOM      4  H16 NON d   1     -39.569  19.832  -3.054  0.00  0.00     0.190 HD
ENDROOT
BRANCH   1   5
ATOM      5  N2  NON d   1     -37.917  20.258  -4.274  0.00  0.00    -0.273 N 
ATOM      6  H15 NON d   1     -37.198  19.547  -4.392  0.00  0.00     0.189 HD
BRANCH   5   7
ATOM      7  C12 NON d   1     -37.668  21.645  -4.131  0.00  0.00     0.193 C 
ATOM      8  S1  NON d   1     -36.637  22.442  -5.194  0.00  0.00    -0.039 SA
BRANCH   7   9
ATOM      9  N1  NON d   1     -38.335  22.238  -3.021  0.00  0.00    -0.298 N 
ATOM     10  C11 NON d   1     -38.694  21.660  -1.755  0.00  0.00     0.260 C 
ATOM     11  O2  NON d   1     -38.323  20.538  -1.425  0.00  0.00    -0.267 OA
ATOM     12  H14 NON d   1     -38.652  23.173  -3.195  0.00  0.00     0.171 HD
BRANCH  10  13
ATOM     13  C10 NON d   1     -39.586  22.434  -0.780  0.00  0.00     0.065 A 
ATOM     14  C9  NON d   1     -40.189  21.783   0.316  0.00  0.00     0.020 A 
ATOM     15  C8  NON d   1     -40.943  22.490   1.267  0.00  0.00     0.001 A 
ATOM     16  C7  NON d   1     -41.077  23.865   1.177  0.00  0.00     0.003 A 
ATOM     17  C6  NON d   1     -40.514  24.532   0.097  0.00  0.00     0.038 A 
ATOM     18  C5  NON d   1     -39.810  23.844  -0.906  0.00  0.00     0.084 A 
BRANCH  18  19
ATOM     19  O1  NON d   1     -39.592  24.492  -2.101  0.00  0.00    -0.350 OA
BRANCH  19  20
ATOM     20  C4  NON d   1     -40.656  24.617  -3.057  0.00  0.00     0.175 C 
BRANCH  20  21
ATOM     21  C3  NON d   1     -40.361  24.288  -4.538  0.00  0.00     0.026 C 
BRANCH  21  22
ATOM     22  C2  NON d   1     -40.694  22.867  -5.003  0.00  0.00    -0.002 C 
ATOM     23  C1  NON d   1     -41.335  22.041  -3.889  0.00  0.00     0.005 C 
ENDBRANCH  21  22
ENDBRANCH  20  21
ENDBRANCH  19  20
ENDBRANCH  18  19
ENDBRANCH  10  13
ENDBRANCH   7   9
ENDBRANCH   5   7
ENDBRANCH   1   5
BRANCH   2  24
ATOM     24  C14 NON d   1     -41.411  18.592  -4.694  0.00  0.00     0.033 A 
ATOM     25  C15 NON d   1     -41.571  17.624  -3.679  0.00  0.00     0.019 A 
ATOM     26  C16 NON d   1     -42.848  17.083  -3.316  0.00  0.00     0.030 A 
ATOM     27  C17 NON d   1     -44.027  17.483  -3.953  0.00  0.00     0.035 A 
ATOM     28  C26 NON d   1     -43.862  18.447  -4.969  0.00  0.00     0.030 A 
ATOM     29  C27 NON d   1     -42.584  19.000  -5.332  0.00  0.00     0.019 A 
BRANCH  27  30
ATOM     30  N4  NON d   1     -45.367  16.999  -3.661  0.00  0.00    -0.323 N 
ATOM     31  C18 NON d   1     -46.375  16.599  -4.563  0.00  0.00     0.256 C 
ATOM     32  O4  NON d   1     -46.190  16.645  -5.782  0.00  0.00    -0.267 OA
ATOM     33  H19 NON d   1     -45.571  16.962  -2.680  0.00  0.00     0.169 HD
BRANCH  31  34
ATOM     34  C19 NON d   1     -47.790  16.068  -4.091  0.00  0.00     0.038 A 
ATOM     35  C20 NON d   1     -48.414  15.216  -5.020  0.00  0.00     0.017 A 
ATOM     36  C21 NON d   1     -49.659  14.630  -4.764  0.00  0.00     0.001 A 
ATOM     37  C22 NON d   1     -50.326  14.868  -3.563  0.00  0.00     0.001 A 
ATOM     38  C23 NON d   1     -49.759  15.701  -2.603  0.00  0.00     0.007 A 
ATOM     39  C24 NON d   1     -48.522  16.298  -2.862  0.00  0.00    -0.046 A 
ATOM     40  C25 NON d   1     -47.800  17.249  -1.889  0.00  0.00     0.049 C 
ENDBRANCH  31  34
ENDBRANCH  27  30
ENDBRANCH   2  24
TORSDOF 11
ENDMDL
MODEL 9
REMARK VINA RESULT:   -12.094      1.732      2.940
REMARK INTER + INTRA:         -18.682
REMARK INTER:                 -15.375
REMARK INTRA:                  -3.306
REMARK CONF_INDEPENDENT:        3.281
REMARK UNBOUND:                -3.306
REMARK  11 active torsions:
REMARK  status: ('A' for Active; 'I' for Inactive)
REMARK    1  A    between atoms: C2_2  and  C3_3 
REMARK    2  A    between atoms: C3_3  and  C4_4 
REMARK    3  A    between atoms: C4_4  and  O1_5 
REMARK    4  A    between atoms: O1_5  and  C5_6 
REMARK    5  A    between atoms: C10_11  and  C11_12 
REMARK       I    between atoms: C11_12  and  N1_14 
REMARK    6  A    between atoms: N1_14  and  C12_15 
REMARK    7  A    between atoms: C12_15  and  N2_17 
REMARK    8  A    between atoms: N2_17  and  N3_18 
REMARK       I    between atoms: N3_18  and  C13_19 
REMARK    9  A    between atoms: C13_19  and  C14_21 
REMARK   10  A    between atoms: C17_24  and  N4_25 
REMARK       I    between atoms: N4_25  and  C18_26 
REMARK   11  A    between atoms: C18_26  and  C19_28 
ROOT
ATOM      1  N3  NON d   1     -39.075  19.156  -4.346  0.00  0.00    -0.264 N 
ATOM      2  C13 NON d   1     -40.120  19.233  -5.273  0.00  0.00     0.270 C 
ATOM      3  O3  NON d   1     -39.946  19.740  -6.382  0.00  0.00    -0.266 OA
ATOM      4  H16 NON d   1     -39.165  18.741  -3.424  0.00  0.00     0.190 HD
ENDROOT
BRANCH   1   5
ATOM      5  N2  NON d   1     -37.750  19.694  -4.645  0.00  0.00    -0.273 N 
ATOM      6  H15 NON d   1     -37.001  19.007  -4.598  0.00  0.00     0.189 HD
BRANCH   5   7
ATOM      7  C12 NON d   1     -37.561  21.093  -4.752  0.00  0.00     0.193 C 
ATOM      8  S1  NON d   1     -36.770  21.943  -3.535  0.00  0.00    -0.039 SA
BRANCH   7   9
ATOM      9  N1  NON d   1     -38.120  21.661  -5.932  0.00  0.00    -0.298 N 
ATOM     10  C11 NON d   1     -38.083  23.020  -6.399  0.00  0.00     0.260 C 
ATOM     11  O2  NON d   1     -37.404  23.879  -5.844  0.00  0.00    -0.267 OA
ATOM     12  H14 NON d   1     -38.674  21.017  -6.466  0.00  0.00     0.171 HD
BRANCH  10  13
ATOM     13  C10 NON d   1     -38.924  23.444  -7.607  0.00  0.00     0.065 A 
ATOM     14  C9  NON d   1     -39.502  24.728  -7.667  0.00  0.00     0.020 A 
ATOM     15  C8  NON d   1     -40.207  25.165  -8.800  0.00  0.00     0.001 A 
ATOM     16  C7  NON d   1     -40.317  24.353  -9.916  0.00  0.00     0.003 A 
ATOM     17  C6  NON d   1     -39.779  23.074  -9.880  0.00  0.00     0.038 A 
ATOM     18  C5  NON d   1     -39.124  22.584  -8.736  0.00  0.00     0.084 A 
BRANCH  18  19
ATOM     19  O1  NON d   1     -38.935  21.224  -8.634  0.00  0.00    -0.350 OA
BRANCH  19  20
ATOM     20  C4  NON d   1     -37.798  20.606  -9.256  0.00  0.00     0.175 C 
BRANCH  20  21
ATOM     21  C3  NON d   1     -36.751  19.911  -8.357  0.00  0.00     0.026 C 
BRANCH  21  22
ATOM     22  C2  NON d   1     -36.713  18.380  -8.408  0.00  0.00    -0.002 C 
ATOM     23  C1  NON d   1     -36.451  17.773  -7.030  0.00  0.00     0.005 C 
ENDBRANCH  21  22
ENDBRANCH  20  21
ENDBRANCH  19  20
ENDBRANCH  18  19
ENDBRANCH  10  13
ENDBRANCH   7   9
ENDBRANCH   5   7
ENDBRANCH   1   5
BRANCH   2  24
ATOM     24  C14 NON d   1     -41.497  18.661  -4.899  0.00  0.00     0.033 A 
ATOM     25  C15 NON d   1     -41.589  17.627  -3.942  0.00  0.00     0.019 A 
ATOM     26  C16 NON d   1     -42.839  17.048  -3.543  0.00  0.00     0.030 A 
ATOM     27  C17 NON d   1     -44.055  17.474  -4.085  0.00  0.00     0.035 A 
ATOM     28  C26 NON d   1     -43.957  18.504  -5.044  0.00  0.00     0.030 A 
ATOM     29  C27 NON d   1     -42.708  19.095  -5.441  0.00  0.00     0.019 A 
BRANCH  27  30
ATOM     30  N4  NON d   1     -45.372  16.955  -3.750  0.00  0.00    -0.323 N 
ATOM     31  C18 NON d   1     -46.469  16.719  -4.603  0.00  0.00     0.256 C 
ATOM     32  O4  NON d   1     -46.399  16.968  -5.810  0.00  0.00    -0.267 OA
ATOM     33  H19 NON d   1     -45.484  16.754  -2.774  0.00  0.00     0.169 HD
BRANCH  31  34
ATOM     34  C19 NON d   1     -47.845  16.123  -4.092  0.00  0.00     0.038 A 
ATOM     35  C20 NON d   1     -48.471  15.269  -5.018  0.00  0.00     0.017 A 
ATOM     36  C21 NON d   1     -49.683  14.630  -4.730  0.00  0.00     0.001 A 
ATOM     37  C22 NON d   1     -50.312  14.816  -3.500  0.00  0.00     0.001 A 
ATOM     38  C23 NON d   1     -49.741  15.648  -2.542  0.00  0.00     0.007 A 
ATOM     39  C24 NON d   1     -48.537  16.297  -2.833  0.00  0.00    -0.046 A 
ATOM     40  C25 NON d   1     -47.816  17.254  -1.865  0.00  0.00     0.049 C 
ENDBRANCH  31  34
ENDBRANCH  27  30
ENDBRANCH   2  24
TORSDOF 11
ENDMDL
