MODEL 1
REMARK VINA RESULT:   -16.135      0.000      0.000
REMARK INTER + INTRA:         -24.450
REMARK INTER:                 -21.803
REMARK INTRA:                  -2.647
REMARK CONF_INDEPENDENT:        5.668
REMARK UNBOUND:                -2.647
REMARK  19 active torsions:
REMARK  status: ('A' for Active; 'I' for Inactive)
REMARK    1  A    between atoms: C2_2  and  C3_3 
REMARK    2  A    between atoms: C3_3  and  C4_4 
REMARK    3  A    between atoms: C5_5  and  C4_4 
REMARK    4  A    between atoms: C5_5  and  C7_7 
REMARK    5  A    between atoms: C8_8  and  C7_7 
REMARK    6  A    between atoms: C8_8  and  C9_9 
REMARK    7  A    between atoms: C8_8  and  O6_34 
REMARK    8  A    between atoms: C11_11  and  C10_10 
REMARK    9  A    between atoms: C12_12  and  C13_13 
REMARK   10  A    between atoms: C13_13  and  C14_14 
REMARK   11  A    between atoms: C14_14  and  C15_15 
REMARK   12  A    between atoms: C15_15  and  C16_16 
REMARK   13  A    between atoms: C16_16  and  C17_17 
REMARK   14  A    between atoms: C18_18  and  C19_19 
REMARK   15  A    between atoms: C19_19  and  O2_21 
REMARK   16  A    between atoms: C21_23  and  O3_24 
REMARK   17  A    between atoms: C23_26  and  O4_27 
REMARK   18  A    between atoms: C24_28  and  O4_27 
REMARK   19  A    between atoms: C29_35  and  O6_34 
ROOT
ATOM      1  C11 NON d   1     -39.421  21.700  -3.440  0.00  0.00     0.043 C 
ATOM      2  C12 NON d   1     -40.104  20.279  -3.274  0.00  0.00     0.024 C 
ATOM      3  C21 NON d   1     -39.866  20.042  -1.762  0.00  0.00     0.125 C 
ATOM      4  C22 NON d   1     -39.941  21.409  -1.079  0.00  0.00     0.065 C 
ATOM      5  C23 NON d   1     -40.037  22.427  -2.216  0.00  0.00     0.135 C 
ENDROOT
BRANCH   1   6
ATOM      6  C10 NON d   1     -39.656  22.419  -4.757  0.00  0.00    -0.021 C 
ATOM      7  C9  NON d   1     -39.070  22.045  -5.917  0.00  0.00     0.001 C 
BRANCH   7   8
ATOM      8  C8  NON d   1     -39.530  22.290  -7.331  0.00  0.00     0.147 C 
BRANCH   8   9
ATOM      9  C7  NON d   1     -40.130  23.631  -7.760  0.00  0.00     0.040 C 
BRANCH   9  10
ATOM     10  C5  NON d   1     -40.091  23.985  -9.276  0.00  0.00    -0.016 C 
ATOM     11  C6  NON d   1     -39.749  25.475  -9.442  0.00  0.00     0.010 C 
BRANCH  10  12
ATOM     12  C4  NON d   1     -39.189  23.176 -10.245  0.00  0.00     0.004 C 
BRANCH  12  13
ATOM     13  C3  NON d   1     -39.554  22.929 -11.717  0.00  0.00     0.000 C 
BRANCH  13  14
ATOM     14  C2  NON d   1     -39.705  24.102 -12.680  0.00  0.00    -0.005 C 
ATOM     15  C1  NON d   1     -41.110  24.447 -13.134  0.00  0.00     0.005 C 
ENDBRANCH  13  14
ENDBRANCH  12  13
ENDBRANCH  10  12
ENDBRANCH   9  10
ENDBRANCH   8   9
BRANCH   8  16
ATOM     16  O6  NON d   1     -40.398  21.235  -7.733  0.00  0.00    -0.352 OA
BRANCH  16  17
ATOM     17  C29 NON d   1     -39.882  20.496  -8.843  0.00  0.00     0.260 C 
ATOM     18  C30 NON d   1     -38.347  20.569  -8.967  0.00  0.00     0.061 C 
ATOM     19  C31 NON d   1     -37.679  19.470  -8.176  0.00  0.00     0.007 C 
ATOM     20  C32 NON d   1     -38.585  18.993  -7.060  0.00  0.00     0.026 C 
ATOM     21  C33 NON d   1     -39.942  18.527  -7.550  0.00  0.00     0.171 C 
ATOM     22  O7  NON d   1     -40.306  19.137  -8.782  0.00  0.00    -0.361 OA
ENDBRANCH  16  17
ENDBRANCH   8  16
ENDBRANCH   7   8
ENDBRANCH   1   6
BRANCH   2  23
ATOM     23  C13 NON d   1     -39.630  19.028  -4.107  0.00  0.00     0.008 C 
BRANCH  23  24
ATOM     24  C14 NON d   1     -40.642  17.847  -4.068  0.00  0.00     0.001 C 
BRANCH  24  25
ATOM     25  C15 NON d   1     -42.134  18.065  -4.475  0.00  0.00     0.004 C 
BRANCH  25  26
ATOM     26  C16 NON d   1     -43.338  17.416  -3.740  0.00  0.00     0.027 C 
BRANCH  26  27
ATOM     27  C17 NON d   1     -44.727  17.566  -4.343  0.00  0.00    -0.021 C 
ATOM     28  C18 NON d   1     -45.441  16.512  -4.779  0.00  0.00     0.078 C 
BRANCH  28  29
ATOM     29  C19 NON d   1     -46.654  16.634  -5.632  0.00  0.00     0.282 C 
ATOM     30  O1  NON d   1     -47.047  17.642  -6.188  0.00  0.00    -0.260 OA
BRANCH  29  31
ATOM     31  O2  NON d   1     -47.151  15.376  -5.807  0.00  0.00    -0.323 OA
ATOM     32  C20 NON d   1     -48.264  15.009  -4.983  0.00  0.00     0.213 C 
ENDBRANCH  29  31
ENDBRANCH  28  29
ENDBRANCH  26  27
ENDBRANCH  25  26
ENDBRANCH  24  25
ENDBRANCH  23  24
ENDBRANCH   2  23
BRANCH   5  33
ATOM     33  O4  NON d   1     -39.650  23.730  -1.819  0.00  0.00    -0.355 OA
BRANCH  33  34
ATOM     34  C24 NON d   1     -40.574  24.716  -1.386  0.00  0.00     0.260 C 
ATOM     35  C25 NON d   1     -40.818  24.384   0.093  0.00  0.00     0.061 C 
ATOM     36  C26 NON d   1     -41.698  25.408   0.783  0.00  0.00     0.007 C 
ATOM     37  C27 NON d   1     -41.289  26.831   0.425  0.00  0.00     0.026 C 
ATOM     38  C28 NON d   1     -40.053  26.882  -0.470  0.00  0.00     0.171 C 
ATOM     39  O5  NON d   1     -40.156  26.054  -1.625  0.00  0.00    -0.361 OA
ENDBRANCH  33  34
ENDBRANCH   5  33
BRANCH   3  40
ATOM     40  O3  NON d   1     -40.829  19.146  -1.232  0.00  0.00    -0.395 OA
ATOM     41  H35 NON d   1     -40.383  18.289  -1.099  0.00  0.00     0.210 HD
ENDBRANCH   3  40
TORSDOF 19
ENDMDL
MODEL 2
REMARK VINA RESULT:   -15.502      1.608      2.633
REMARK INTER + INTRA:         -24.546
REMARK INTER:                 -21.170
REMARK INTRA:                  -3.376
REMARK CONF_INDEPENDENT:        5.668
REMARK UNBOUND:                -3.376
REMARK  19 active torsions:
REMARK  status: ('A' for Active; 'I' for Inactive)
REMARK    1  A    between atoms: C2_2  and  C3_3 
REMARK    2  A    between atoms: C3_3  and  C4_4 
REMARK    3  A    between atoms: C5_5  and  C4_4 
REMARK    4  A    between atoms: C5_5  and  C7_7 
REMARK    5  A    between atoms: C8_8  and  C7_7 
REMARK    6  A    between atoms: C8_8  and  C9_9 
REMARK    7  A    between atoms: C8_8  and  O6_34 
REMARK    8  A    between atoms: C11_11  and  C10_10 
REMARK    9  A    between atoms: C12_12  and  C13_13 
REMARK   10  A    between atoms: C13_13  and  C14_14 
REMARK   11  A    between atoms: C14_14  and  C15_15 
REMARK   12  A    between atoms: C15_15  and  C16_16 
REMARK   13  A    between atoms: C16_16  and  C17_17 
REMARK   14  A    between atoms: C18_18  and  C19_19 
REMARK   15  A    between atoms: C19_19  and  O2_21 
REMARK   16  A    between atoms: C21_23  and  O3_24 
REMARK   17  A    between atoms: C23_26  and  O4_27 
REMARK   18  A    between atoms: C24_28  and  O4_27 
REMARK   19  A    between atoms: C29_35  and  O6_34 
ROOT
ATOM      1  C11 NON d   1     -39.337  21.147  -3.775  0.00  0.00     0.043 C 
ATOM      2  C12 NON d   1     -40.173  19.806  -3.653  0.00  0.00     0.024 C 
ATOM      3  C21 NON d   1     -39.725  19.337  -2.246  0.00  0.00     0.125 C 
ATOM      4  C22 NON d   1     -39.495  20.598  -1.409  0.00  0.00     0.065 C 
ATOM      5  C23 NON d   1     -39.635  21.766  -2.384  0.00  0.00     0.135 C 
ENDROOT
BRANCH   1   6
ATOM      6  C10 NON d   1     -39.683  22.063  -4.937  0.00  0.00    -0.021 C 
ATOM      7  C9  NON d   1     -39.056  22.008  -6.133  0.00  0.00     0.001 C 
BRANCH   7   8
ATOM      8  C8  NON d   1     -39.556  22.449  -7.484  0.00  0.00     0.147 C 
BRANCH   8   9
ATOM      9  C7  NON d   1     -40.009  23.888  -7.743  0.00  0.00     0.040 C 
BRANCH   9  10
ATOM     10  C5  NON d   1     -38.952  25.019  -7.564  0.00  0.00    -0.016 C 
ATOM     11  C6  NON d   1     -38.565  25.576  -8.945  0.00  0.00     0.010 C 
BRANCH  10  12
ATOM     12  C4  NON d   1     -39.245  26.222  -6.628  0.00  0.00     0.004 C 
BRANCH  12  13
ATOM     13  C3  NON d   1     -40.655  26.567  -6.127  0.00  0.00     0.000 C 
BRANCH  13  14
ATOM     14  C2  NON d   1     -41.016  26.382  -4.657  0.00  0.00    -0.005 C 
ATOM     15  C1  NON d   1     -41.064  24.961  -4.130  0.00  0.00     0.005 C 
ENDBRANCH  13  14
ENDBRANCH  12  13
ENDBRANCH  10  12
ENDBRANCH   9  10
ENDBRANCH   8   9
BRANCH   8  16
ATOM     16  O6  NON d   1     -40.566  21.549  -7.929  0.00  0.00    -0.352 OA
BRANCH  16  17
ATOM     17  C29 NON d   1     -40.240  20.937  -9.179  0.00  0.00     0.260 C 
ATOM     18  C30 NON d   1     -38.766  21.127  -9.589  0.00  0.00     0.061 C 
ATOM     19  C31 NON d   1     -37.896  20.021  -9.043  0.00  0.00     0.007 C 
ATOM     20  C32 NON d   1     -38.537  19.396  -7.821  0.00  0.00     0.026 C 
ATOM     21  C33 NON d   1     -39.936  18.875  -8.081  0.00  0.00     0.171 C 
ATOM     22  O7  NON d   1     -40.569  19.550  -9.160  0.00  0.00    -0.361 OA
ENDBRANCH  16  17
ENDBRANCH   8  16
ENDBRANCH   7   8
ENDBRANCH   1   6
BRANCH   2  23
ATOM     23  C13 NON d   1     -40.022  18.635  -4.696  0.00  0.00     0.008 C 
BRANCH  23  24
ATOM     24  C14 NON d   1     -41.383  18.012  -5.120  0.00  0.00     0.001 C 
BRANCH  24  25
ATOM     25  C15 NON d   1     -42.717  18.495  -4.465  0.00  0.00     0.004 C 
BRANCH  25  26
ATOM     26  C16 NON d   1     -43.651  17.584  -3.625  0.00  0.00     0.027 C 
BRANCH  26  27
ATOM     27  C17 NON d   1     -45.102  17.431  -4.059  0.00  0.00    -0.021 C 
ATOM     28  C18 NON d   1     -45.472  16.613  -5.063  0.00  0.00     0.078 C 
BRANCH  28  29
ATOM     29  C19 NON d   1     -46.812  16.654  -5.707  0.00  0.00     0.282 C 
ATOM     30  O1  NON d   1     -47.354  17.633  -6.185  0.00  0.00    -0.260 OA
BRANCH  29  31
ATOM     31  O2  NON d   1     -47.248  15.366  -5.810  0.00  0.00    -0.323 OA
ATOM     32  C20 NON d   1     -48.430  15.031  -5.071  0.00  0.00     0.213 C 
ENDBRANCH  29  31
ENDBRANCH  28  29
ENDBRANCH  26  27
ENDBRANCH  25  26
ENDBRANCH  24  25
ENDBRANCH  23  24
ENDBRANCH   2  23
BRANCH   5  33
ATOM     33  O4  NON d   1     -39.010  22.947  -1.917  0.00  0.00    -0.355 OA
BRANCH  33  34
ATOM     34  C24 NON d   1     -39.623  23.837  -0.997  0.00  0.00     0.260 C 
ATOM     35  C25 NON d   1     -41.040  23.274  -0.812  0.00  0.00     0.061 C 
ATOM     36  C26 NON d   1     -41.832  24.023   0.242  0.00  0.00     0.007 C 
ATOM     37  C27 NON d   1     -40.997  24.290   1.487  0.00  0.00     0.026 C 
ATOM     38  C28 NON d   1     -39.603  23.673   1.406  0.00  0.00     0.171 C 
ATOM     39  O5  NON d   1     -38.901  24.016   0.214  0.00  0.00    -0.361 OA
ENDBRANCH  33  34
ENDBRANCH   5  33
BRANCH   3  40
ATOM     40  O3  NON d   1     -40.702  18.495  -1.657  0.00  0.00    -0.395 OA
ATOM     41  H35 NON d   1     -40.315  18.133  -0.839  0.00  0.00     0.210 HD
ENDBRANCH   3  40
TORSDOF 19
ENDMDL
MODEL 3
REMARK VINA RESULT:   -15.447      1.807      6.445
REMARK INTER + INTRA:         -24.460
REMARK INTER:                 -21.114
REMARK INTRA:                  -3.345
REMARK CONF_INDEPENDENT:        5.668
REMARK UNBOUND:                -3.345
REMARK  19 active torsions:
REMARK  status: ('A' for Active; 'I' for Inactive)
REMARK    1  A    between atoms: C2_2  and  C3_3 
REMARK    2  A    between atoms: C3_3  and  C4_4 
REMARK    3  A    between atoms: C5_5  and  C4_4 
REMARK    4  A    between atoms: C5_5  and  C7_7 
REMARK    5  A    between atoms: C8_8  and  C7_7 
REMARK    6  A    between atoms: C8_8  and  C9_9 
REMARK    7  A    between atoms: C8_8  and  O6_34 
REMARK    8  A    between atoms: C11_11  and  C10_10 
REMARK    9  A    between atoms: C12_12  and  C13_13 
REMARK   10  A    between atoms: C13_13  and  C14_14 
REMARK   11  A    between atoms: C14_14  and  C15_15 
REMARK   12  A    between atoms: C15_15  and  C16_16 
REMARK   13  A    between atoms: C16_16  and  C17_17 
REMARK   14  A    between atoms: C18_18  and  C19_19 
REMARK   15  A    between atoms: C19_19  and  O2_21 
REMARK   16  A    between atoms: C21_23  and  O3_24 
REMARK   17  A    between atoms: C23_26  and  O4_27 
REMARK   18  A    between atoms: C24_28  and  O4_27 
REMARK   19  A    between atoms: C29_35  and  O6_34 
ROOT
ATOM      1  C11 NON d   1     -39.565  20.172  -3.838  0.00  0.00     0.043 C 
ATOM      2  C12 NON d   1     -39.428  19.350  -2.490  0.00  0.00     0.024 C 
ATOM      3  C21 NON d   1     -38.541  18.178  -2.979  0.00  0.00     0.125 C 
ATOM      4  C22 NON d   1     -37.604  18.744  -4.049  0.00  0.00     0.065 C 
ATOM      5  C23 NON d   1     -38.081  20.176  -4.291  0.00  0.00     0.135 C 
ENDROOT
BRANCH   1   6
ATOM      6  C10 NON d   1     -40.174  21.560  -3.731  0.00  0.00    -0.021 C 
ATOM      7  C9  NON d   1     -40.352  22.198  -2.553  0.00  0.00     0.001 C 
BRANCH   7   8
ATOM      8  C8  NON d   1     -40.460  23.677  -2.286  0.00  0.00     0.147 C 
BRANCH   8   9
ATOM      9  C7  NON d   1     -39.778  24.709  -3.187  0.00  0.00     0.040 C 
BRANCH   9  10
ATOM     10  C5  NON d   1     -40.234  24.781  -4.675  0.00  0.00    -0.016 C 
ATOM     11  C6  NON d   1     -41.061  26.059  -4.892  0.00  0.00     0.010 C 
BRANCH  10  12
ATOM     12  C4  NON d   1     -39.189  24.686  -5.818  0.00  0.00     0.004 C 
BRANCH  12  13
ATOM     13  C3  NON d   1     -39.576  24.685  -7.305  0.00  0.00     0.000 C 
BRANCH  13  14
ATOM     14  C2  NON d   1     -40.147  23.427  -7.951  0.00  0.00    -0.005 C 
ATOM     15  C1  NON d   1     -39.238  22.658  -8.889  0.00  0.00     0.005 C 
ENDBRANCH  13  14
ENDBRANCH  12  13
ENDBRANCH  10  12
ENDBRANCH   9  10
ENDBRANCH   8   9
BRANCH   8  16
ATOM     16  O6  NON d   1     -40.118  23.937  -0.928  0.00  0.00    -0.352 OA
BRANCH  16  17
ATOM     17  C29 NON d   1     -41.040  23.345  -0.010  0.00  0.00     0.260 C 
ATOM     18  C30 NON d   1     -40.413  23.009   1.358  0.00  0.00     0.061 C 
ATOM     19  C31 NON d   1     -40.515  24.175   2.311  0.00  0.00     0.007 C 
ATOM     20  C32 NON d   1     -40.644  25.476   1.546  0.00  0.00     0.026 C 
ATOM     21  C33 NON d   1     -41.815  25.489   0.583  0.00  0.00     0.171 C 
ATOM     22  O7  NON d   1     -42.181  24.181   0.165  0.00  0.00    -0.361 OA
ENDBRANCH  16  17
ENDBRANCH   8  16
ENDBRANCH   7   8
ENDBRANCH   1   6
BRANCH   2  23
ATOM     23  C13 NON d   1     -40.688  18.800  -1.720  0.00  0.00     0.008 C 
BRANCH  23  24
ATOM     24  C14 NON d   1     -41.386  17.617  -2.451  0.00  0.00     0.001 C 
BRANCH  24  25
ATOM     25  C15 NON d   1     -42.472  17.887  -3.542  0.00  0.00     0.004 C 
BRANCH  25  26
ATOM     26  C16 NON d   1     -43.314  16.774  -4.221  0.00  0.00     0.027 C 
BRANCH  26  27
ATOM     27  C17 NON d   1     -44.593  17.169  -4.947  0.00  0.00    -0.021 C 
ATOM     28  C18 NON d   1     -45.752  16.506  -4.776  0.00  0.00     0.078 C 
BRANCH  28  29
ATOM     29  C19 NON d   1     -46.931  16.663  -5.669  0.00  0.00     0.282 C 
ATOM     30  O1  NON d   1     -47.247  17.669  -6.277  0.00  0.00    -0.260 OA
BRANCH  29  31
ATOM     31  O2  NON d   1     -47.496  15.430  -5.810  0.00  0.00    -0.323 OA
ATOM     32  C20 NON d   1     -48.372  15.005  -4.759  0.00  0.00     0.213 C 
ENDBRANCH  29  31
ENDBRANCH  28  29
ENDBRANCH  26  27
ENDBRANCH  25  26
ENDBRANCH  24  25
ENDBRANCH  23  24
ENDBRANCH   2  23
BRANCH   5  33
ATOM     33  O4  NON d   1     -37.659  20.690  -5.540  0.00  0.00    -0.355 OA
BRANCH  33  34
ATOM     34  C24 NON d   1     -38.259  20.322  -6.773  0.00  0.00     0.260 C 
ATOM     35  C25 NON d   1     -37.476  19.079  -7.219  0.00  0.00     0.061 C 
ATOM     36  C26 NON d   1     -38.048  18.449  -8.475  0.00  0.00     0.007 C 
ATOM     37  C27 NON d   1     -39.567  18.358  -8.414  0.00  0.00     0.026 C 
ATOM     38  C28 NON d   1     -40.135  18.843  -7.083  0.00  0.00     0.171 C 
ATOM     39  O5  NON d   1     -39.666  20.135  -6.705  0.00  0.00    -0.361 OA
ENDBRANCH  33  34
ENDBRANCH   5  33
BRANCH   3  40
ATOM     40  O3  NON d   1     -37.813  17.609  -1.903  0.00  0.00    -0.395 OA
ATOM     41  H35 NON d   1     -38.196  17.961  -1.078  0.00  0.00     0.210 HD
ENDBRANCH   3  40
TORSDOF 19
ENDMDL
MODEL 4
REMARK VINA RESULT:   -15.285      1.656      6.859
REMARK INTER + INTRA:         -24.483
REMARK INTER:                 -20.953
REMARK INTRA:                  -3.530
REMARK CONF_INDEPENDENT:        5.668
REMARK UNBOUND:                -3.530
REMARK  19 active torsions:
REMARK  status: ('A' for Active; 'I' for Inactive)
REMARK    1  A    between atoms: C2_2  and  C3_3 
REMARK    2  A    between atoms: C3_3  and  C4_4 
REMARK    3  A    between atoms: C5_5  and  C4_4 
REMARK    4  A    between atoms: C5_5  and  C7_7 
REMARK    5  A    between atoms: C8_8  and  C7_7 
REMARK    6  A    between atoms: C8_8  and  C9_9 
REMARK    7  A    between atoms: C8_8  and  O6_34 
REMARK    8  A    between atoms: C11_11  and  C10_10 
REMARK    9  A    between atoms: C12_12  and  C13_13 
REMARK   10  A    between atoms: C13_13  and  C14_14 
REMARK   11  A    between atoms: C14_14  and  C15_15 
REMARK   12  A    between atoms: C15_15  and  C16_16 
REMARK   13  A    between atoms: C16_16  and  C17_17 
REMARK   14  A    between atoms: C18_18  and  C19_19 
REMARK   15  A    between atoms: C19_19  and  O2_21 
REMARK   16  A    between atoms: C21_23  and  O3_24 
REMARK   17  A    between atoms: C23_26  and  O4_27 
REMARK   18  A    between atoms: C24_28  and  O4_27 
REMARK   19  A    between atoms: C29_35  and  O6_34 
ROOT
ATOM      1  C11 NON d   1     -39.990  20.611  -6.467  0.00  0.00     0.043 C 
ATOM      2  C12 NON d   1     -39.918  19.035  -6.619  0.00  0.00     0.024 C 
ATOM      3  C21 NON d   1     -39.938  18.914  -8.164  0.00  0.00     0.125 C 
ATOM      4  C22 NON d   1     -39.193  20.131  -8.716  0.00  0.00     0.065 C 
ATOM      5  C23 NON d   1     -38.914  21.022  -7.506  0.00  0.00     0.135 C 
ENDROOT
BRANCH   1   6
ATOM      6  C10 NON d   1     -39.741  21.173  -5.077  0.00  0.00    -0.021 C 
ATOM      7  C9  NON d   1     -40.556  22.080  -4.491  0.00  0.00     0.001 C 
BRANCH   7   8
ATOM      8  C8  NON d   1     -40.755  22.363  -3.025  0.00  0.00     0.147 C 
BRANCH   8   9
ATOM      9  C7  NON d   1     -41.392  23.666  -2.536  0.00  0.00     0.040 C 
BRANCH   9  10
ATOM     10  C5  NON d   1     -40.801  24.319  -1.252  0.00  0.00    -0.016 C 
ATOM     11  C6  NON d   1     -40.823  25.849  -1.404  0.00  0.00     0.010 C 
BRANCH  10  12
ATOM     12  C4  NON d   1     -41.384  23.969   0.143  0.00  0.00     0.004 C 
BRANCH  12  13
ATOM     13  C3  NON d   1     -40.530  23.405   1.288  0.00  0.00     0.000 C 
BRANCH  13  14
ATOM     14  C2  NON d   1     -39.017  23.595   1.286  0.00  0.00    -0.005 C 
ATOM     15  C1  NON d   1     -38.181  22.493   1.906  0.00  0.00     0.005 C 
ENDBRANCH  13  14
ENDBRANCH  12  13
ENDBRANCH  10  12
ENDBRANCH   9  10
ENDBRANCH   8   9
BRANCH   8  16
ATOM     16  O6  NON d   1     -39.527  22.150  -2.333  0.00  0.00    -0.352 OA
BRANCH  16  17
ATOM     17  C29 NON d   1     -39.629  21.126  -1.341  0.00  0.00     0.260 C 
ATOM     18  C30 NON d   1     -40.249  19.818  -1.872  0.00  0.00     0.061 C 
ATOM     19  C31 NON d   1     -39.194  18.897  -2.433  0.00  0.00     0.007 C 
ATOM     20  C32 NON d   1     -37.972  19.685  -2.857  0.00  0.00     0.026 C 
ATOM     21  C33 NON d   1     -37.386  20.526  -1.740  0.00  0.00     0.171 C 
ATOM     22  O7  NON d   1     -38.356  20.864  -0.757  0.00  0.00    -0.361 OA
ENDBRANCH  16  17
ENDBRANCH   8  16
ENDBRANCH   7   8
ENDBRANCH   1   6
BRANCH   2  23
ATOM     23  C13 NON d   1     -41.002  18.088  -5.980  0.00  0.00     0.008 C 
BRANCH  23  24
ATOM     24  C14 NON d   1     -41.701  18.706  -4.736  0.00  0.00     0.001 C 
BRANCH  24  25
ATOM     25  C15 NON d   1     -42.153  17.801  -3.546  0.00  0.00     0.004 C 
BRANCH  25  26
ATOM     26  C16 NON d   1     -43.397  16.874  -3.585  0.00  0.00     0.027 C 
BRANCH  26  27
ATOM     27  C17 NON d   1     -44.524  17.207  -4.553  0.00  0.00    -0.021 C 
ATOM     28  C18 NON d   1     -45.714  16.577  -4.517  0.00  0.00     0.078 C 
BRANCH  28  29
ATOM     29  C19 NON d   1     -46.720  16.655  -5.609  0.00  0.00     0.282 C 
ATOM     30  O1  NON d   1     -46.970  17.631  -6.292  0.00  0.00    -0.260 OA
BRANCH  29  31
ATOM     31  O2  NON d   1     -47.193  15.392  -5.811  0.00  0.00    -0.323 OA
ATOM     32  C20 NON d   1     -48.334  15.005  -5.034  0.00  0.00     0.213 C 
ENDBRANCH  29  31
ENDBRANCH  28  29
ENDBRANCH  26  27
ENDBRANCH  25  26
ENDBRANCH  24  25
ENDBRANCH  23  24
ENDBRANCH   2  23
BRANCH   5  33
ATOM     33  O4  NON d   1     -38.663  22.369  -7.863  0.00  0.00    -0.355 OA
BRANCH  33  34
ATOM     34  C24 NON d   1     -39.677  23.361  -7.909  0.00  0.00     0.260 C 
ATOM     35  C25 NON d   1     -39.070  24.558  -7.164  0.00  0.00     0.061 C 
ATOM     36  C26 NON d   1     -39.961  25.784  -7.205  0.00  0.00     0.007 C 
ATOM     37  C27 NON d   1     -40.527  26.018  -8.599  0.00  0.00     0.026 C 
ATOM     38  C28 NON d   1     -40.001  25.019  -9.626  0.00  0.00     0.171 C 
ATOM     39  O5  NON d   1     -40.143  23.661  -9.218  0.00  0.00    -0.361 OA
ENDBRANCH  33  34
ENDBRANCH   5  33
BRANCH   3  40
ATOM     40  O3  NON d   1     -39.335  17.702  -8.586  0.00  0.00    -0.395 OA
ATOM     41  H35 NON d   1     -39.299  17.722  -9.560  0.00  0.00     0.210 HD
ENDBRANCH   3  40
TORSDOF 19
ENDMDL
MODEL 5
REMARK VINA RESULT:   -15.091      2.145      6.039
REMARK INTER + INTRA:         -24.426
REMARK INTER:                 -20.759
REMARK INTRA:                  -3.668
REMARK CONF_INDEPENDENT:        5.668
REMARK UNBOUND:                -3.668
REMARK  19 active torsions:
REMARK  status: ('A' for Active; 'I' for Inactive)
REMARK    1  A    between atoms: C2_2  and  C3_3 
REMARK    2  A    between atoms: C3_3  and  C4_4 
REMARK    3  A    between atoms: C5_5  and  C4_4 
REMARK    4  A    between atoms: C5_5  and  C7_7 
REMARK    5  A    between atoms: C8_8  and  C7_7 
REMARK    6  A    between atoms: C8_8  and  C9_9 
REMARK    7  A    between atoms: C8_8  and  O6_34 
REMARK    8  A    between atoms: C11_11  and  C10_10 
REMARK    9  A    between atoms: C12_12  and  C13_13 
REMARK   10  A    between atoms: C13_13  and  C14_14 
REMARK   11  A    between atoms: C14_14  and  C15_15 
REMARK   12  A    between atoms: C15_15  and  C16_16 
REMARK   13  A    between atoms: C16_16  and  C17_17 
REMARK   14  A    between atoms: C18_18  and  C19_19 
REMARK   15  A    between atoms: C19_19  and  O2_21 
REMARK   16  A    between atoms: C21_23  and  O3_24 
REMARK   17  A    between atoms: C23_26  and  O4_27 
REMARK   18  A    between atoms: C24_28  and  O4_27 
REMARK   19  A    between atoms: C29_35  and  O6_34 
ROOT
ATOM      1  C11 NON d   1     -40.610  21.799  -5.796  0.00  0.00     0.043 C 
ATOM      2  C12 NON d   1     -40.897  20.345  -6.357  0.00  0.00     0.024 C 
ATOM      3  C21 NON d   1     -40.988  20.655  -7.872  0.00  0.00     0.125 C 
ATOM      4  C22 NON d   1     -40.005  21.794  -8.154  0.00  0.00     0.065 C 
ATOM      5  C23 NON d   1     -39.499  22.243  -6.783  0.00  0.00     0.135 C 
ENDROOT
BRANCH   1   6
ATOM      6  C10 NON d   1     -40.203  21.898  -4.335  0.00  0.00    -0.021 C 
ATOM      7  C9  NON d   1     -40.613  21.018  -3.394  0.00  0.00     0.001 C 
BRANCH   7   8
ATOM      8  C8  NON d   1     -39.963  20.666  -2.081  0.00  0.00     0.147 C 
BRANCH   8   9
ATOM      9  C7  NON d   1     -39.549  21.742  -1.075  0.00  0.00     0.040 C 
BRANCH   9  10
ATOM     10  C5  NON d   1     -40.683  22.556  -0.384  0.00  0.00    -0.016 C 
ATOM     11  C6  NON d   1     -40.233  22.953   1.033  0.00  0.00     0.010 C 
BRANCH  10  12
ATOM     12  C4  NON d   1     -41.270  23.818  -1.070  0.00  0.00     0.004 C 
BRANCH  12  13
ATOM     13  C3  NON d   1     -40.401  24.993  -1.542  0.00  0.00     0.000 C 
BRANCH  13  14
ATOM     14  C2  NON d   1     -40.775  25.771  -2.799  0.00  0.00    -0.005 C 
ATOM     15  C1  NON d   1     -41.402  24.987  -3.936  0.00  0.00     0.005 C 
ENDBRANCH  13  14
ENDBRANCH  12  13
ENDBRANCH  10  12
ENDBRANCH   9  10
ENDBRANCH   8   9
BRANCH   8  16
ATOM     16  O6  NON d   1     -38.861  19.796  -2.321  0.00  0.00    -0.352 OA
BRANCH  16  17
ATOM     17  C29 NON d   1     -39.154  18.801  -3.305  0.00  0.00     0.260 C 
ATOM     18  C30 NON d   1     -38.286  18.920  -4.574  0.00  0.00     0.061 C 
ATOM     19  C31 NON d   1     -37.007  18.130  -4.441  0.00  0.00     0.007 C 
ATOM     20  C32 NON d   1     -36.649  17.941  -2.981  0.00  0.00     0.026 C 
ATOM     21  C33 NON d   1     -37.751  17.281  -2.177  0.00  0.00     0.171 C 
ATOM     22  O7  NON d   1     -39.035  17.495  -2.749  0.00  0.00    -0.361 OA
ENDBRANCH  16  17
ENDBRANCH   8  16
ENDBRANCH   7   8
ENDBRANCH   1   6
BRANCH   2  23
ATOM     23  C13 NON d   1     -42.148  19.507  -5.893  0.00  0.00     0.008 C 
BRANCH  23  24
ATOM     24  C14 NON d   1     -41.769  18.124  -5.289  0.00  0.00     0.001 C 
BRANCH  24  25
ATOM     25  C15 NON d   1     -42.248  17.725  -3.856  0.00  0.00     0.004 C 
BRANCH  25  26
ATOM     26  C16 NON d   1     -43.592  17.006  -3.559  0.00  0.00     0.027 C 
BRANCH  26  27
ATOM     27  C17 NON d   1     -44.800  17.333  -4.426  0.00  0.00    -0.021 C 
ATOM     28  C18 NON d   1     -45.857  16.505  -4.529  0.00  0.00     0.078 C 
BRANCH  28  29
ATOM     29  C19 NON d   1     -46.908  16.637  -5.574  0.00  0.00     0.282 C 
ATOM     30  O1  NON d   1     -47.178  17.643  -6.203  0.00  0.00    -0.260 OA
BRANCH  29  31
ATOM     31  O2  NON d   1     -47.399  15.387  -5.810  0.00  0.00    -0.323 OA
ATOM     32  C20 NON d   1     -48.559  15.005  -5.060  0.00  0.00     0.213 C 
ENDBRANCH  29  31
ENDBRANCH  28  29
ENDBRANCH  26  27
ENDBRANCH  25  26
ENDBRANCH  24  25
ENDBRANCH  23  24
ENDBRANCH   2  23
BRANCH   5  33
ATOM     33  O4  NON d   1     -38.963  23.554  -6.800  0.00  0.00    -0.355 OA
BRANCH  33  34
ATOM     34  C24 NON d   1     -39.754  24.712  -7.015  0.00  0.00     0.260 C 
ATOM     35  C25 NON d   1     -38.760  25.877  -6.899  0.00  0.00     0.061 C 
ATOM     36  C26 NON d   1     -39.391  27.217  -7.221  0.00  0.00     0.007 C 
ATOM     37  C27 NON d   1     -40.265  27.141  -8.466  0.00  0.00     0.026 C 
ATOM     38  C28 NON d   1     -40.229  25.766  -9.128  0.00  0.00     0.171 C 
ATOM     39  O5  NON d   1     -40.498  24.696  -8.227  0.00  0.00    -0.361 OA
ENDBRANCH  33  34
ENDBRANCH   5  33
BRANCH   3  40
ATOM     40  O3  NON d   1     -40.683  19.506  -8.644  0.00  0.00    -0.395 OA
ATOM     41  H35 NON d   1     -41.296  19.497  -9.403  0.00  0.00     0.210 HD
ENDBRANCH   3  40
TORSDOF 19
ENDMDL
MODEL 6
REMARK VINA RESULT:   -15.082      2.429      6.881
REMARK INTER + INTRA:         -24.809
REMARK INTER:                 -20.750
REMARK INTRA:                  -4.059
REMARK CONF_INDEPENDENT:        5.668
REMARK UNBOUND:                -4.059
REMARK  19 active torsions:
REMARK  status: ('A' for Active; 'I' for Inactive)
REMARK    1  A    between atoms: C2_2  and  C3_3 
REMARK    2  A    between atoms: C3_3  and  C4_4 
REMARK    3  A    between atoms: C5_5  and  C4_4 
REMARK    4  A    between atoms: C5_5  and  C7_7 
REMARK    5  A    between atoms: C8_8  and  C7_7 
REMARK    6  A    between atoms: C8_8  and  C9_9 
REMARK    7  A    between atoms: C8_8  and  O6_34 
REMARK    8  A    between atoms: C11_11  and  C10_10 
REMARK    9  A    between atoms: C12_12  and  C13_13 
REMARK   10  A    between atoms: C13_13  and  C14_14 
REMARK   11  A    between atoms: C14_14  and  C15_15 
REMARK   12  A    between atoms: C15_15  and  C16_16 
REMARK   13  A    between atoms: C16_16  and  C17_17 
REMARK   14  A    between atoms: C18_18  and  C19_19 
REMARK   15  A    between atoms: C19_19  and  O2_21 
REMARK   16  A    between atoms: C21_23  and  O3_24 
REMARK   17  A    between atoms: C23_26  and  O4_27 
REMARK   18  A    between atoms: C24_28  and  O4_27 
REMARK   19  A    between atoms: C29_35  and  O6_34 
ROOT
ATOM      1  C11 NON d   1     -39.438  20.148  -4.047  0.00  0.00     0.043 C 
ATOM      2  C12 NON d   1     -39.410  19.292  -2.713  0.00  0.00     0.024 C 
ATOM      3  C21 NON d   1     -38.474  18.139  -3.153  0.00  0.00     0.125 C 
ATOM      4  C22 NON d   1     -37.455  18.739  -4.124  0.00  0.00     0.065 C 
ATOM      5  C23 NON d   1     -37.921  20.174  -4.370  0.00  0.00     0.135 C 
ENDROOT
BRANCH   1   6
ATOM      6  C10 NON d   1     -40.066  21.529  -3.957  0.00  0.00    -0.021 C 
ATOM      7  C9  NON d   1     -40.579  22.033  -2.812  0.00  0.00     0.001 C 
BRANCH   7   8
ATOM      8  C8  NON d   1     -40.774  23.474  -2.418  0.00  0.00     0.147 C 
BRANCH   8   9
ATOM      9  C7  NON d   1     -41.440  23.863  -1.096  0.00  0.00     0.040 C 
BRANCH   9  10
ATOM     10  C5  NON d   1     -40.558  23.848   0.187  0.00  0.00    -0.016 C 
ATOM     11  C6  NON d   1     -41.134  24.840   1.212  0.00  0.00     0.010 C 
BRANCH  10  12
ATOM     12  C4  NON d   1     -40.271  22.513   0.924  0.00  0.00     0.004 C 
BRANCH  12  13
ATOM     13  C3  NON d   1     -39.575  21.320   0.251  0.00  0.00     0.000 C 
BRANCH  13  14
ATOM     14  C2  NON d   1     -38.077  21.364  -0.033  0.00  0.00    -0.005 C 
ATOM     15  C1  NON d   1     -37.365  22.680   0.211  0.00  0.00     0.005 C 
ENDBRANCH  13  14
ENDBRANCH  12  13
ENDBRANCH  10  12
ENDBRANCH   9  10
ENDBRANCH   8   9
BRANCH   8  16
ATOM     16  O6  NON d   1     -41.403  24.174  -3.487  0.00  0.00    -0.352 OA
BRANCH  16  17
ATOM     17  C29 NON d   1     -40.881  25.494  -3.658  0.00  0.00     0.260 C 
ATOM     18  C30 NON d   1     -39.487  25.688  -3.029  0.00  0.00     0.061 C 
ATOM     19  C31 NON d   1     -38.390  25.340  -4.006  0.00  0.00     0.007 C 
ATOM     20  C32 NON d   1     -38.903  24.381  -5.060  0.00  0.00     0.026 C 
ATOM     21  C33 NON d   1     -40.114  24.906  -5.806  0.00  0.00     0.171 C 
ATOM     22  O7  NON d   1     -40.851  25.848  -5.038  0.00  0.00    -0.361 OA
ENDBRANCH  16  17
ENDBRANCH   8  16
ENDBRANCH   7   8
ENDBRANCH   1   6
BRANCH   2  23
ATOM     23  C13 NON d   1     -40.726  18.715  -2.068  0.00  0.00     0.008 C 
BRANCH  23  24
ATOM     24  C14 NON d   1     -41.284  17.472  -2.819  0.00  0.00     0.001 C 
BRANCH  24  25
ATOM     25  C15 NON d   1     -42.765  17.442  -3.315  0.00  0.00     0.004 C 
BRANCH  25  26
ATOM     26  C16 NON d   1     -43.251  18.095  -4.637  0.00  0.00     0.027 C 
BRANCH  26  27
ATOM     27  C17 NON d   1     -44.734  18.035  -4.977  0.00  0.00    -0.021 C 
ATOM     28  C18 NON d   1     -45.407  16.872  -5.060  0.00  0.00     0.078 C 
BRANCH  28  29
ATOM     29  C19 NON d   1     -46.758  16.744  -5.669  0.00  0.00     0.282 C 
ATOM     30  O1  NON d   1     -47.403  17.635  -6.189  0.00  0.00    -0.260 OA
BRANCH  29  31
ATOM     31  O2  NON d   1     -47.068  15.416  -5.684  0.00  0.00    -0.323 OA
ATOM     32  C20 NON d   1     -48.155  15.005  -4.845  0.00  0.00     0.213 C 
ENDBRANCH  29  31
ENDBRANCH  28  29
ENDBRANCH  26  27
ENDBRANCH  25  26
ENDBRANCH  24  25
ENDBRANCH  23  24
ENDBRANCH   2  23
BRANCH   5  33
ATOM     33  O4  NON d   1     -37.398  20.722  -5.566  0.00  0.00    -0.355 OA
BRANCH  33  34
ATOM     34  C24 NON d   1     -38.087  20.677  -6.806  0.00  0.00     0.260 C 
ATOM     35  C25 NON d   1     -38.236  19.178  -7.102  0.00  0.00     0.061 C 
ATOM     36  C26 NON d   1     -39.064  18.908  -8.343  0.00  0.00     0.007 C 
ATOM     37  C27 NON d   1     -40.315  19.775  -8.382  0.00  0.00     0.026 C 
ATOM     38  C28 NON d   1     -40.473  20.640  -7.134  0.00  0.00     0.171 C 
ATOM     39  O5  NON d   1     -39.310  21.402  -6.822  0.00  0.00    -0.361 OA
ENDBRANCH  33  34
ENDBRANCH   5  33
BRANCH   3  40
ATOM     40  O3  NON d   1     -37.836  17.547  -2.034  0.00  0.00    -0.395 OA
ATOM     41  H35 NON d   1     -38.109  18.053  -1.246  0.00  0.00     0.210 HD
ENDBRANCH   3  40
TORSDOF 19
ENDMDL
MODEL 7
REMARK VINA RESULT:   -15.061      1.795      6.715
REMARK INTER + INTRA:         -24.174
REMARK INTER:                 -20.729
REMARK INTRA:                  -3.445
REMARK CONF_INDEPENDENT:        5.668
REMARK UNBOUND:                -3.445
REMARK  19 active torsions:
REMARK  status: ('A' for Active; 'I' for Inactive)
REMARK    1  A    between atoms: C2_2  and  C3_3 
REMARK    2  A    between atoms: C3_3  and  C4_4 
REMARK    3  A    between atoms: C5_5  and  C4_4 
REMARK    4  A    between atoms: C5_5  and  C7_7 
REMARK    5  A    between atoms: C8_8  and  C7_7 
REMARK    6  A    between atoms: C8_8  and  C9_9 
REMARK    7  A    between atoms: C8_8  and  O6_34 
REMARK    8  A    between atoms: C11_11  and  C10_10 
REMARK    9  A    between atoms: C12_12  and  C13_13 
REMARK   10  A    between atoms: C13_13  and  C14_14 
REMARK   11  A    between atoms: C14_14  and  C15_15 
REMARK   12  A    between atoms: C15_15  and  C16_16 
REMARK   13  A    between atoms: C16_16  and  C17_17 
REMARK   14  A    between atoms: C18_18  and  C19_19 
REMARK   15  A    between atoms: C19_19  and  O2_21 
REMARK   16  A    between atoms: C21_23  and  O3_24 
REMARK   17  A    between atoms: C23_26  and  O4_27 
REMARK   18  A    between atoms: C24_28  and  O4_27 
REMARK   19  A    between atoms: C29_35  and  O6_34 
ROOT
ATOM      1  C11 NON d   1     -40.417  21.797  -6.576  0.00  0.00     0.043 C 
ATOM      2  C12 NON d   1     -40.639  20.240  -6.774  0.00  0.00     0.024 C 
ATOM      3  C21 NON d   1     -40.683  20.170  -8.321  0.00  0.00     0.125 C 
ATOM      4  C22 NON d   1     -39.724  21.243  -8.843  0.00  0.00     0.065 C 
ATOM      5  C23 NON d   1     -39.284  22.031  -7.609  0.00  0.00     0.135 C 
ENDROOT
BRANCH   1   6
ATOM      6  C10 NON d   1     -40.067  22.263  -5.172  0.00  0.00    -0.021 C 
ATOM      7  C9  NON d   1     -39.971  21.422  -4.118  0.00  0.00     0.001 C 
BRANCH   7   8
ATOM      8  C8  NON d   1     -39.194  21.594  -2.839  0.00  0.00     0.147 C 
BRANCH   8   9
ATOM      9  C7  NON d   1     -38.139  20.577  -2.396  0.00  0.00     0.040 C 
BRANCH   9  10
ATOM     10  C5  NON d   1     -38.534  19.071  -2.424  0.00  0.00    -0.016 C 
ATOM     11  C6  NON d   1     -40.059  18.942  -2.271  0.00  0.00     0.010 C 
BRANCH  10  12
ATOM     12  C4  NON d   1     -38.095  18.169  -3.608  0.00  0.00     0.004 C 
BRANCH  12  13
ATOM     13  C3  NON d   1     -36.993  18.570  -4.599  0.00  0.00     0.000 C 
BRANCH  13  14
ATOM     14  C2  NON d   1     -37.319  19.455  -5.797  0.00  0.00    -0.005 C 
ATOM     15  C1  NON d   1     -37.738  18.759  -7.078  0.00  0.00     0.005 C 
ENDBRANCH  13  14
ENDBRANCH  12  13
ENDBRANCH  10  12
ENDBRANCH   9  10
ENDBRANCH   8   9
BRANCH   8  16
ATOM     16  O6  NON d   1     -40.100  21.832  -1.766  0.00  0.00    -0.352 OA
BRANCH  16  17
ATOM     17  C29 NON d   1     -39.997  23.160  -1.248  0.00  0.00     0.260 C 
ATOM     18  C30 NON d   1     -41.277  23.642  -0.538  0.00  0.00     0.061 C 
ATOM     19  C31 NON d   1     -41.263  23.279   0.928  0.00  0.00     0.007 C 
ATOM     20  C32 NON d   1     -40.351  22.095   1.172  0.00  0.00     0.026 C 
ATOM     21  C33 NON d   1     -38.935  22.318   0.679  0.00  0.00     0.171 C 
ATOM     22  O7  NON d   1     -38.878  23.272  -0.374  0.00  0.00    -0.361 OA
ENDBRANCH  16  17
ENDBRANCH   8  16
ENDBRANCH   7   8
ENDBRANCH   1   6
BRANCH   2  23
ATOM     23  C13 NON d   1     -41.879  19.492  -6.155  0.00  0.00     0.008 C 
BRANCH  23  24
ATOM     24  C14 NON d   1     -41.518  18.109  -5.541  0.00  0.00     0.001 C 
BRANCH  24  25
ATOM     25  C15 NON d   1     -42.029  17.714  -4.118  0.00  0.00     0.004 C 
BRANCH  25  26
ATOM     26  C16 NON d   1     -43.329  16.909  -3.856  0.00  0.00     0.027 C 
BRANCH  26  27
ATOM     27  C17 NON d   1     -44.577  17.257  -4.656  0.00  0.00    -0.021 C 
ATOM     28  C18 NON d   1     -45.691  16.503  -4.617  0.00  0.00     0.078 C 
BRANCH  28  29
ATOM     29  C19 NON d   1     -46.808  16.634  -5.590  0.00  0.00     0.282 C 
ATOM     30  O1  NON d   1     -47.129  17.643  -6.191  0.00  0.00    -0.260 OA
BRANCH  29  31
ATOM     31  O2  NON d   1     -47.301  15.381  -5.807  0.00  0.00    -0.323 OA
ATOM     32  C20 NON d   1     -48.460  15.010  -5.051  0.00  0.00     0.213 C 
ENDBRANCH  29  31
ENDBRANCH  28  29
ENDBRANCH  26  27
ENDBRANCH  25  26
ENDBRANCH  24  25
ENDBRANCH  23  24
ENDBRANCH   2  23
BRANCH   5  33
ATOM     33  O4  NON d   1     -38.788  23.318  -7.930  0.00  0.00    -0.355 OA
BRANCH  33  34
ATOM     34  C24 NON d   1     -39.611  24.473  -7.993  0.00  0.00     0.260 C 
ATOM     35  C25 NON d   1     -38.624  25.646  -7.907  0.00  0.00     0.061 C 
ATOM     36  C26 NON d   1     -39.301  26.992  -8.081  0.00  0.00     0.007 C 
ATOM     37  C27 NON d   1     -40.296  26.974  -9.233  0.00  0.00     0.026 C 
ATOM     38  C28 NON d   1     -40.311  25.642  -9.979  0.00  0.00     0.171 C 
ATOM     39  O5  NON d   1     -40.474  24.515  -9.121  0.00  0.00    -0.361 OA
ENDBRANCH  33  34
ENDBRANCH   5  33
BRANCH   3  40
ATOM     40  O3  NON d   1     -40.315  18.880  -8.780  0.00  0.00    -0.395 OA
ATOM     41  H35 NON d   1     -39.877  18.423  -8.038  0.00  0.00     0.210 HD
ENDBRANCH   3  40
TORSDOF 19
ENDMDL
MODEL 8
REMARK VINA RESULT:   -14.768      2.471      6.315
REMARK INTER + INTRA:         -24.284
REMARK INTER:                 -20.435
REMARK INTRA:                  -3.848
REMARK CONF_INDEPENDENT:        5.668
REMARK UNBOUND:                -3.848
REMARK  19 active torsions:
REMARK  status: ('A' for Active; 'I' for Inactive)
REMARK    1  A    between atoms: C2_2  and  C3_3 
REMARK    2  A    between atoms: C3_3  and  C4_4 
REMARK    3  A    between atoms: C5_5  and  C4_4 
REMARK    4  A    between atoms: C5_5  and  C7_7 
REMARK    5  A    between atoms: C8_8  and  C7_7 
REMARK    6  A    between atoms: C8_8  and  C9_9 
REMARK    7  A    between atoms: C8_8  and  O6_34 
REMARK    8  A    between atoms: C11_11  and  C10_10 
REMARK    9  A    between atoms: C12_12  and  C13_13 
REMARK   10  A    between atoms: C13_13  and  C14_14 
REMARK   11  A    between atoms: C14_14  and  C15_15 
REMARK   12  A    between atoms: C15_15  and  C16_16 
REMARK   13  A    between atoms: C16_16  and  C17_17 
REMARK   14  A    between atoms: C18_18  and  C19_19 
REMARK   15  A    between atoms: C19_19  and  O2_21 
REMARK   16  A    between atoms: C21_23  and  O3_24 
REMARK   17  A    between atoms: C23_26  and  O4_27 
REMARK   18  A    between atoms: C24_28  and  O4_27 
REMARK   19  A    between atoms: C29_35  and  O6_34 
ROOT
ATOM      1  C11 NON d   1     -39.334  20.501  -3.708  0.00  0.00     0.043 C 
ATOM      2  C12 NON d   1     -39.371  19.498  -2.480  0.00  0.00     0.024 C 
ATOM      3  C21 NON d   1     -38.876  18.205  -3.175  0.00  0.00     0.125 C 
ATOM      4  C22 NON d   1     -37.870  18.631  -4.246  0.00  0.00     0.065 C 
ATOM      5  C23 NON d   1     -37.933  20.158  -4.280  0.00  0.00     0.135 C 
ENDROOT
BRANCH   1   6
ATOM      6  C10 NON d   1     -39.518  21.975  -3.390  0.00  0.00    -0.021 C 
ATOM      7  C9  NON d   1     -40.701  22.504  -3.004  0.00  0.00     0.001 C 
BRANCH   7   8
ATOM      8  C8  NON d   1     -40.962  23.756  -2.208  0.00  0.00     0.147 C 
BRANCH   8   9
ATOM      9  C7  NON d   1     -40.816  25.148  -2.827  0.00  0.00     0.040 C 
BRANCH   9  10
ATOM     10  C5  NON d   1     -41.288  25.334  -4.300  0.00  0.00    -0.016 C 
ATOM     11  C6  NON d   1     -42.190  26.576  -4.392  0.00  0.00     0.010 C 
BRANCH  10  12
ATOM     12  C4  NON d   1     -40.250  25.411  -5.450  0.00  0.00     0.004 C 
BRANCH  12  13
ATOM     13  C3  NON d   1     -39.095  24.410  -5.601  0.00  0.00     0.000 C 
BRANCH  13  14
ATOM     14  C2  NON d   1     -37.766  24.655  -4.894  0.00  0.00    -0.005 C 
ATOM     15  C1  NON d   1     -37.804  25.465  -3.613  0.00  0.00     0.005 C 
ENDBRANCH  13  14
ENDBRANCH  12  13
ENDBRANCH  10  12
ENDBRANCH   9  10
ENDBRANCH   8   9
BRANCH   8  16
ATOM     16  O6  NON d   1     -40.224  23.702  -0.991  0.00  0.00    -0.352 OA
BRANCH  16  17
ATOM     17  C29 NON d   1     -40.487  22.511  -0.245  0.00  0.00     0.260 C 
ATOM     18  C30 NON d   1     -39.213  21.729   0.131  0.00  0.00     0.061 C 
ATOM     19  C31 NON d   1     -38.650  22.197   1.451  0.00  0.00     0.007 C 
ATOM     20  C32 NON d   1     -39.093  23.615   1.744  0.00  0.00     0.026 C 
ATOM     21  C33 NON d   1     -40.599  23.785   1.734  0.00  0.00     0.171 C 
ATOM     22  O7  NON d   1     -41.244  22.809   0.925  0.00  0.00    -0.361 OA
ENDBRANCH  16  17
ENDBRANCH   8  16
ENDBRANCH   7   8
ENDBRANCH   1   6
BRANCH   2  23
ATOM     23  C13 NON d   1     -40.696  19.218  -1.677  0.00  0.00     0.008 C 
BRANCH  23  24
ATOM     24  C14 NON d   1     -41.502  18.005  -2.226  0.00  0.00     0.001 C 
BRANCH  24  25
ATOM     25  C15 NON d   1     -42.516  18.191  -3.400  0.00  0.00     0.004 C 
BRANCH  25  26
ATOM     26  C16 NON d   1     -43.335  17.034  -4.030  0.00  0.00     0.027 C 
BRANCH  26  27
ATOM     27  C17 NON d   1     -44.770  17.306  -4.461  0.00  0.00    -0.021 C 
ATOM     28  C18 NON d   1     -45.557  16.351  -4.991  0.00  0.00     0.078 C 
BRANCH  28  29
ATOM     29  C19 NON d   1     -46.839  16.633  -5.689  0.00  0.00     0.282 C 
ATOM     30  O1  NON d   1     -47.172  17.693  -6.187  0.00  0.00    -0.260 OA
BRANCH  29  31
ATOM     31  O2  NON d   1     -47.501  15.447  -5.810  0.00  0.00    -0.323 OA
ATOM     32  C20 NON d   1     -48.456  15.140  -4.787  0.00  0.00     0.213 C 
ENDBRANCH  29  31
ENDBRANCH  28  29
ENDBRANCH  26  27
ENDBRANCH  25  26
ENDBRANCH  24  25
ENDBRANCH  23  24
ENDBRANCH   2  23
BRANCH   5  33
ATOM     33  O4  NON d   1     -37.442  20.700  -5.492  0.00  0.00    -0.355 OA
BRANCH  33  34
ATOM     34  C24 NON d   1     -38.253  20.887  -6.642  0.00  0.00     0.260 C 
ATOM     35  C25 NON d   1     -38.428  19.474  -7.217  0.00  0.00     0.061 C 
ATOM     36  C26 NON d   1     -39.377  19.438  -8.399  0.00  0.00     0.007 C 
ATOM     37  C27 NON d   1     -40.628  20.266  -8.138  0.00  0.00     0.026 C 
ATOM     38  C28 NON d   1     -40.660  20.860  -6.732  0.00  0.00     0.171 C 
ATOM     39  O5  NON d   1     -39.474  21.572  -6.391  0.00  0.00    -0.361 OA
ENDBRANCH  33  34
ENDBRANCH   5  33
BRANCH   3  40
ATOM     40  O3  NON d   1     -38.289  17.318  -2.237  0.00  0.00    -0.395 OA
ATOM     41  H35 NON d   1     -38.723  17.478  -1.378  0.00  0.00     0.210 HD
ENDBRANCH   3  40
TORSDOF 19
ENDMDL
MODEL 9
REMARK VINA RESULT:   -14.320      1.911      6.776
REMARK INTER + INTRA:         -24.166
REMARK INTER:                 -19.987
REMARK INTRA:                  -4.178
REMARK CONF_INDEPENDENT:        5.668
REMARK UNBOUND:                -4.178
REMARK  19 active torsions:
REMARK  status: ('A' for Active; 'I' for Inactive)
REMARK    1  A    between atoms: C2_2  and  C3_3 
REMARK    2  A    between atoms: C3_3  and  C4_4 
REMARK    3  A    between atoms: C5_5  and  C4_4 
REMARK    4  A    between atoms: C5_5  and  C7_7 
REMARK    5  A    between atoms: C8_8  and  C7_7 
REMARK    6  A    between atoms: C8_8  and  C9_9 
REMARK    7  A    between atoms: C8_8  and  O6_34 
REMARK    8  A    between atoms: C11_11  and  C10_10 
REMARK    9  A    between atoms: C12_12  and  C13_13 
REMARK   10  A    between atoms: C13_13  and  C14_14 
REMARK   11  A    between atoms: C14_14  and  C15_15 
REMARK   12  A    between atoms: C15_15  and  C16_16 
REMARK   13  A    between atoms: C16_16  and  C17_17 
REMARK   14  A    between atoms: C18_18  and  C19_19 
REMARK   15  A    between atoms: C19_19  and  O2_21 
REMARK   16  A    between atoms: C21_23  and  O3_24 
REMARK   17  A    between atoms: C23_26  and  O4_27 
REMARK   18  A    between atoms: C24_28  and  O4_27 
REMARK   19  A    between atoms: C29_35  and  O6_34 
ROOT
ATOM      1  C11 NON d   1     -39.825  21.600  -7.261  0.00  0.00     0.043 C 
ATOM      2  C12 NON d   1     -40.337  20.137  -6.930  0.00  0.00     0.024 C 
ATOM      3  C21 NON d   1     -40.002  19.427  -8.265  0.00  0.00     0.125 C 
ATOM      4  C22 NON d   1     -38.725  20.074  -8.805  0.00  0.00     0.065 C 
ATOM      5  C23 NON d   1     -38.445  21.258  -7.880  0.00  0.00     0.135 C 
ENDROOT
BRANCH   1   6
ATOM      6  C10 NON d   1     -39.747  22.575  -6.098  0.00  0.00    -0.021 C 
ATOM      7  C9  NON d   1     -40.629  22.573  -5.073  0.00  0.00     0.001 C 
BRANCH   7   8
ATOM      8  C8  NON d   1     -40.446  23.084  -3.668  0.00  0.00     0.147 C 
BRANCH   8   9
ATOM      9  C7  NON d   1     -40.690  22.191  -2.449  0.00  0.00     0.040 C 
BRANCH   9  10
ATOM     10  C5  NON d   1     -39.558  21.199  -2.046  0.00  0.00    -0.016 C 
ATOM     11  C6  NON d   1     -39.233  21.380  -0.553  0.00  0.00     0.010 C 
BRANCH  10  12
ATOM     12  C4  NON d   1     -39.715  19.680  -2.320  0.00  0.00     0.004 C 
BRANCH  12  13
ATOM     13  C3  NON d   1     -38.891  18.933  -3.380  0.00  0.00     0.000 C 
BRANCH  13  14
ATOM     14  C2  NON d   1     -38.189  19.704  -4.493  0.00  0.00    -0.005 C 
ATOM     15  C1  NON d   1     -37.341  18.901  -5.461  0.00  0.00     0.005 C 
ENDBRANCH  13  14
ENDBRANCH  12  13
ENDBRANCH  10  12
ENDBRANCH   9  10
ENDBRANCH   8   9
BRANCH   8  16
ATOM     16  O6  NON d   1     -41.169  24.302  -3.512  0.00  0.00    -0.352 OA
BRANCH  16  17
ATOM     17  C29 NON d   1     -40.318  25.406  -3.198  0.00  0.00     0.260 C 
ATOM     18  C30 NON d   1     -39.264  25.696  -4.285  0.00  0.00     0.061 C 
ATOM     19  C31 NON d   1     -39.795  26.654  -5.324  0.00  0.00     0.007 C 
ATOM     20  C32 NON d   1     -41.309  26.607  -5.365  0.00  0.00     0.026 C 
ATOM     21  C33 NON d   1     -41.952  26.890  -4.022  0.00  0.00     0.171 C 
ATOM     22  O7  NON d   1     -41.089  26.576  -2.937  0.00  0.00    -0.361 OA
ENDBRANCH  16  17
ENDBRANCH   8  16
ENDBRANCH   7   8
ENDBRANCH   1   6
BRANCH   2  23
ATOM     23  C13 NON d   1     -41.831  19.853  -6.517  0.00  0.00     0.008 C 
BRANCH  23  24
ATOM     24  C14 NON d   1     -41.999  19.537  -5.003  0.00  0.00     0.001 C 
BRANCH  24  25
ATOM     25  C15 NON d   1     -41.851  18.075  -4.475  0.00  0.00     0.004 C 
BRANCH  25  26
ATOM     26  C16 NON d   1     -43.038  17.206  -3.979  0.00  0.00     0.027 C 
BRANCH  26  27
ATOM     27  C17 NON d   1     -44.428  17.489  -4.532  0.00  0.00    -0.021 C 
ATOM     28  C18 NON d   1     -45.294  16.505  -4.842  0.00  0.00     0.078 C 
BRANCH  28  29
ATOM     29  C19 NON d   1     -46.526  16.716  -5.648  0.00  0.00     0.282 C 
ATOM     30  O1  NON d   1     -46.869  17.753  -6.185  0.00  0.00    -0.260 OA
BRANCH  29  31
ATOM     31  O2  NON d   1     -47.114  15.496  -5.810  0.00  0.00    -0.323 OA
ATOM     32  C20 NON d   1     -48.237  15.212  -4.967  0.00  0.00     0.213 C 
ENDBRANCH  29  31
ENDBRANCH  28  29
ENDBRANCH  26  27
ENDBRANCH  25  26
ENDBRANCH  24  25
ENDBRANCH  23  24
ENDBRANCH   2  23
BRANCH   5  33
ATOM     33  O4  NON d   1     -37.605  22.230  -8.474  0.00  0.00    -0.355 OA
BRANCH  33  34
ATOM     34  C24 NON d   1     -38.100  23.393  -9.120  0.00  0.00     0.260 C 
ATOM     35  C25 NON d   1     -39.114  22.856 -10.141  0.00  0.00     0.061 C 
ATOM     36  C26 NON d   1     -39.857  23.963 -10.863  0.00  0.00     0.007 C 
ATOM     37  C27 NON d   1     -40.314  25.051  -9.901  0.00  0.00     0.026 C 
ATOM     38  C28 NON d   1     -39.989  24.727  -8.445  0.00  0.00     0.171 C 
ATOM     39  O5  NON d   1     -38.624  24.375  -8.235  0.00  0.00    -0.361 OA
ENDBRANCH  33  34
ENDBRANCH   5  33
BRANCH   3  40
ATOM     40  O3  NON d   1     -39.832  18.032  -8.069  0.00  0.00    -0.395 OA
ATOM     41  H35 NON d   1     -39.050  17.914  -7.499  0.00  0.00     0.210 HD
ENDBRANCH   3  40
TORSDOF 19
ENDMDL
