MODEL 1
REMARK VINA RESULT:   -13.567      0.000      0.000
REMARK INTER + INTRA:         -15.686
REMARK INTER:                 -14.760
REMARK INTRA:                  -0.927
REMARK CONF_INDEPENDENT:        1.193
REMARK UNBOUND:                -0.927
REMARK  4 active torsions:
REMARK  status: ('A' for Active; 'I' for Inactive)
REMARK    1  A    between atoms: N1_6  and  C6_7 
REMARK    2  A    between atoms: C6_7  and  C7_8 
REMARK    3  A    between atoms: C14_17  and  C15_18 
REMARK    4  A    between atoms: C19_22  and  N2_23 
ROOT
ATOM      1  C7  NON d   1     -38.311  21.533  -2.389  0.00  0.00     0.052 A 
ATOM      2  C8  NON d   1     -37.184  22.402  -2.491  0.00  0.00     0.182 A 
ATOM      3  O1  NON d   1     -36.283  22.465  -1.590  0.00  0.00    -0.288 OA
ATOM      4  C9  NON d   1     -37.091  23.199  -3.676  0.00  0.00     0.056 A 
ATOM      5  C10 NON d   1     -38.000  23.140  -4.735  0.00  0.00     0.022 A 
ATOM      6  C11 NON d   1     -39.029  22.249  -4.605  0.00  0.00     0.052 A 
ATOM      7  C12 NON d   1     -39.194  21.461  -3.470  0.00  0.00     0.102 A 
ATOM      8  O2  NON d   1     -40.273  20.603  -3.581  0.00  0.00    -0.305 OA
ATOM      9  C13 NON d   1     -40.818  20.819  -4.844  0.00  0.00     0.127 A 
ATOM     10  C14 NON d   1     -41.836  20.160  -5.424  0.00  0.00     0.053 C 
ATOM     11  C21 NON d   1     -40.081  21.899  -5.553  0.00  0.00     0.218 A 
ATOM     12  O5  NON d   1     -40.290  22.362  -6.655  0.00  0.00    -0.284 OA
ENDROOT
BRANCH  10  13
ATOM     13  C15 NON d   1     -42.650  19.052  -4.893  0.00  0.00    -0.031 A 
ATOM     14  C16 NON d   1     -42.203  18.381  -3.740  0.00  0.00     0.011 A 
ATOM     15  C17 NON d   1     -42.929  17.318  -3.186  0.00  0.00     0.003 A 
ATOM     16  C18 NON d   1     -44.120  16.903  -3.776  0.00  0.00     0.036 A 
ATOM     17  C19 NON d   1     -44.577  17.565  -4.920  0.00  0.00     0.103 A 
ATOM     18  C20 NON d   1     -43.850  18.630  -5.474  0.00  0.00     0.047 A 
BRANCH  17  19
ATOM     19  N2  NON d   1     -45.832  17.147  -5.558  0.00  0.00    -0.116 N 
ATOM     20  O3  NON d   1     -46.177  15.964  -5.435  0.00  0.00    -0.532 OA
ATOM     21  O4  NON d   1     -46.474  18.005  -6.185  0.00  0.00    -0.532 OA
ENDBRANCH  17  19
ENDBRANCH  10  13
BRANCH   1  22
ATOM     22  C6  NON d   1     -38.520  20.625  -1.186  0.00  0.00     0.280 C 
BRANCH  22  23
ATOM     23  N1  NON d   1     -38.636  21.311   0.174  0.00  0.00    -0.067 N 
ATOM     24  C5  NON d   1     -37.319  21.578   0.826  0.00  0.00     0.235 C 
ATOM     25  C4  NON d   1     -37.522  22.084   2.254  0.00  0.00     0.028 C 
ATOM     26  C3  NON d   1     -38.487  23.275   2.342  0.00  0.00     0.007 C 
ATOM     27  C2  NON d   1     -39.819  22.907   1.688  0.00  0.00     0.007 C 
ATOM     28  C1  NON d   1     -41.038  23.822   1.901  0.00  0.00     0.011 C 
ATOM     29  C22 NON d   1     -39.610  22.446   0.227  0.00  0.00     0.239 C 
ATOM     30  H11 NON d   1     -39.035  20.503   0.733  0.00  0.00     0.280 HD
ENDBRANCH  22  23
ENDBRANCH   1  22
TORSDOF 4
ENDMDL
MODEL 2
REMARK VINA RESULT:   -12.815      1.683      2.197
REMARK INTER + INTRA:         -15.595
REMARK INTER:                 -14.008
REMARK INTRA:                  -1.587
REMARK CONF_INDEPENDENT:        1.193
REMARK UNBOUND:                -1.587
REMARK  4 active torsions:
REMARK  status: ('A' for Active; 'I' for Inactive)
REMARK    1  A    between atoms: N1_6  and  C6_7 
REMARK    2  A    between atoms: C6_7  and  C7_8 
REMARK    3  A    between atoms: C14_17  and  C15_18 
REMARK    4  A    between atoms: C19_22  and  N2_23 
ROOT
ATOM      1  C7  NON d   1     -39.594  22.819  -2.359  0.00  0.00     0.052 A 
ATOM      2  C8  NON d   1     -38.486  23.717  -2.394  0.00  0.00     0.182 A 
ATOM      3  O1  NON d   1     -38.120  24.396  -1.379  0.00  0.00    -0.288 OA
ATOM      4  C9  NON d   1     -37.773  23.810  -3.632  0.00  0.00     0.056 A 
ATOM      5  C10 NON d   1     -38.070  23.053  -4.769  0.00  0.00     0.022 A 
ATOM      6  C11 NON d   1     -39.107  22.169  -4.657  0.00  0.00     0.052 A 
ATOM      7  C12 NON d   1     -39.858  22.044  -3.492  0.00  0.00     0.102 A 
ATOM      8  O2  NON d   1     -40.822  21.058  -3.595  0.00  0.00    -0.305 OA
ATOM      9  C13 NON d   1     -40.680  20.500  -4.863  0.00  0.00     0.127 A 
ATOM     10  C14 NON d   1     -41.350  19.458  -5.382  0.00  0.00     0.053 C 
ATOM     11  C21 NON d   1     -39.606  21.196  -5.622  0.00  0.00     0.218 A 
ATOM     12  O5  NON d   1     -39.226  20.991  -6.755  0.00  0.00    -0.284 OA
ENDROOT
BRANCH  10  13
ATOM     13  C15 NON d   1     -42.409  18.633  -4.770  0.00  0.00    -0.031 A 
ATOM     14  C16 NON d   1     -42.234  18.187  -3.448  0.00  0.00     0.011 A 
ATOM     15  C17 NON d   1     -43.201  17.399  -2.810  0.00  0.00     0.003 A 
ATOM     16  C18 NON d   1     -44.366  17.041  -3.483  0.00  0.00     0.036 A 
ATOM     17  C19 NON d   1     -44.554  17.483  -4.796  0.00  0.00     0.103 A 
ATOM     18  C20 NON d   1     -43.585  18.272  -5.435  0.00  0.00     0.047 A 
BRANCH  17  19
ATOM     19  N2  NON d   1     -45.776  17.121  -5.525  0.00  0.00    -0.116 N 
ATOM     20  O3  NON d   1     -46.337  18.005  -6.187  0.00  0.00    -0.532 OA
ATOM     21  O4  NON d   1     -46.177  15.950  -5.435  0.00  0.00    -0.532 OA
ENDBRANCH  17  19
ENDBRANCH  10  13
BRANCH   1  22
ATOM     22  C6  NON d   1     -40.426  22.619  -1.101  0.00  0.00     0.280 C 
BRANCH  22  23
ATOM     23  N1  NON d   1     -40.518  23.808  -0.148  0.00  0.00    -0.067 N 
ATOM     24  C5  NON d   1     -41.065  25.045  -0.781  0.00  0.00     0.235 C 
ATOM     25  C4  NON d   1     -40.946  26.233   0.172  0.00  0.00     0.028 C 
ATOM     26  C3  NON d   1     -41.541  25.956   1.561  0.00  0.00     0.007 C 
ATOM     27  C2  NON d   1     -40.902  24.701   2.153  0.00  0.00     0.007 C 
ATOM     28  C1  NON d   1     -41.118  24.380   3.643  0.00  0.00     0.011 C 
ATOM     29  C22 NON d   1     -41.073  23.491   1.205  0.00  0.00     0.239 C 
ATOM     30  H11 NON d   1     -39.483  24.016  -0.042  0.00  0.00     0.280 HD
ENDBRANCH  22  23
ENDBRANCH   1  22
TORSDOF 4
ENDMDL
MODEL 3
REMARK VINA RESULT:   -12.685      3.134      5.645
REMARK INTER + INTRA:         -14.921
REMARK INTER:                 -13.879
REMARK INTRA:                  -1.043
REMARK CONF_INDEPENDENT:        1.193
REMARK UNBOUND:                -1.043
REMARK  4 active torsions:
REMARK  status: ('A' for Active; 'I' for Inactive)
REMARK    1  A    between atoms: N1_6  and  C6_7 
REMARK    2  A    between atoms: C6_7  and  C7_8 
REMARK    3  A    between atoms: C14_17  and  C15_18 
REMARK    4  A    between atoms: C19_22  and  N2_23 
ROOT
ATOM      1  C7  NON d   1     -38.646  20.604  -3.887  0.00  0.00     0.052 A 
ATOM      2  C8  NON d   1     -37.417  20.859  -3.209  0.00  0.00     0.182 A 
ATOM      3  O1  NON d   1     -36.741  21.925  -3.391  0.00  0.00    -0.288 OA
ATOM      4  C9  NON d   1     -36.975  19.863  -2.282  0.00  0.00     0.056 A 
ATOM      5  C10 NON d   1     -37.689  18.700  -1.979  0.00  0.00     0.022 A 
ATOM      6  C11 NON d   1     -38.887  18.537  -2.619  0.00  0.00     0.052 A 
ATOM      7  C12 NON d   1     -39.365  19.454  -3.550  0.00  0.00     0.102 A 
ATOM      8  O2  NON d   1     -40.614  19.107  -4.031  0.00  0.00    -0.305 OA
ATOM      9  C13 NON d   1     -40.977  17.935  -3.372  0.00  0.00     0.127 A 
ATOM     10  C14 NON d   1     -42.140  17.268  -3.463  0.00  0.00     0.053 C 
ATOM     11  C21 NON d   1     -39.888  17.487  -2.464  0.00  0.00     0.218 A 
ATOM     12  O5  NON d   1     -39.849  16.505  -1.754  0.00  0.00    -0.284 OA
ENDROOT
BRANCH  10  13
ATOM     13  C15 NON d   1     -43.332  17.580  -4.274  0.00  0.00    -0.031 A 
ATOM     14  C16 NON d   1     -43.539  18.909  -4.681  0.00  0.00     0.011 A 
ATOM     15  C17 NON d   1     -44.652  19.272  -5.451  0.00  0.00     0.003 A 
ATOM     16  C18 NON d   1     -45.583  18.309  -5.830  0.00  0.00     0.036 A 
ATOM     17  C19 NON d   1     -45.386  16.982  -5.435  0.00  0.00     0.103 A 
ATOM     18  C20 NON d   1     -44.271  16.620  -4.664  0.00  0.00     0.047 A 
BRANCH  17  19
ATOM     19  N2  NON d   1     -46.352  15.948  -5.825  0.00  0.00    -0.116 N 
ATOM     20  O3  NON d   1     -47.523  16.076  -5.440  0.00  0.00    -0.532 OA
ATOM     21  O4  NON d   1     -45.940  15.004  -6.518  0.00  0.00    -0.532 OA
ENDBRANCH  17  19
ENDBRANCH  10  13
BRANCH   1  22
ATOM     22  C6  NON d   1     -39.231  21.590  -4.888  0.00  0.00     0.280 C 
BRANCH  22  23
ATOM     23  N1  NON d   1     -39.272  21.137  -6.346  0.00  0.00    -0.067 N 
ATOM     24  C5  NON d   1     -40.100  19.916  -6.573  0.00  0.00     0.235 C 
ATOM     25  C4  NON d   1     -39.935  19.416  -8.008  0.00  0.00     0.028 C 
ATOM     26  C3  NON d   1     -40.177  20.509  -9.060  0.00  0.00     0.007 C 
ATOM     27  C2  NON d   1     -39.266  21.704  -8.779  0.00  0.00     0.007 C 
ATOM     28  C1  NON d   1     -39.113  22.800  -9.849  0.00  0.00     0.011 C 
ATOM     29  C22 NON d   1     -39.477  22.235  -7.342  0.00  0.00     0.239 C 
ATOM     30  H11 NON d   1     -38.274  20.787  -6.438  0.00  0.00     0.280 HD
ENDBRANCH  22  23
ENDBRANCH   1  22
TORSDOF 4
ENDMDL
MODEL 4
REMARK VINA RESULT:   -12.655      1.633      2.192
REMARK INTER + INTRA:         -15.484
REMARK INTER:                 -13.848
REMARK INTRA:                  -1.636
REMARK CONF_INDEPENDENT:        1.193
REMARK UNBOUND:                -1.636
REMARK  4 active torsions:
REMARK  status: ('A' for Active; 'I' for Inactive)
REMARK    1  A    between atoms: N1_6  and  C6_7 
REMARK    2  A    between atoms: C6_7  and  C7_8 
REMARK    3  A    between atoms: C14_17  and  C15_18 
REMARK    4  A    between atoms: C19_22  and  N2_23 
ROOT
ATOM      1  C7  NON d   1     -40.162  23.353  -2.582  0.00  0.00     0.052 A 
ATOM      2  C8  NON d   1     -39.129  24.336  -2.626  0.00  0.00     0.182 A 
ATOM      3  O1  NON d   1     -38.899  25.133  -1.657  0.00  0.00    -0.288 OA
ATOM      4  C9  NON d   1     -38.332  24.379  -3.813  0.00  0.00     0.056 A 
ATOM      5  C10 NON d   1     -38.478  23.500  -4.890  0.00  0.00     0.022 A 
ATOM      6  C11 NON d   1     -39.448  22.543  -4.767  0.00  0.00     0.052 A 
ATOM      7  C12 NON d   1     -40.275  22.459  -3.651  0.00  0.00     0.102 A 
ATOM      8  O2  NON d   1     -41.147  21.389  -3.726  0.00  0.00    -0.305 OA
ATOM      9  C13 NON d   1     -40.862  20.733  -4.921  0.00  0.00     0.127 A 
ATOM     10  C14 NON d   1     -41.405  19.595  -5.383  0.00  0.00     0.053 C 
ATOM     11  C21 NON d   1     -39.791  21.448  -5.666  0.00  0.00     0.218 A 
ATOM     12  O5  NON d   1     -39.308  21.176  -6.745  0.00  0.00    -0.284 OA
ENDROOT
BRANCH  10  13
ATOM     13  C15 NON d   1     -42.440  18.741  -4.771  0.00  0.00    -0.031 A 
ATOM     14  C16 NON d   1     -42.251  18.298  -3.450  0.00  0.00     0.011 A 
ATOM     15  C17 NON d   1     -43.194  17.483  -2.811  0.00  0.00     0.003 A 
ATOM     16  C18 NON d   1     -44.350  17.093  -3.483  0.00  0.00     0.036 A 
ATOM     17  C19 NON d   1     -44.551  17.530  -4.796  0.00  0.00     0.103 A 
ATOM     18  C20 NON d   1     -43.605  18.347  -5.435  0.00  0.00     0.047 A 
BRANCH  17  19
ATOM     19  N2  NON d   1     -45.763  17.134  -5.524  0.00  0.00    -0.116 N 
ATOM     20  O3  NON d   1     -46.131  15.955  -5.436  0.00  0.00    -0.532 OA
ATOM     21  O4  NON d   1     -46.348  18.005  -6.188  0.00  0.00    -0.532 OA
ENDBRANCH  17  19
ENDBRANCH  10  13
BRANCH   1  22
ATOM     22  C6  NON d   1     -41.071  23.196  -1.372  0.00  0.00     0.280 C 
BRANCH  22  23
ATOM     23  N1  NON d   1     -40.672  23.964  -0.115  0.00  0.00    -0.067 N 
ATOM     24  C5  NON d   1     -41.812  24.662   0.552  0.00  0.00     0.235 C 
ATOM     25  C4  NON d   1     -41.306  25.560   1.680  0.00  0.00     0.028 C 
ATOM     26  C3  NON d   1     -40.390  24.826   2.671  0.00  0.00     0.007 C 
ATOM     27  C2  NON d   1     -39.232  24.175   1.915  0.00  0.00     0.007 C 
ATOM     28  C1  NON d   1     -38.030  23.630   2.708  0.00  0.00     0.011 C 
ATOM     29  C22 NON d   1     -39.753  23.228   0.810  0.00  0.00     0.239 C 
ATOM     30  H11 NON d   1     -40.125  24.752  -0.569  0.00  0.00     0.280 HD
ENDBRANCH  22  23
ENDBRANCH   1  22
TORSDOF 4
ENDMDL
MODEL 5
REMARK VINA RESULT:   -12.550      3.131      5.675
REMARK INTER + INTRA:         -15.594
REMARK INTER:                 -13.744
REMARK INTRA:                  -1.850
REMARK CONF_INDEPENDENT:        1.193
REMARK UNBOUND:                -1.850
REMARK  4 active torsions:
REMARK  status: ('A' for Active; 'I' for Inactive)
REMARK    1  A    between atoms: N1_6  and  C6_7 
REMARK    2  A    between atoms: C6_7  and  C7_8 
REMARK    3  A    between atoms: C14_17  and  C15_18 
REMARK    4  A    between atoms: C19_22  and  N2_23 
ROOT
ATOM      1  C7  NON d   1     -38.622  20.581  -3.869  0.00  0.00     0.052 A 
ATOM      2  C8  NON d   1     -37.395  20.834  -3.185  0.00  0.00     0.182 A 
ATOM      3  O1  NON d   1     -36.712  21.894  -3.372  0.00  0.00    -0.288 OA
ATOM      4  C9  NON d   1     -36.964  19.841  -2.248  0.00  0.00     0.056 A 
ATOM      5  C10 NON d   1     -37.687  18.685  -1.941  0.00  0.00     0.022 A 
ATOM      6  C11 NON d   1     -38.882  18.524  -2.587  0.00  0.00     0.052 A 
ATOM      7  C12 NON d   1     -39.350  19.437  -3.527  0.00  0.00     0.102 A 
ATOM      8  O2  NON d   1     -40.598  19.094  -4.013  0.00  0.00    -0.305 OA
ATOM      9  C13 NON d   1     -40.972  17.930  -3.347  0.00  0.00     0.127 A 
ATOM     10  C14 NON d   1     -42.139  17.269  -3.439  0.00  0.00     0.053 C 
ATOM     11  C21 NON d   1     -39.890  17.482  -2.429  0.00  0.00     0.218 A 
ATOM     12  O5  NON d   1     -39.861  16.505  -1.712  0.00  0.00    -0.284 OA
ENDROOT
BRANCH  10  13
ATOM     13  C15 NON d   1     -43.324  17.582  -4.258  0.00  0.00    -0.031 A 
ATOM     14  C16 NON d   1     -43.520  18.909  -4.678  0.00  0.00     0.011 A 
ATOM     15  C17 NON d   1     -44.626  19.273  -5.457  0.00  0.00     0.003 A 
ATOM     16  C18 NON d   1     -45.562  18.313  -5.833  0.00  0.00     0.036 A 
ATOM     17  C19 NON d   1     -45.376  16.988  -5.425  0.00  0.00     0.103 A 
ATOM     18  C20 NON d   1     -44.267  16.625  -4.645  0.00  0.00     0.047 A 
BRANCH  17  19
ATOM     19  N2  NON d   1     -46.347  15.958  -5.812  0.00  0.00    -0.116 N 
ATOM     20  O3  NON d   1     -45.940  15.005  -6.491  0.00  0.00    -0.532 OA
ATOM     21  O4  NON d   1     -47.522  16.100  -5.435  0.00  0.00    -0.532 OA
ENDBRANCH  17  19
ENDBRANCH  10  13
BRANCH   1  22
ATOM     22  C6  NON d   1     -39.195  21.562  -4.880  0.00  0.00     0.280 C 
BRANCH  22  23
ATOM     23  N1  NON d   1     -39.680  20.973  -6.203  0.00  0.00    -0.067 N 
ATOM     24  C5  NON d   1     -40.239  21.988  -7.145  0.00  0.00     0.235 C 
ATOM     25  C4  NON d   1     -40.875  21.304  -8.354  0.00  0.00     0.028 C 
ATOM     26  C3  NON d   1     -39.938  20.299  -9.042  0.00  0.00     0.007 C 
ATOM     27  C2  NON d   1     -39.443  19.275  -8.020  0.00  0.00     0.007 C 
ATOM     28  C1  NON d   1     -38.728  18.006  -8.516  0.00  0.00     0.011 C 
ATOM     29  C22 NON d   1     -38.755  19.974  -6.825  0.00  0.00     0.239 C 
ATOM     30  H11 NON d   1     -40.537  20.457  -5.850  0.00  0.00     0.280 HD
ENDBRANCH  22  23
ENDBRANCH   1  22
TORSDOF 4
ENDMDL
MODEL 6
REMARK VINA RESULT:   -12.055      2.736      4.264
REMARK INTER + INTRA:         -14.676
REMARK INTER:                 -13.248
REMARK INTRA:                  -1.428
REMARK CONF_INDEPENDENT:        1.193
REMARK UNBOUND:                -1.428
REMARK  4 active torsions:
REMARK  status: ('A' for Active; 'I' for Inactive)
REMARK    1  A    between atoms: N1_6  and  C6_7 
REMARK    2  A    between atoms: C6_7  and  C7_8 
REMARK    3  A    between atoms: C14_17  and  C15_18 
REMARK    4  A    between atoms: C19_22  and  N2_23 
ROOT
ATOM      1  C7  NON d   1     -38.491  20.285  -4.144  0.00  0.00     0.052 A 
ATOM      2  C8  NON d   1     -37.245  20.519  -3.490  0.00  0.00     0.182 A 
ATOM      3  O1  NON d   1     -36.497  21.512  -3.774  0.00  0.00    -0.288 OA
ATOM      4  C9  NON d   1     -36.869  19.589  -2.469  0.00  0.00     0.056 A 
ATOM      5  C10 NON d   1     -37.661  18.514  -2.056  0.00  0.00     0.022 A 
ATOM      6  C11 NON d   1     -38.869  18.373  -2.680  0.00  0.00     0.052 A 
ATOM      7  C12 NON d   1     -39.287  19.225  -3.697  0.00  0.00     0.102 A 
ATOM      8  O2  NON d   1     -40.559  18.921  -4.146  0.00  0.00    -0.305 OA
ATOM      9  C13 NON d   1     -41.000  17.847  -3.377  0.00  0.00     0.127 A 
ATOM     10  C14 NON d   1     -42.207  17.257  -3.405  0.00  0.00     0.053 C 
ATOM     11  C21 NON d   1     -39.940  17.416  -2.427  0.00  0.00     0.218 A 
ATOM     12  O5  NON d   1     -39.967  16.507  -1.624  0.00  0.00    -0.284 OA
ENDROOT
BRANCH  10  13
ATOM     13  C15 NON d   1     -43.377  17.570  -4.246  0.00  0.00    -0.031 A 
ATOM     14  C16 NON d   1     -43.555  18.893  -4.685  0.00  0.00     0.011 A 
ATOM     15  C17 NON d   1     -44.646  19.257  -5.484  0.00  0.00     0.003 A 
ATOM     16  C18 NON d   1     -45.585  18.300  -5.861  0.00  0.00     0.036 A 
ATOM     17  C19 NON d   1     -45.418  16.979  -5.435  0.00  0.00     0.103 A 
ATOM     18  C20 NON d   1     -44.323  16.616  -4.634  0.00  0.00     0.047 A 
BRANCH  17  19
ATOM     19  N2  NON d   1     -46.392  15.953  -5.822  0.00  0.00    -0.116 N 
ATOM     20  O3  NON d   1     -47.561  16.090  -5.436  0.00  0.00    -0.532 OA
ATOM     21  O4  NON d   1     -45.989  15.005  -6.515  0.00  0.00    -0.532 OA
ENDBRANCH  17  19
ENDBRANCH  10  13
BRANCH   1  22
ATOM     22  C6  NON d   1     -39.010  21.206  -5.238  0.00  0.00     0.280 C 
BRANCH  22  23
ATOM     23  N1  NON d   1     -39.282  22.654  -4.838  0.00  0.00    -0.067 N 
ATOM     24  C5  NON d   1     -39.563  23.555  -5.995  0.00  0.00     0.235 C 
ATOM     25  C4  NON d   1     -39.632  25.011  -5.537  0.00  0.00     0.028 C 
ATOM     26  C3  NON d   1     -40.594  25.229  -4.359  0.00  0.00     0.007 C 
ATOM     27  C2  NON d   1     -40.214  24.300  -3.207  0.00  0.00     0.007 C 
ATOM     28  C1  NON d   1     -40.842  24.530  -1.820  0.00  0.00     0.011 C 
ATOM     29  C22 NON d   1     -40.198  22.824  -3.667  0.00  0.00     0.239 C 
ATOM     30  H11 NON d   1     -38.302  22.929  -4.537  0.00  0.00     0.280 HD
ENDBRANCH  22  23
ENDBRANCH   1  22
TORSDOF 4
ENDMDL
MODEL 7
REMARK VINA RESULT:   -11.715      1.934      2.663
REMARK INTER + INTRA:         -14.417
REMARK INTER:                 -12.909
REMARK INTRA:                  -1.508
REMARK CONF_INDEPENDENT:        1.193
REMARK UNBOUND:                -1.508
REMARK  4 active torsions:
REMARK  status: ('A' for Active; 'I' for Inactive)
REMARK    1  A    between atoms: N1_6  and  C6_7 
REMARK    2  A    between atoms: C6_7  and  C7_8 
REMARK    3  A    between atoms: C14_17  and  C15_18 
REMARK    4  A    between atoms: C19_22  and  N2_23 
ROOT
ATOM      1  C7  NON d   1     -39.189  22.593  -4.480  0.00  0.00     0.052 A 
ATOM      2  C8  NON d   1     -37.949  23.272  -4.668  0.00  0.00     0.182 A 
ATOM      3  O1  NON d   1     -37.735  24.447  -4.219  0.00  0.00    -0.288 OA
ATOM      4  C9  NON d   1     -36.926  22.562  -5.374  0.00  0.00     0.056 A 
ATOM      5  C10 NON d   1     -37.059  21.251  -5.840  0.00  0.00     0.022 A 
ATOM      6  C11 NON d   1     -38.251  20.632  -5.582  0.00  0.00     0.052 A 
ATOM      7  C12 NON d   1     -39.296  21.271  -4.922  0.00  0.00     0.102 A 
ATOM      8  O2  NON d   1     -40.382  20.436  -4.732  0.00  0.00    -0.305 OA
ATOM      9  C13 NON d   1     -40.025  19.199  -5.263  0.00  0.00     0.127 A 
ATOM     10  C14 NON d   1     -40.735  18.059  -5.239  0.00  0.00     0.053 C 
ATOM     11  C21 NON d   1     -38.665  19.262  -5.863  0.00  0.00     0.218 A 
ATOM     12  O5  NON d   1     -38.046  18.386  -6.428  0.00  0.00    -0.284 OA
ENDROOT
BRANCH  10  13
ATOM     13  C15 NON d   1     -42.068  17.804  -4.664  0.00  0.00    -0.031 A 
ATOM     14  C16 NON d   1     -42.220  17.864  -3.267  0.00  0.00     0.011 A 
ATOM     15  C17 NON d   1     -43.459  17.630  -2.657  0.00  0.00     0.003 A 
ATOM     16  C18 NON d   1     -44.575  17.330  -3.434  0.00  0.00     0.036 A 
ATOM     17  C19 NON d   1     -44.438  17.272  -4.824  0.00  0.00     0.103 A 
ATOM     18  C20 NON d   1     -43.196  17.507  -5.435  0.00  0.00     0.047 A 
BRANCH  17  19
ATOM     19  N2  NON d   1     -45.601  16.960  -5.664  0.00  0.00    -0.116 N 
ATOM     20  O3  NON d   1     -46.207  17.906  -6.186  0.00  0.00    -0.532 OA
ATOM     21  O4  NON d   1     -45.910  15.766  -5.803  0.00  0.00    -0.532 OA
ENDBRANCH  17  19
ENDBRANCH  10  13
BRANCH   1  22
ATOM     22  C6  NON d   1     -40.352  23.233  -3.736  0.00  0.00     0.280 C 
BRANCH  22  23
ATOM     23  N1  NON d   1     -40.091  23.644  -2.289  0.00  0.00    -0.067 N 
ATOM     24  C5  NON d   1     -41.091  24.613  -1.750  0.00  0.00     0.235 C 
ATOM     25  C4  NON d   1     -40.658  25.123  -0.376  0.00  0.00     0.028 C 
ATOM     26  C3  NON d   1     -40.326  23.992   0.610  0.00  0.00     0.007 C 
ATOM     27  C2  NON d   1     -39.271  23.071  -0.000  0.00  0.00     0.007 C 
ATOM     28  C1  NON d   1     -38.567  22.037   0.898  0.00  0.00     0.011 C 
ATOM     29  C22 NON d   1     -39.740  22.519  -1.366  0.00  0.00     0.239 C 
ATOM     30  H11 NON d   1     -39.223  24.235  -2.439  0.00  0.00     0.280 HD
ENDBRANCH  22  23
ENDBRANCH   1  22
TORSDOF 4
ENDMDL
MODEL 8
REMARK VINA RESULT:   -11.515      2.485      3.177
REMARK INTER + INTRA:         -14.319
REMARK INTER:                 -12.708
REMARK INTRA:                  -1.610
REMARK CONF_INDEPENDENT:        1.193
REMARK UNBOUND:                -1.610
REMARK  4 active torsions:
REMARK  status: ('A' for Active; 'I' for Inactive)
REMARK    1  A    between atoms: N1_6  and  C6_7 
REMARK    2  A    between atoms: C6_7  and  C7_8 
REMARK    3  A    between atoms: C14_17  and  C15_18 
REMARK    4  A    between atoms: C19_22  and  N2_23 
ROOT
ATOM      1  C7  NON d   1     -39.136  22.442  -3.642  0.00  0.00     0.052 A 
ATOM      2  C8  NON d   1     -37.874  23.101  -3.740  0.00  0.00     0.182 A 
ATOM      3  O1  NON d   1     -37.597  24.154  -3.078  0.00  0.00    -0.288 OA
ATOM      4  C9  NON d   1     -36.906  22.509  -4.612  0.00  0.00     0.056 A 
ATOM      5  C10 NON d   1     -37.110  21.322  -5.322  0.00  0.00     0.022 A 
ATOM      6  C11 NON d   1     -38.318  20.707  -5.146  0.00  0.00     0.052 A 
ATOM      7  C12 NON d   1     -39.314  21.239  -4.332  0.00  0.00     0.102 A 
ATOM      8  O2  NON d   1     -40.428  20.423  -4.268  0.00  0.00    -0.305 OA
ATOM      9  C13 NON d   1     -40.141  19.305  -5.046  0.00  0.00     0.127 A 
ATOM     10  C14 NON d   1     -40.899  18.209  -5.220  0.00  0.00     0.053 C 
ATOM     11  C21 NON d   1     -38.800  19.436  -5.675  0.00  0.00     0.218 A 
ATOM     12  O5  NON d   1     -38.236  18.668  -6.426  0.00  0.00    -0.284 OA
ENDROOT
BRANCH  10  13
ATOM     13  C15 NON d   1     -42.223  17.892  -4.654  0.00  0.00    -0.031 A 
ATOM     14  C16 NON d   1     -42.382  17.921  -3.258  0.00  0.00     0.011 A 
ATOM     15  C17 NON d   1     -43.613  17.629  -2.656  0.00  0.00     0.003 A 
ATOM     16  C18 NON d   1     -44.714  17.300  -3.443  0.00  0.00     0.036 A 
ATOM     17  C19 NON d   1     -44.570  17.272  -4.833  0.00  0.00     0.103 A 
ATOM     18  C20 NON d   1     -43.336  17.566  -5.435  0.00  0.00     0.047 A 
BRANCH  17  19
ATOM     19  N2  NON d   1     -45.717  16.932  -5.683  0.00  0.00    -0.116 N 
ATOM     20  O3  NON d   1     -46.005  15.734  -5.814  0.00  0.00    -0.532 OA
ATOM     21  O4  NON d   1     -46.333  17.865  -6.224  0.00  0.00    -0.532 OA
ENDBRANCH  17  19
ENDBRANCH  10  13
BRANCH   1  22
ATOM     22  C6  NON d   1     -40.247  22.963  -2.741  0.00  0.00     0.280 C 
BRANCH  22  23
ATOM     23  N1  NON d   1     -40.331  24.477  -2.569  0.00  0.00    -0.067 N 
ATOM     24  C5  NON d   1     -41.000  25.176  -3.706  0.00  0.00     0.235 C 
ATOM     25  C4  NON d   1     -40.873  26.691  -3.554  0.00  0.00     0.028 C 
ATOM     26  C3  NON d   1     -41.336  27.201  -2.181  0.00  0.00     0.007 C 
ATOM     27  C2  NON d   1     -40.577  26.466  -1.077  0.00  0.00     0.007 C 
ATOM     28  C1  NON d   1     -40.652  26.995   0.366  0.00  0.00     0.011 C 
ATOM     29  C22 NON d   1     -40.754  24.935  -1.208  0.00  0.00     0.239 C 
ATOM     30  H11 NON d   1     -39.304  24.715  -2.695  0.00  0.00     0.280 HD
ENDBRANCH  22  23
ENDBRANCH   1  22
TORSDOF 4
ENDMDL
