MODEL 1
REMARK VINA RESULT:   -32.480      0.000      0.000
REMARK INTER + INTRA:         -36.626
REMARK INTER:                 -35.463
REMARK INTRA:                  -1.163
REMARK CONF_INDEPENDENT:        2.983
REMARK UNBOUND:                -1.163
REMARK  10 active torsions:
REMARK  status: ('A' for Active; 'I' for Inactive)
REMARK    1  A    between atoms: C2_2  and  N1_3 
REMARK    2  A    between atoms: N1_3  and  C3_4 
REMARK    3  A    between atoms: N1_3  and  C5_6 
REMARK    4  A    between atoms: C8_9  and  N2_10 
REMARK       I    between atoms: N2_10  and  C9_11 
REMARK    5  A    between atoms: C9_11  and  C10_13 
REMARK    6  A    between atoms: C10_13  and  S1_14 
REMARK    7  A    between atoms: S1_14  and  C11_15 
REMARK    8  A    between atoms: C12_18  and  N5_19 
REMARK    9  A    between atoms: N6_20  and  N5_19 
REMARK   10  A    between atoms: C13_21  and  C15_23 
ROOT
ATOM      1  C11 NON d   1     -46.725  16.856  -5.266  0.00  0.00     0.228 A 
ATOM      2  N3  NON d   1     -47.440  16.130  -6.142  0.00  0.00    -0.106 NA
ATOM      3  N4  NON d   1     -48.510  15.637  -5.458  0.00  0.00     0.048 NA
ATOM      4  C12 NON d   1     -48.396  16.084  -4.203  0.00  0.00     0.762 A 
ATOM      5  N7  NON d   1     -47.324  16.875  -4.058  0.00  0.00    -0.032 NA
ENDROOT
BRANCH   1   6
ATOM      6  S1  NON d   1     -45.322  17.822  -5.672  0.00  0.00    -0.079 SA
BRANCH   6   7
ATOM      7  C10 NON d   1     -44.246  17.536  -4.229  0.00  0.00     0.185 C 
BRANCH   7   8
ATOM      8  C9  NON d   1     -42.766  17.825  -4.516  0.00  0.00     0.231 C 
ATOM      9  N2  NON d   1     -42.589  18.837  -5.467  0.00  0.00    -0.327 N 
ATOM     10  H13 NON d   1     -43.416  19.345  -5.760  0.00  0.00     0.169 HD
ATOM     11  O1  NON d   1     -41.849  17.264  -3.926  0.00  0.00    -0.272 OA
BRANCH   9  12
ATOM     12  C8  NON d   1     -41.356  19.282  -6.006  0.00  0.00     0.034 A 
ATOM     13  C7  NON d   1     -41.338  19.993  -7.204  0.00  0.00     0.032 A 
ATOM     14  C6  NON d   1     -40.118  20.455  -7.780  0.00  0.00     0.031 A 
ATOM     15  C5  NON d   1     -38.850  20.197  -7.233  0.00  0.00     0.030 A 
ATOM     16  C22 NON d   1     -38.930  19.474  -6.019  0.00  0.00     0.031 A 
ATOM     17  C21 NON d   1     -40.130  19.033  -5.418  0.00  0.00     0.032 A 
BRANCH  15  18
ATOM     18  N1  NON d   1     -37.611  20.602  -7.773  0.00  0.00    -0.382 N 
BRANCH  18  19
ATOM     19  C2  NON d   1     -36.559  19.546  -7.770  0.00  0.00     0.118 C 
ATOM     20  C1  NON d   1     -36.743  18.381  -8.729  0.00  0.00     0.026 C 
ENDBRANCH  18  19
BRANCH  18  21
ATOM     21  C3  NON d   1     -37.208  21.909  -8.402  0.00  0.00     0.118 C 
ATOM     22  C4  NON d   1     -36.312  21.776  -9.647  0.00  0.00     0.026 C 
ENDBRANCH  18  21
ENDBRANCH  15  18
ENDBRANCH   9  12
ENDBRANCH   7   8
ENDBRANCH   6   7
ENDBRANCH   1   6
BRANCH   4  23
ATOM     23  N5  NON d   1     -49.306  15.773  -3.217  0.00  0.00    -0.127 N 
ATOM     24  H16 NON d   1     -50.103  15.261  -3.571  0.00  0.00     0.206 HD
BRANCH  23  25
ATOM     25  N6  NON d   1     -49.196  16.271  -2.059  0.00  0.00    -0.290 N 
ATOM     26  C13 NON d   1     -50.119  16.889  -1.396  0.00  0.00     0.032 C 
ATOM     27  C14 NON d   1     -49.572  17.630  -0.185  0.00  0.00     0.070 C 
ATOM     28  H17 NON d   1     -48.246  16.163  -1.656  0.00  0.00     0.187 HD
BRANCH  26  29
ATOM     29  C15 NON d   1     -51.605  16.959  -1.679  0.00  0.00    -0.013 A 
ATOM     30  C16 NON d   1     -52.265  16.082  -2.554  0.00  0.00     0.013 A 
ATOM     31  C17 NON d   1     -53.638  16.210  -2.809  0.00  0.00     0.001 A 
ATOM     32  C18 NON d   1     -54.391  17.172  -2.149  0.00  0.00     0.000 A 
ATOM     33  C19 NON d   1     -53.774  18.006  -1.227  0.00  0.00     0.001 A 
ATOM     34  C20 NON d   1     -52.395  17.905  -0.997  0.00  0.00     0.013 A 
ENDBRANCH  26  29
ENDBRANCH  23  25
ENDBRANCH   4  23
TORSDOF 10
ENDMDL
MODEL 2
REMARK VINA RESULT:   -32.354      0.895      1.212
REMARK INTER + INTRA:         -36.447
REMARK INTER:                 -35.337
REMARK INTRA:                  -1.110
REMARK CONF_INDEPENDENT:        2.983
REMARK UNBOUND:                -1.110
REMARK  10 active torsions:
REMARK  status: ('A' for Active; 'I' for Inactive)
REMARK    1  A    between atoms: C2_2  and  N1_3 
REMARK    2  A    between atoms: N1_3  and  C3_4 
REMARK    3  A    between atoms: N1_3  and  C5_6 
REMARK    4  A    between atoms: C8_9  and  N2_10 
REMARK       I    between atoms: N2_10  and  C9_11 
REMARK    5  A    between atoms: C9_11  and  C10_13 
REMARK    6  A    between atoms: C10_13  and  S1_14 
REMARK    7  A    between atoms: S1_14  and  C11_15 
REMARK    8  A    between atoms: C12_18  and  N5_19 
REMARK    9  A    between atoms: N6_20  and  N5_19 
REMARK   10  A    between atoms: C13_21  and  C15_23 
ROOT
ATOM      1  C11 NON d   1     -46.709  16.883  -5.333  0.00  0.00     0.228 A 
ATOM      2  N3  NON d   1     -47.440  16.130  -6.171  0.00  0.00    -0.106 NA
ATOM      3  N4  NON d   1     -48.451  15.592  -5.433  0.00  0.00     0.048 NA
ATOM      4  C12 NON d   1     -48.287  16.042  -4.184  0.00  0.00     0.762 A 
ATOM      5  N7  NON d   1     -47.243  16.877  -4.094  0.00  0.00    -0.032 NA
ENDROOT
BRANCH   1   6
ATOM      6  S1  NON d   1     -45.372  17.908  -5.810  0.00  0.00    -0.079 SA
BRANCH   6   7
ATOM      7  C10 NON d   1     -44.343  17.899  -4.305  0.00  0.00     0.185 C 
BRANCH   7   8
ATOM      8  C9  NON d   1     -42.842  18.012  -4.602  0.00  0.00     0.231 C 
ATOM      9  N2  NON d   1     -42.532  19.121  -5.398  0.00  0.00    -0.327 N 
ATOM     10  H13 NON d   1     -43.279  19.782  -5.581  0.00  0.00     0.169 HD
ATOM     11  O1  NON d   1     -42.009  17.241  -4.137  0.00  0.00    -0.272 OA
BRANCH   9  12
ATOM     12  C8  NON d   1     -41.255  19.461  -5.911  0.00  0.00     0.034 A 
ATOM     13  C7  NON d   1     -40.448  18.475  -6.473  0.00  0.00     0.032 A 
ATOM     14  C6  NON d   1     -39.155  18.776  -6.996  0.00  0.00     0.031 A 
ATOM     15  C5  NON d   1     -38.573  20.053  -6.948  0.00  0.00     0.030 A 
ATOM     16  C22 NON d   1     -39.437  21.013  -6.369  0.00  0.00     0.031 A 
ATOM     17  C21 NON d   1     -40.731  20.740  -5.871  0.00  0.00     0.032 A 
BRANCH  15  18
ATOM     18  N1  NON d   1     -37.290  20.403  -7.421  0.00  0.00    -0.382 N 
BRANCH  18  19
ATOM     19  C2  NON d   1     -36.333  20.828  -6.362  0.00  0.00     0.118 C 
ATOM     20  C1  NON d   1     -36.804  20.725  -4.920  0.00  0.00     0.026 C 
ENDBRANCH  18  19
BRANCH  18  21
ATOM     21  C3  NON d   1     -36.726  20.356  -8.817  0.00  0.00     0.118 C 
ATOM     22  C4  NON d   1     -37.749  20.631  -9.934  0.00  0.00     0.026 C 
ENDBRANCH  18  21
ENDBRANCH  15  18
ENDBRANCH   9  12
ENDBRANCH   7   8
ENDBRANCH   6   7
ENDBRANCH   1   6
BRANCH   4  23
ATOM     23  N5  NON d   1     -49.129  15.692  -3.151  0.00  0.00    -0.127 N 
ATOM     24  H16 NON d   1     -49.900  15.113  -3.458  0.00  0.00     0.206 HD
BRANCH  23  25
ATOM     25  N6  NON d   1     -49.009  16.229  -2.013  0.00  0.00    -0.290 N 
ATOM     26  C13 NON d   1     -49.922  16.879  -1.367  0.00  0.00     0.032 C 
ATOM     27  C14 NON d   1     -49.361  17.656  -0.185  0.00  0.00     0.070 C 
ATOM     28  H17 NON d   1     -48.057  16.125  -1.610  0.00  0.00     0.187 HD
BRANCH  26  29
ATOM     29  C15 NON d   1     -51.408  16.954  -1.645  0.00  0.00    -0.013 A 
ATOM     30  C16 NON d   1     -52.065  16.118  -2.561  0.00  0.00     0.013 A 
ATOM     31  C17 NON d   1     -53.438  16.250  -2.810  0.00  0.00     0.001 A 
ATOM     32  C18 NON d   1     -54.196  17.175  -2.103  0.00  0.00     0.000 A 
ATOM     33  C19 NON d   1     -53.583  17.966  -1.142  0.00  0.00     0.001 A 
ATOM     34  C20 NON d   1     -52.203  17.861  -0.918  0.00  0.00     0.013 A 
ENDBRANCH  26  29
ENDBRANCH  23  25
ENDBRANCH   4  23
TORSDOF 10
ENDMDL
MODEL 3
REMARK VINA RESULT:   -31.021      2.752     12.639
REMARK INTER + INTRA:         -35.330
REMARK INTER:                 -34.004
REMARK INTRA:                  -1.326
REMARK CONF_INDEPENDENT:        2.983
REMARK UNBOUND:                -1.326
REMARK  10 active torsions:
REMARK  status: ('A' for Active; 'I' for Inactive)
REMARK    1  A    between atoms: C2_2  and  N1_3 
REMARK    2  A    between atoms: N1_3  and  C3_4 
REMARK    3  A    between atoms: N1_3  and  C5_6 
REMARK    4  A    between atoms: C8_9  and  N2_10 
REMARK       I    between atoms: N2_10  and  C9_11 
REMARK    5  A    between atoms: C9_11  and  C10_13 
REMARK    6  A    between atoms: C10_13  and  S1_14 
REMARK    7  A    between atoms: S1_14  and  C11_15 
REMARK    8  A    between atoms: C12_18  and  N5_19 
REMARK    9  A    between atoms: N6_20  and  N5_19 
REMARK   10  A    between atoms: C13_21  and  C15_23 
ROOT
ATOM      1  C11 NON d   1     -46.747  16.018  -4.634  0.00  0.00     0.228 A 
ATOM      2  N3  NON d   1     -47.066  16.584  -5.810  0.00  0.00    -0.106 NA
ATOM      3  N4  NON d   1     -46.095  17.501  -6.078  0.00  0.00     0.048 NA
ATOM      4  C12 NON d   1     -45.233  17.450  -5.056  0.00  0.00     0.762 A 
ATOM      5  N7  NON d   1     -45.584  16.514  -4.164  0.00  0.00    -0.032 NA
ENDROOT
BRANCH   1   6
ATOM      6  S1  NON d   1     -47.596  14.672  -3.904  0.00  0.00    -0.079 SA
BRANCH   6   7
ATOM      7  C10 NON d   1     -49.321  15.022  -4.378  0.00  0.00     0.185 C 
BRANCH   7   8
ATOM      8  C9  NON d   1     -49.992  16.067  -3.476  0.00  0.00     0.231 C 
ATOM      9  N2  NON d   1     -51.297  15.711  -3.115  0.00  0.00    -0.327 N 
ATOM     10  H13 NON d   1     -51.607  14.779  -3.366  0.00  0.00     0.169 HD
ATOM     11  O1  NON d   1     -49.414  17.072  -3.075  0.00  0.00    -0.272 OA
BRANCH   9  12
ATOM     12  C8  NON d   1     -52.207  16.492  -2.360  0.00  0.00     0.034 A 
ATOM     13  C7  NON d   1     -51.736  17.309  -1.335  0.00  0.00     0.032 A 
ATOM     14  C6  NON d   1     -52.619  18.108  -0.550  0.00  0.00     0.031 A 
ATOM     15  C5  NON d   1     -54.015  18.105  -0.701  0.00  0.00     0.030 A 
ATOM     16  C22 NON d   1     -54.436  17.259  -1.755  0.00  0.00     0.031 A 
ATOM     17  C21 NON d   1     -53.574  16.482  -2.563  0.00  0.00     0.032 A 
BRANCH  15  18
ATOM     18  N1  NON d   1     -54.939  18.848   0.064  0.00  0.00    -0.382 N 
BRANCH  18  19
ATOM     19  C2  NON d   1     -54.810  20.326  -0.073  0.00  0.00     0.118 C 
ATOM     20  C1  NON d   1     -53.441  20.930   0.195  0.00  0.00     0.026 C 
ENDBRANCH  18  19
BRANCH  18  21
ATOM     21  C3  NON d   1     -56.067  18.379   0.944  0.00  0.00     0.118 C 
ATOM     22  C4  NON d   1     -55.691  17.255   1.928  0.00  0.00     0.026 C 
ENDBRANCH  18  21
ENDBRANCH  15  18
ENDBRANCH   9  12
ENDBRANCH   7   8
ENDBRANCH   6   7
ENDBRANCH   1   6
BRANCH   4  23
ATOM     23  N5  NON d   1     -44.118  18.255  -4.983  0.00  0.00    -0.127 N 
ATOM     24  H16 NON d   1     -43.969  18.790  -5.828  0.00  0.00     0.206 HD
BRANCH  23  25
ATOM     25  N6  NON d   1     -43.307  18.144  -4.020  0.00  0.00    -0.290 N 
ATOM     26  C13 NON d   1     -42.059  18.489  -4.019  0.00  0.00     0.032 C 
ATOM     27  C14 NON d   1     -41.300  17.934  -2.823  0.00  0.00     0.070 C 
ATOM     28  H17 NON d   1     -43.728  17.708  -3.177  0.00  0.00     0.187 HD
BRANCH  26  29
ATOM     29  C15 NON d   1     -41.310  19.334  -5.027  0.00  0.00    -0.013 A 
ATOM     30  C16 NON d   1     -40.887  18.852  -6.275  0.00  0.00     0.013 A 
ATOM     31  C17 NON d   1     -40.165  19.665  -7.161  0.00  0.00     0.001 A 
ATOM     32  C18 NON d   1     -39.905  20.992  -6.846  0.00  0.00     0.000 A 
ATOM     33  C19 NON d   1     -40.373  21.512  -5.646  0.00  0.00     0.001 A 
ATOM     34  C20 NON d   1     -41.063  20.691  -4.744  0.00  0.00     0.013 A 
ENDBRANCH  26  29
ENDBRANCH  23  25
ENDBRANCH   4  23
TORSDOF 10
ENDMDL
MODEL 4
REMARK VINA RESULT:   -30.178      1.181      2.075
REMARK INTER + INTRA:         -34.560
REMARK INTER:                 -33.161
REMARK INTRA:                  -1.399
REMARK CONF_INDEPENDENT:        2.983
REMARK UNBOUND:                -1.399
REMARK  10 active torsions:
REMARK  status: ('A' for Active; 'I' for Inactive)
REMARK    1  A    between atoms: C2_2  and  N1_3 
REMARK    2  A    between atoms: N1_3  and  C3_4 
REMARK    3  A    between atoms: N1_3  and  C5_6 
REMARK    4  A    between atoms: C8_9  and  N2_10 
REMARK       I    between atoms: N2_10  and  C9_11 
REMARK    5  A    between atoms: C9_11  and  C10_13 
REMARK    6  A    between atoms: C10_13  and  S1_14 
REMARK    7  A    between atoms: S1_14  and  C11_15 
REMARK    8  A    between atoms: C12_18  and  N5_19 
REMARK    9  A    between atoms: N6_20  and  N5_19 
REMARK   10  A    between atoms: C13_21  and  C15_23 
ROOT
ATOM      1  C11 NON d   1     -46.574  16.701  -4.985  0.00  0.00     0.228 A 
ATOM      2  N3  NON d   1     -47.440  16.130  -5.839  0.00  0.00    -0.106 NA
ATOM      3  N4  NON d   1     -48.555  15.823  -5.119  0.00  0.00     0.048 NA
ATOM      4  C12 NON d   1     -48.316  16.222  -3.864  0.00  0.00     0.762 A 
ATOM      5  N7  NON d   1     -47.116  16.807  -3.754  0.00  0.00    -0.032 NA
ENDROOT
BRANCH   1   6
ATOM      6  S1  NON d   1     -45.038  17.409  -5.435  0.00  0.00    -0.079 SA
BRANCH   6   7
ATOM      7  C10 NON d   1     -44.072  17.203  -3.904  0.00  0.00     0.185 C 
BRANCH   7   8
ATOM      8  C9  NON d   1     -42.628  17.707  -4.031  0.00  0.00     0.231 C 
ATOM      9  N2  NON d   1     -42.479  18.668  -5.039  0.00  0.00    -0.327 N 
ATOM     10  H13 NON d   1     -43.326  19.016  -5.474  0.00  0.00     0.169 HD
ATOM     11  O1  NON d   1     -41.725  17.342  -3.286  0.00  0.00    -0.272 OA
BRANCH   9  12
ATOM     12  C8  NON d   1     -41.267  19.269  -5.459  0.00  0.00     0.034 A 
ATOM     13  C7  NON d   1     -40.888  20.505  -4.939  0.00  0.00     0.032 A 
ATOM     14  C6  NON d   1     -39.677  21.144  -5.339  0.00  0.00     0.031 A 
ATOM     15  C5  NON d   1     -38.804  20.624  -6.307  0.00  0.00     0.030 A 
ATOM     16  C22 NON d   1     -39.238  19.370  -6.799  0.00  0.00     0.031 A 
ATOM     17  C21 NON d   1     -40.419  18.707  -6.395  0.00  0.00     0.032 A 
BRANCH  15  18
ATOM     18  N1  NON d   1     -37.611  21.224  -6.764  0.00  0.00    -0.382 N 
BRANCH  18  19
ATOM     19  C2  NON d   1     -36.466  21.132  -5.814  0.00  0.00     0.118 C 
ATOM     20  C1  NON d   1     -36.309  19.831  -5.043  0.00  0.00     0.026 C 
ENDBRANCH  18  19
BRANCH  18  21
ATOM     21  C3  NON d   1     -37.303  21.887  -8.081  0.00  0.00     0.118 C 
ATOM     22  C4  NON d   1     -37.349  20.949  -9.301  0.00  0.00     0.026 C 
ENDBRANCH  18  21
ENDBRANCH  15  18
ENDBRANCH   9  12
ENDBRANCH   7   8
ENDBRANCH   6   7
ENDBRANCH   1   6
BRANCH   4  23
ATOM     23  N5  NON d   1     -49.230  16.060  -2.846  0.00  0.00    -0.127 N 
ATOM     24  H16 NON d   1     -48.788  15.939  -1.943  0.00  0.00     0.206 HD
BRANCH  23  25
ATOM     25  N6  NON d   1     -50.457  15.894  -3.102  0.00  0.00    -0.290 N 
ATOM     26  C13 NON d   1     -51.456  16.305  -2.390  0.00  0.00     0.032 C 
ATOM     27  C14 NON d   1     -52.773  15.671  -2.810  0.00  0.00     0.070 C 
ATOM     28  H17 NON d   1     -50.623  15.349  -3.970  0.00  0.00     0.187 HD
BRANCH  26  29
ATOM     29  C15 NON d   1     -51.458  17.292  -1.242  0.00  0.00    -0.013 A 
ATOM     30  C16 NON d   1     -50.308  17.630  -0.513  0.00  0.00     0.013 A 
ATOM     31  C17 NON d   1     -50.368  18.524   0.566  0.00  0.00     0.001 A 
ATOM     32  C18 NON d   1     -51.564  19.148   0.897  0.00  0.00     0.000 A 
ATOM     33  C19 NON d   1     -52.702  18.883   0.146  0.00  0.00     0.001 A 
ATOM     34  C20 NON d   1     -52.652  17.962  -0.909  0.00  0.00     0.013 A 
ENDBRANCH  26  29
ENDBRANCH  23  25
ENDBRANCH   4  23
TORSDOF 10
ENDMDL
