MODEL 1
REMARK VINA RESULT:   -13.891      0.000      0.000
REMARK INTER + INTRA:         -17.607
REMARK INTER:                 -16.576
REMARK INTRA:                  -1.031
REMARK CONF_INDEPENDENT:        2.685
REMARK UNBOUND:                -1.031
REMARK  9 active torsions:
REMARK  status: ('A' for Active; 'I' for Inactive)
REMARK    1  A    between atoms: C2_2  and  C3_3 
REMARK    2  A    between atoms: C3_3  and  C4_4 
REMARK    3  A    between atoms: C4_4  and  C5_5 
REMARK    4  A    between atoms: C5_5  and  C6_6 
REMARK       I    between atoms: C6_6  and  N1_8 
REMARK    5  A    between atoms: N1_8  and  C7_9 
REMARK    6  A    between atoms: C11_13  and  N2_14 
REMARK    7  A    between atoms: N2_14  and  C12_15 
REMARK    8  A    between atoms: C12_15  and  C13_16 
REMARK       I    between atoms: C13_16  and  N3_18 
REMARK    9  A    between atoms: N3_18  and  C14_19 
ROOT
ATOM      1  N2  NON d   1     -40.309  18.066  -2.351  0.00  0.00    -0.381 N 
ATOM      2  H16 NON d   1     -40.576  17.917  -1.378  0.00  0.00     0.160 HD
ENDROOT
BRANCH   1   3
ATOM      3  C11 NON d   1     -41.372  18.271  -3.240  0.00  0.00     0.030 A 
ATOM      4  C10 NON d   1     -41.224  19.013  -4.417  0.00  0.00     0.029 A 
ATOM      5  C9  NON d   1     -42.270  19.142  -5.327  0.00  0.00     0.004 A 
ATOM      6  C8  NON d   1     -43.482  18.498  -5.102  0.00  0.00     0.029 A 
ATOM      7  C7  NON d   1     -43.667  17.702  -3.971  0.00  0.00     0.036 A 
ATOM      8  C24 NON d   1     -42.602  17.599  -3.046  0.00  0.00     0.058 A 
BRANCH   7   9
ATOM      9  N1  NON d   1     -44.881  17.006  -3.719  0.00  0.00    -0.327 N 
ATOM     10  C6  NON d   1     -45.921  16.807  -4.626  0.00  0.00     0.222 C 
ATOM     11  O1  NON d   1     -45.913  17.135  -5.810  0.00  0.00    -0.273 OA
ATOM     12  H12 NON d   1     -44.965  16.560  -2.815  0.00  0.00     0.169 HD
BRANCH  10  13
ATOM     13  C5  NON d   1     -47.131  16.100  -4.017  0.00  0.00     0.103 C 
BRANCH  13  14
ATOM     14  C4  NON d   1     -48.168  15.651  -5.065  0.00  0.00     0.009 C 
BRANCH  14  15
ATOM     15  C3  NON d   1     -49.419  15.005  -4.451  0.00  0.00     0.000 C 
BRANCH  15  16
ATOM     16  C2  NON d   1     -49.601  15.333  -2.962  0.00  0.00    -0.005 C 
ATOM     17  C1  NON d   1     -50.727  16.316  -2.681  0.00  0.00     0.005 C 
ENDBRANCH  15  16
ENDBRANCH  14  15
ENDBRANCH  13  14
ENDBRANCH  10  13
ENDBRANCH   7   9
ENDBRANCH   1   3
BRANCH   1  18
ATOM     18  C12 NON d   1     -39.074  18.858  -2.484  0.00  0.00     0.223 C 
BRANCH  18  19
ATOM     19  C13 NON d   1     -39.317  20.377  -2.339  0.00  0.00     0.239 C 
ATOM     20  O2  NON d   1     -38.967  21.172  -3.205  0.00  0.00    -0.271 OA
ATOM     21  N3  NON d   1     -39.917  20.694  -1.119  0.00  0.00    -0.326 N 
ATOM     22  H19 NON d   1     -40.095  19.926  -0.486  0.00  0.00     0.169 HD
BRANCH  21  23
ATOM     23  C14 NON d   1     -40.299  21.969  -0.638  0.00  0.00     0.035 A 
ATOM     24  C15 NON d   1     -40.680  22.925  -1.590  0.00  0.00     0.030 A 
ATOM     25  C16 NON d   1     -41.063  24.214  -1.204  0.00  0.00     0.014 A 
ATOM     26  C17 NON d   1     -41.069  24.585   0.147  0.00  0.00    -0.026 A 
ATOM     27  C18 NON d   1     -41.442  25.880   0.554  0.00  0.00     0.012 A 
ATOM     28  C22 NON d   1     -40.687  23.632   1.116  0.00  0.00    -0.024 A 
ATOM     29  C19 NON d   1     -41.438  26.232   1.905  0.00  0.00     0.001 A 
ATOM     30  C20 NON d   1     -41.062  25.296   2.862  0.00  0.00     0.001 A 
ATOM     31  C21 NON d   1     -40.691  24.006   2.470  0.00  0.00     0.012 A 
ATOM     32  C23 NON d   1     -40.309  22.333   0.709  0.00  0.00     0.042 A 
ENDBRANCH  21  23
ENDBRANCH  18  19
ENDBRANCH   1  18
TORSDOF 9
ENDMDL
MODEL 2
REMARK VINA RESULT:   -13.547      5.317      7.955
REMARK INTER + INTRA:         -17.256
REMARK INTER:                 -16.232
REMARK INTRA:                  -1.024
REMARK CONF_INDEPENDENT:        2.685
REMARK UNBOUND:                -1.024
REMARK  9 active torsions:
REMARK  status: ('A' for Active; 'I' for Inactive)
REMARK    1  A    between atoms: C2_2  and  C3_3 
REMARK    2  A    between atoms: C3_3  and  C4_4 
REMARK    3  A    between atoms: C4_4  and  C5_5 
REMARK    4  A    between atoms: C5_5  and  C6_6 
REMARK       I    between atoms: C6_6  and  N1_8 
REMARK    5  A    between atoms: N1_8  and  C7_9 
REMARK    6  A    between atoms: C11_13  and  N2_14 
REMARK    7  A    between atoms: N2_14  and  C12_15 
REMARK    8  A    between atoms: C12_15  and  C13_16 
REMARK       I    between atoms: C13_16  and  N3_18 
REMARK    9  A    between atoms: N3_18  and  C14_19 
ROOT
ATOM      1  N2  NON d   1     -41.942  19.957  -5.908  0.00  0.00    -0.381 N 
ATOM      2  H16 NON d   1     -42.599  20.266  -6.625  0.00  0.00     0.160 HD
ENDROOT
BRANCH   1   3
ATOM      3  C11 NON d   1     -42.390  18.907  -5.097  0.00  0.00     0.030 A 
ATOM      4  C10 NON d   1     -41.541  18.244  -4.203  0.00  0.00     0.029 A 
ATOM      5  C9  NON d   1     -42.020  17.254  -3.349  0.00  0.00     0.004 A 
ATOM      6  C8  NON d   1     -43.374  16.929  -3.338  0.00  0.00     0.029 A 
ATOM      7  C7  NON d   1     -44.274  17.596  -4.169  0.00  0.00     0.036 A 
ATOM      8  C24 NON d   1     -43.766  18.584  -5.047  0.00  0.00     0.058 A 
BRANCH   7   9
ATOM      9  N1  NON d   1     -45.667  17.312  -4.168  0.00  0.00    -0.327 N 
ATOM     10  C6  NON d   1     -46.335  16.456  -5.043  0.00  0.00     0.222 C 
ATOM     11  O1  NON d   1     -45.807  15.755  -5.902  0.00  0.00    -0.273 OA
ATOM     12  H12 NON d   1     -46.209  17.722  -3.418  0.00  0.00     0.169 HD
BRANCH  10  13
ATOM     13  C5  NON d   1     -47.849  16.440  -4.838  0.00  0.00     0.103 C 
BRANCH  13  14
ATOM     14  C4  NON d   1     -48.338  15.244  -3.998  0.00  0.00     0.009 C 
BRANCH  14  15
ATOM     15  C3  NON d   1     -49.692  15.490  -3.313  0.00  0.00     0.000 C 
BRANCH  15  16
ATOM     16  C2  NON d   1     -49.614  16.505  -2.165  0.00  0.00    -0.005 C 
ATOM     17  C1  NON d   1     -48.195  16.847  -1.740  0.00  0.00     0.005 C 
ENDBRANCH  15  16
ENDBRANCH  14  15
ENDBRANCH  13  14
ENDBRANCH  10  13
ENDBRANCH   7   9
ENDBRANCH   1   3
BRANCH   1  18
ATOM     18  C12 NON d   1     -40.544  19.985  -6.373  0.00  0.00     0.223 C 
BRANCH  18  19
ATOM     19  C13 NON d   1     -40.417  20.347  -7.869  0.00  0.00     0.239 C 
ATOM     20  O2  NON d   1     -40.559  19.506  -8.751  0.00  0.00    -0.271 OA
ATOM     21  N3  NON d   1     -40.083  21.689  -8.053  0.00  0.00    -0.326 N 
ATOM     22  H19 NON d   1     -39.946  22.244  -7.218  0.00  0.00     0.169 HD
BRANCH  21  23
ATOM     23  C14 NON d   1     -39.893  22.384  -9.272  0.00  0.00     0.035 A 
ATOM     24  C15 NON d   1     -40.297  23.724  -9.315  0.00  0.00     0.030 A 
ATOM     25  C16 NON d   1     -40.155  24.484 -10.483  0.00  0.00     0.014 A 
ATOM     26  C17 NON d   1     -39.610  23.918 -11.642  0.00  0.00    -0.026 A 
ATOM     27  C18 NON d   1     -39.468  24.663 -12.828  0.00  0.00     0.012 A 
ATOM     28  C22 NON d   1     -39.199  22.567 -11.613  0.00  0.00    -0.024 A 
ATOM     29  C19 NON d   1     -38.927  24.081 -13.976  0.00  0.00     0.001 A 
ATOM     30  C20 NON d   1     -38.521  22.751 -13.950  0.00  0.00     0.001 A 
ATOM     31  C21 NON d   1     -38.655  22.001 -12.777  0.00  0.00     0.012 A 
ATOM     32  C23 NON d   1     -39.344  21.818 -10.424  0.00  0.00     0.042 A 
ENDBRANCH  21  23
ENDBRANCH  18  19
ENDBRANCH   1  18
TORSDOF 9
ENDMDL
MODEL 3
REMARK VINA RESULT:   -13.471      4.506      7.650
REMARK INTER + INTRA:         -17.288
REMARK INTER:                 -16.156
REMARK INTRA:                  -1.132
REMARK CONF_INDEPENDENT:        2.685
REMARK UNBOUND:                -1.132
REMARK  9 active torsions:
REMARK  status: ('A' for Active; 'I' for Inactive)
REMARK    1  A    between atoms: C2_2  and  C3_3 
REMARK    2  A    between atoms: C3_3  and  C4_4 
REMARK    3  A    between atoms: C4_4  and  C5_5 
REMARK    4  A    between atoms: C5_5  and  C6_6 
REMARK       I    between atoms: C6_6  and  N1_8 
REMARK    5  A    between atoms: N1_8  and  C7_9 
REMARK    6  A    between atoms: C11_13  and  N2_14 
REMARK    7  A    between atoms: N2_14  and  C12_15 
REMARK    8  A    between atoms: C12_15  and  C13_16 
REMARK       I    between atoms: C13_16  and  N3_18 
REMARK    9  A    between atoms: N3_18  and  C14_19 
ROOT
ATOM      1  N2  NON d   1     -47.554  15.158  -4.572  0.00  0.00    -0.381 N 
ATOM      2  H16 NON d   1     -46.694  14.655  -4.349  0.00  0.00     0.160 HD
ENDROOT
BRANCH   1   3
ATOM      3  C11 NON d   1     -48.248  15.675  -3.470  0.00  0.00     0.030 A 
ATOM      4  C10 NON d   1     -47.591  16.313  -2.412  0.00  0.00     0.029 A 
ATOM      5  C9  NON d   1     -48.302  16.890  -1.362  0.00  0.00     0.004 A 
ATOM      6  C8  NON d   1     -49.693  16.879  -1.364  0.00  0.00     0.029 A 
ATOM      7  C7  NON d   1     -50.400  16.305  -2.421  0.00  0.00     0.036 A 
ATOM      8  C24 NON d   1     -49.662  15.704  -3.469  0.00  0.00     0.058 A 
BRANCH   7   9
ATOM      9  N1  NON d   1     -51.820  16.298  -2.473  0.00  0.00    -0.327 N 
ATOM     10  C6  NON d   1     -52.672  17.224  -1.875  0.00  0.00     0.222 C 
ATOM     11  O1  NON d   1     -52.322  18.237  -1.274  0.00  0.00    -0.273 OA
ATOM     12  H12 NON d   1     -52.245  15.587  -3.055  0.00  0.00     0.169 HD
BRANCH  10  13
ATOM     13  C5  NON d   1     -54.153  16.883  -2.039  0.00  0.00     0.103 C 
BRANCH  13  14
ATOM     14  C4  NON d   1     -55.083  18.100  -1.870  0.00  0.00     0.009 C 
BRANCH  14  15
ATOM     15  C3  NON d   1     -54.976  18.764  -0.488  0.00  0.00     0.000 C 
BRANCH  15  16
ATOM     16  C2  NON d   1     -54.631  20.258  -0.560  0.00  0.00    -0.005 C 
ATOM     17  C1  NON d   1     -53.367  20.636   0.197  0.00  0.00     0.005 C 
ENDBRANCH  15  16
ENDBRANCH  14  15
ENDBRANCH  13  14
ENDBRANCH  10  13
ENDBRANCH   7   9
ENDBRANCH   1   3
BRANCH   1  18
ATOM     18  C12 NON d   1     -47.443  15.947  -5.810  0.00  0.00     0.223 C 
BRANCH  18  19
ATOM     19  C13 NON d   1     -46.315  17.002  -5.750  0.00  0.00     0.239 C 
ATOM     20  O2  NON d   1     -46.315  17.989  -6.479  0.00  0.00    -0.271 OA
ATOM     21  N3  NON d   1     -45.326  16.654  -4.828  0.00  0.00    -0.326 N 
ATOM     22  H19 NON d   1     -45.446  15.775  -4.342  0.00  0.00     0.169 HD
BRANCH  21  23
ATOM     23  C14 NON d   1     -44.154  17.372  -4.492  0.00  0.00     0.035 A 
ATOM     24  C15 NON d   1     -43.997  18.644  -5.058  0.00  0.00     0.030 A 
ATOM     25  C16 NON d   1     -42.863  19.420  -4.789  0.00  0.00     0.014 A 
ATOM     26  C17 NON d   1     -41.851  18.940  -3.948  0.00  0.00    -0.026 A 
ATOM     27  C18 NON d   1     -40.700  19.701  -3.671  0.00  0.00     0.012 A 
ATOM     28  C22 NON d   1     -41.997  17.658  -3.371  0.00  0.00    -0.024 A 
ATOM     29  C19 NON d   1     -39.700  19.203  -2.835  0.00  0.00     0.001 A 
ATOM     30  C20 NON d   1     -39.839  17.942  -2.265  0.00  0.00     0.001 A 
ATOM     31  C21 NON d   1     -40.979  17.177  -2.530  0.00  0.00     0.012 A 
ATOM     32  C23 NON d   1     -43.150  16.892  -3.649  0.00  0.00     0.042 A 
ENDBRANCH  21  23
ENDBRANCH  18  19
ENDBRANCH   1  18
TORSDOF 9
ENDMDL
MODEL 4
REMARK VINA RESULT:   -13.219      1.483      2.218
REMARK INTER + INTRA:         -17.056
REMARK INTER:                 -15.904
REMARK INTRA:                  -1.152
REMARK CONF_INDEPENDENT:        2.685
REMARK UNBOUND:                -1.152
REMARK  9 active torsions:
REMARK  status: ('A' for Active; 'I' for Inactive)
REMARK    1  A    between atoms: C2_2  and  C3_3 
REMARK    2  A    between atoms: C3_3  and  C4_4 
REMARK    3  A    between atoms: C4_4  and  C5_5 
REMARK    4  A    between atoms: C5_5  and  C6_6 
REMARK       I    between atoms: C6_6  and  N1_8 
REMARK    5  A    between atoms: N1_8  and  C7_9 
REMARK    6  A    between atoms: C11_13  and  N2_14 
REMARK    7  A    between atoms: N2_14  and  C12_15 
REMARK    8  A    between atoms: C12_15  and  C13_16 
REMARK       I    between atoms: C13_16  and  N3_18 
REMARK    9  A    between atoms: N3_18  and  C14_19 
ROOT
ATOM      1  N2  NON d   1     -41.546  19.882  -5.884  0.00  0.00    -0.381 N 
ATOM      2  H16 NON d   1     -41.488  19.642  -6.874  0.00  0.00     0.160 HD
ENDROOT
BRANCH   1   3
ATOM      3  C11 NON d   1     -42.085  18.888  -5.056  0.00  0.00     0.030 A 
ATOM      4  C10 NON d   1     -41.315  18.227  -4.093  0.00  0.00     0.029 A 
ATOM      5  C9  NON d   1     -41.883  17.296  -3.227  0.00  0.00     0.004 A 
ATOM      6  C8  NON d   1     -43.248  17.032  -3.275  0.00  0.00     0.029 A 
ATOM      7  C7  NON d   1     -44.073  17.703  -4.179  0.00  0.00     0.036 A 
ATOM      8  C24 NON d   1     -43.475  18.629  -5.067  0.00  0.00     0.058 A 
BRANCH   7   9
ATOM      9  N1  NON d   1     -45.475  17.481  -4.241  0.00  0.00    -0.327 N 
ATOM     10  C6  NON d   1     -46.130  16.566  -5.065  0.00  0.00     0.222 C 
ATOM     11  O1  NON d   1     -45.586  15.755  -5.810  0.00  0.00    -0.273 OA
ATOM     12  H12 NON d   1     -46.041  17.991  -3.576  0.00  0.00     0.169 HD
BRANCH  10  13
ATOM     13  C5  NON d   1     -47.653  16.637  -4.961  0.00  0.00     0.103 C 
BRANCH  13  14
ATOM     14  C4  NON d   1     -48.283  15.368  -4.356  0.00  0.00     0.009 C 
BRANCH  14  15
ATOM     15  C3  NON d   1     -49.606  15.632  -3.621  0.00  0.00     0.000 C 
BRANCH  15  16
ATOM     16  C2  NON d   1     -49.410  16.148  -2.189  0.00  0.00    -0.005 C 
ATOM     17  C1  NON d   1     -48.095  16.881  -1.972  0.00  0.00     0.005 C 
ENDBRANCH  15  16
ENDBRANCH  14  15
ENDBRANCH  13  14
ENDBRANCH  10  13
ENDBRANCH   7   9
ENDBRANCH   1   3
BRANCH   1  18
ATOM     18  C12 NON d   1     -40.394  20.678  -5.427  0.00  0.00     0.223 C 
BRANCH  18  19
ATOM     19  C13 NON d   1     -40.757  21.662  -4.292  0.00  0.00     0.239 C 
ATOM     20  O2  NON d   1     -41.440  22.661  -4.498  0.00  0.00    -0.271 OA
ATOM     21  N3  NON d   1     -40.182  21.290  -3.077  0.00  0.00    -0.326 N 
ATOM     22  H19 NON d   1     -39.597  20.465  -3.083  0.00  0.00     0.169 HD
BRANCH  21  23
ATOM     23  C14 NON d   1     -40.296  21.935  -1.822  0.00  0.00     0.035 A 
ATOM     24  C15 NON d   1     -39.945  21.193  -0.687  0.00  0.00     0.030 A 
ATOM     25  C16 NON d   1     -40.037  21.748   0.595  0.00  0.00     0.014 A 
ATOM     26  C17 NON d   1     -40.491  23.061   0.776  0.00  0.00    -0.026 A 
ATOM     27  C18 NON d   1     -40.600  23.633   2.057  0.00  0.00     0.012 A 
ATOM     28  C22 NON d   1     -40.850  23.819  -0.360  0.00  0.00    -0.024 A 
ATOM     29  C19 NON d   1     -41.059  24.942   2.217  0.00  0.00     0.001 A 
ATOM     30  C20 NON d   1     -41.413  25.691   1.101  0.00  0.00     0.001 A 
ATOM     31  C21 NON d   1     -41.308  25.135  -0.177  0.00  0.00     0.012 A 
ATOM     32  C23 NON d   1     -40.744  23.245  -1.646  0.00  0.00     0.042 A 
ENDBRANCH  21  23
ENDBRANCH  18  19
ENDBRANCH   1  18
TORSDOF 9
ENDMDL
MODEL 5
REMARK VINA RESULT:   -13.166      5.510      8.402
REMARK INTER + INTRA:         -17.190
REMARK INTER:                 -15.850
REMARK INTRA:                  -1.340
REMARK CONF_INDEPENDENT:        2.685
REMARK UNBOUND:                -1.340
REMARK  9 active torsions:
REMARK  status: ('A' for Active; 'I' for Inactive)
REMARK    1  A    between atoms: C2_2  and  C3_3 
REMARK    2  A    between atoms: C3_3  and  C4_4 
REMARK    3  A    between atoms: C4_4  and  C5_5 
REMARK    4  A    between atoms: C5_5  and  C6_6 
REMARK       I    between atoms: C6_6  and  N1_8 
REMARK    5  A    between atoms: N1_8  and  C7_9 
REMARK    6  A    between atoms: C11_13  and  N2_14 
REMARK    7  A    between atoms: N2_14  and  C12_15 
REMARK    8  A    between atoms: C12_15  and  C13_16 
REMARK       I    between atoms: C13_16  and  N3_18 
REMARK    9  A    between atoms: N3_18  and  C14_19 
ROOT
ATOM      1  N2  NON d   1     -42.004  19.860  -6.226  0.00  0.00    -0.381 N 
ATOM      2  H16 NON d   1     -42.631  19.952  -7.027  0.00  0.00     0.160 HD
ENDROOT
BRANCH   1   3
ATOM      3  C11 NON d   1     -42.383  18.903  -5.277  0.00  0.00     0.030 A 
ATOM      4  C10 NON d   1     -41.475  18.377  -4.350  0.00  0.00     0.029 A 
ATOM      5  C9  NON d   1     -41.885  17.484  -3.363  0.00  0.00     0.004 A 
ATOM      6  C8  NON d   1     -43.225  17.123  -3.253  0.00  0.00     0.029 A 
ATOM      7  C7  NON d   1     -44.181  17.659  -4.116  0.00  0.00     0.036 A 
ATOM      8  C24 NON d   1     -43.744  18.548  -5.127  0.00  0.00     0.058 A 
BRANCH   7   9
ATOM      9  N1  NON d   1     -45.562  17.336  -4.018  0.00  0.00    -0.327 N 
ATOM     10  C6  NON d   1     -46.277  16.505  -4.878  0.00  0.00     0.222 C 
ATOM     11  O1  NON d   1     -45.804  15.860  -5.810  0.00  0.00    -0.273 OA
ATOM     12  H12 NON d   1     -46.051  17.695  -3.209  0.00  0.00     0.169 HD
BRANCH  10  13
ATOM     13  C5  NON d   1     -47.769  16.437  -4.555  0.00  0.00     0.103 C 
BRANCH  13  14
ATOM     14  C4  NON d   1     -48.207  15.078  -3.975  0.00  0.00     0.009 C 
BRANCH  14  15
ATOM     15  C3  NON d   1     -49.730  14.941  -3.816  0.00  0.00     0.000 C 
BRANCH  15  16
ATOM     16  C2  NON d   1     -50.325  15.936  -2.809  0.00  0.00    -0.005 C 
ATOM     17  C1  NON d   1     -49.308  16.504  -1.831  0.00  0.00     0.005 C 
ENDBRANCH  15  16
ENDBRANCH  14  15
ENDBRANCH  13  14
ENDBRANCH  10  13
ENDBRANCH   7   9
ENDBRANCH   1   3
BRANCH   1  18
ATOM     18  C12 NON d   1     -40.587  20.011  -6.597  0.00  0.00     0.223 C 
BRANCH  18  19
ATOM     19  C13 NON d   1     -40.385  20.254  -8.110  0.00  0.00     0.239 C 
ATOM     20  O2  NON d   1     -41.280  20.043  -8.922  0.00  0.00    -0.271 OA
ATOM     21  N3  NON d   1     -39.087  20.677  -8.400  0.00  0.00    -0.326 N 
ATOM     22  H19 NON d   1     -38.447  20.751  -7.620  0.00  0.00     0.169 HD
BRANCH  21  23
ATOM     23  C14 NON d   1     -38.537  21.006  -9.662  0.00  0.00     0.035 A 
ATOM     24  C15 NON d   1     -37.237  20.557  -9.930  0.00  0.00     0.030 A 
ATOM     25  C16 NON d   1     -36.612  20.845 -11.149  0.00  0.00     0.014 A 
ATOM     26  C17 NON d   1     -37.269  21.597 -12.131  0.00  0.00    -0.026 A 
ATOM     27  C18 NON d   1     -36.653  21.905 -13.358  0.00  0.00     0.012 A 
ATOM     28  C22 NON d   1     -38.579  22.057 -11.872  0.00  0.00    -0.024 A 
ATOM     29  C19 NON d   1     -37.322  22.661 -14.323  0.00  0.00     0.001 A 
ATOM     30  C20 NON d   1     -38.612  23.115 -14.072  0.00  0.00     0.001 A 
ATOM     31  C21 NON d   1     -39.236  22.814 -12.857  0.00  0.00     0.012 A 
ATOM     32  C23 NON d   1     -39.197  21.752 -10.640  0.00  0.00     0.042 A 
ENDBRANCH  21  23
ENDBRANCH  18  19
ENDBRANCH   1  18
TORSDOF 9
ENDMDL
MODEL 6
REMARK VINA RESULT:   -12.337      4.327      6.621
REMARK INTER + INTRA:         -16.173
REMARK INTER:                 -15.022
REMARK INTRA:                  -1.151
REMARK CONF_INDEPENDENT:        2.685
REMARK UNBOUND:                -1.151
REMARK  9 active torsions:
REMARK  status: ('A' for Active; 'I' for Inactive)
REMARK    1  A    between atoms: C2_2  and  C3_3 
REMARK    2  A    between atoms: C3_3  and  C4_4 
REMARK    3  A    between atoms: C4_4  and  C5_5 
REMARK    4  A    between atoms: C5_5  and  C6_6 
REMARK       I    between atoms: C6_6  and  N1_8 
REMARK    5  A    between atoms: N1_8  and  C7_9 
REMARK    6  A    between atoms: C11_13  and  N2_14 
REMARK    7  A    between atoms: N2_14  and  C12_15 
REMARK    8  A    between atoms: C12_15  and  C13_16 
REMARK       I    between atoms: C13_16  and  N3_18 
REMARK    9  A    between atoms: N3_18  and  C14_19 
ROOT
ATOM      1  N2  NON d   1     -40.795  17.483  -3.566  0.00  0.00    -0.381 N 
ATOM      2  H16 NON d   1     -40.795  16.594  -3.065  0.00  0.00     0.160 HD
ENDROOT
BRANCH   1   3
ATOM      3  C11 NON d   1     -42.050  17.918  -4.014  0.00  0.00     0.030 A 
ATOM      4  C10 NON d   1     -42.188  18.955  -4.943  0.00  0.00     0.029 A 
ATOM      5  C9  NON d   1     -43.437  19.323  -5.435  0.00  0.00     0.004 A 
ATOM      6  C8  NON d   1     -44.580  18.634  -5.041  0.00  0.00     0.029 A 
ATOM      7  C7  NON d   1     -44.494  17.557  -4.159  0.00  0.00     0.036 A 
ATOM      8  C24 NON d   1     -43.220  17.210  -3.651  0.00  0.00     0.058 A 
BRANCH   7   9
ATOM      9  N1  NON d   1     -45.634  16.811  -3.754  0.00  0.00    -0.327 N 
ATOM     10  C6  NON d   1     -46.517  16.132  -4.593  0.00  0.00     0.222 C 
ATOM     11  O1  NON d   1     -46.398  16.009  -5.809  0.00  0.00    -0.273 OA
ATOM     12  H12 NON d   1     -45.777  16.714  -2.757  0.00  0.00     0.169 HD
BRANCH  10  13
ATOM     13  C5  NON d   1     -47.697  15.505  -3.853  0.00  0.00     0.103 C 
BRANCH  13  14
ATOM     14  C4  NON d   1     -48.598  16.541  -3.152  0.00  0.00     0.009 C 
BRANCH  14  15
ATOM     15  C3  NON d   1     -49.692  15.909  -2.277  0.00  0.00     0.000 C 
BRANCH  15  16
ATOM     16  C2  NON d   1     -51.110  16.158  -2.809  0.00  0.00    -0.005 C 
ATOM     17  C1  NON d   1     -51.867  17.245  -2.060  0.00  0.00     0.005 C 
ENDBRANCH  15  16
ENDBRANCH  14  15
ENDBRANCH  13  14
ENDBRANCH  10  13
ENDBRANCH   7   9
ENDBRANCH   1   3
BRANCH   1  18
ATOM     18  C12 NON d   1     -39.838  18.450  -3.003  0.00  0.00     0.223 C 
BRANCH  18  19
ATOM     19  C13 NON d   1     -39.078  19.244  -4.089  0.00  0.00     0.239 C 
ATOM     20  O2  NON d   1     -38.373  20.208  -3.808  0.00  0.00    -0.271 OA
ATOM     21  N3  NON d   1     -39.340  18.755  -5.369  0.00  0.00    -0.326 N 
ATOM     22  H19 NON d   1     -39.990  17.983  -5.438  0.00  0.00     0.169 HD
BRANCH  21  23
ATOM     23  C14 NON d   1     -38.822  19.216  -6.603  0.00  0.00     0.035 A 
ATOM     24  C15 NON d   1     -37.550  18.758  -6.974  0.00  0.00     0.030 A 
ATOM     25  C16 NON d   1     -36.957  19.170  -8.173  0.00  0.00     0.014 A 
ATOM     26  C17 NON d   1     -37.618  20.057  -9.032  0.00  0.00    -0.026 A 
ATOM     27  C18 NON d   1     -37.034  20.490 -10.237  0.00  0.00     0.012 A 
ATOM     28  C22 NON d   1     -38.900  20.527  -8.669  0.00  0.00    -0.024 A 
ATOM     29  C19 NON d   1     -37.706  21.379 -11.077  0.00  0.00     0.001 A 
ATOM     30  C20 NON d   1     -38.969  21.843 -10.723  0.00  0.00     0.001 A 
ATOM     31  C21 NON d   1     -39.561  21.419  -9.530  0.00  0.00     0.012 A 
ATOM     32  C23 NON d   1     -39.486  20.096  -7.459  0.00  0.00     0.042 A 
ENDBRANCH  21  23
ENDBRANCH  18  19
ENDBRANCH   1  18
TORSDOF 9
ENDMDL
MODEL 7
REMARK VINA RESULT:   -12.301      1.640      2.382
REMARK INTER + INTRA:         -15.987
REMARK INTER:                 -14.986
REMARK INTRA:                  -1.002
REMARK CONF_INDEPENDENT:        2.685
REMARK UNBOUND:                -1.002
REMARK  9 active torsions:
REMARK  status: ('A' for Active; 'I' for Inactive)
REMARK    1  A    between atoms: C2_2  and  C3_3 
REMARK    2  A    between atoms: C3_3  and  C4_4 
REMARK    3  A    between atoms: C4_4  and  C5_5 
REMARK    4  A    between atoms: C5_5  and  C6_6 
REMARK       I    between atoms: C6_6  and  N1_8 
REMARK    5  A    between atoms: N1_8  and  C7_9 
REMARK    6  A    between atoms: C11_13  and  N2_14 
REMARK    7  A    between atoms: N2_14  and  C12_15 
REMARK    8  A    between atoms: C12_15  and  C13_16 
REMARK       I    between atoms: C13_16  and  N3_18 
REMARK    9  A    between atoms: N3_18  and  C14_19 
ROOT
ATOM      1  N2  NON d   1     -42.078  19.832  -6.186  0.00  0.00    -0.381 N 
ATOM      2  H16 NON d   1     -42.548  19.745  -7.088  0.00  0.00     0.160 HD
ENDROOT
BRANCH   1   3
ATOM      3  C11 NON d   1     -42.405  18.850  -5.242  0.00  0.00     0.030 A 
ATOM      4  C10 NON d   1     -41.449  18.299  -4.382  0.00  0.00     0.029 A 
ATOM      5  C9  NON d   1     -41.806  17.380  -3.398  0.00  0.00     0.004 A 
ATOM      6  C8  NON d   1     -43.138  17.019  -3.222  0.00  0.00     0.029 A 
ATOM      7  C7  NON d   1     -44.140  17.580  -4.016  0.00  0.00     0.036 A 
ATOM      8  C24 NON d   1     -43.757  18.494  -5.026  0.00  0.00     0.058 A 
BRANCH   7   9
ATOM      9  N1  NON d   1     -45.514  17.257  -3.849  0.00  0.00    -0.327 N 
ATOM     10  C6  NON d   1     -46.315  16.567  -4.758  0.00  0.00     0.222 C 
ATOM     11  O1  NON d   1     -45.934  16.063  -5.811  0.00  0.00    -0.273 OA
ATOM     12  H12 NON d   1     -45.927  17.497  -2.957  0.00  0.00     0.169 HD
BRANCH  10  13
ATOM     13  C5  NON d   1     -47.776  16.464  -4.322  0.00  0.00     0.103 C 
BRANCH  13  14
ATOM     14  C4  NON d   1     -48.278  15.012  -4.208  0.00  0.00     0.009 C 
BRANCH  14  15
ATOM     15  C3  NON d   1     -49.671  14.893  -3.570  0.00  0.00     0.000 C 
BRANCH  15  16
ATOM     16  C2  NON d   1     -50.137  16.189  -2.891  0.00  0.00    -0.005 C 
ATOM     17  C1  NON d   1     -49.394  16.512  -1.604  0.00  0.00     0.005 C 
ENDBRANCH  15  16
ENDBRANCH  14  15
ENDBRANCH  13  14
ENDBRANCH  10  13
ENDBRANCH   7   9
ENDBRANCH   1   3
BRANCH   1  18
ATOM     18  C12 NON d   1     -40.685  20.293  -6.317  0.00  0.00     0.223 C 
BRANCH  18  19
ATOM     19  C13 NON d   1     -40.067  20.727  -4.969  0.00  0.00     0.239 C 
ATOM     20  O2  NON d   1     -38.983  20.298  -4.589  0.00  0.00    -0.271 OA
ATOM     21  N3  NON d   1     -40.907  21.592  -4.266  0.00  0.00    -0.326 N 
ATOM     22  H19 NON d   1     -41.798  21.809  -4.693  0.00  0.00     0.169 HD
BRANCH  21  23
ATOM     23  C14 NON d   1     -40.679  22.202  -3.009  0.00  0.00     0.035 A 
ATOM     24  C15 NON d   1     -41.284  23.445  -2.782  0.00  0.00     0.030 A 
ATOM     25  C16 NON d   1     -41.104  24.124  -1.571  0.00  0.00     0.014 A 
ATOM     26  C17 NON d   1     -40.308  23.579  -0.556  0.00  0.00    -0.026 A 
ATOM     27  C18 NON d   1     -40.108  24.251   0.665  0.00  0.00     0.012 A 
ATOM     28  C22 NON d   1     -39.692  22.327  -0.773  0.00  0.00    -0.024 A 
ATOM     29  C19 NON d   1     -39.307  23.693   1.663  0.00  0.00     0.001 A 
ATOM     30  C20 NON d   1     -38.699  22.461   1.453  0.00  0.00     0.001 A 
ATOM     31  C21 NON d   1     -38.891  21.782   0.245  0.00  0.00     0.012 A 
ATOM     32  C23 NON d   1     -39.889  21.653  -1.998  0.00  0.00     0.042 A 
ENDBRANCH  21  23
ENDBRANCH  18  19
ENDBRANCH   1  18
TORSDOF 9
ENDMDL
MODEL 8
REMARK VINA RESULT:   -11.908      1.949      2.907
REMARK INTER + INTRA:         -15.855
REMARK INTER:                 -14.592
REMARK INTRA:                  -1.263
REMARK CONF_INDEPENDENT:        2.685
REMARK UNBOUND:                -1.263
REMARK  9 active torsions:
REMARK  status: ('A' for Active; 'I' for Inactive)
REMARK    1  A    between atoms: C2_2  and  C3_3 
REMARK    2  A    between atoms: C3_3  and  C4_4 
REMARK    3  A    between atoms: C4_4  and  C5_5 
REMARK    4  A    between atoms: C5_5  and  C6_6 
REMARK       I    between atoms: C6_6  and  N1_8 
REMARK    5  A    between atoms: N1_8  and  C7_9 
REMARK    6  A    between atoms: C11_13  and  N2_14 
REMARK    7  A    between atoms: N2_14  and  C12_15 
REMARK    8  A    between atoms: C12_15  and  C13_16 
REMARK       I    between atoms: C13_16  and  N3_18 
REMARK    9  A    between atoms: N3_18  and  C14_19 
ROOT
ATOM      1  N2  NON d   1     -41.677  19.713  -6.212  0.00  0.00    -0.381 N 
ATOM      2  H16 NON d   1     -42.106  19.646  -7.136  0.00  0.00     0.160 HD
ENDROOT
BRANCH   1   3
ATOM      3  C11 NON d   1     -42.190  18.835  -5.248  0.00  0.00     0.030 A 
ATOM      4  C10 NON d   1     -41.402  18.335  -4.205  0.00  0.00     0.029 A 
ATOM      5  C9  NON d   1     -41.946  17.524  -3.212  0.00  0.00     0.004 A 
ATOM      6  C8  NON d   1     -43.306  17.226  -3.214  0.00  0.00     0.029 A 
ATOM      7  C7  NON d   1     -44.148  17.743  -4.199  0.00  0.00     0.036 A 
ATOM      8  C24 NON d   1     -43.574  18.547  -5.213  0.00  0.00     0.058 A 
BRANCH   7   9
ATOM      9  N1  NON d   1     -45.545  17.484  -4.220  0.00  0.00    -0.327 N 
ATOM     10  C6  NON d   1     -46.201  16.564  -5.036  0.00  0.00     0.222 C 
ATOM     11  O1  NON d   1     -45.660  15.778  -5.810  0.00  0.00    -0.273 OA
ATOM     12  H12 NON d   1     -46.103  17.970  -3.529  0.00  0.00     0.169 HD
BRANCH  10  13
ATOM     13  C5  NON d   1     -47.722  16.592  -4.883  0.00  0.00     0.103 C 
BRANCH  13  14
ATOM     14  C4  NON d   1     -48.184  16.852  -3.436  0.00  0.00     0.009 C 
BRANCH  14  15
ATOM     15  C3  NON d   1     -49.652  16.472  -3.185  0.00  0.00     0.000 C 
BRANCH  15  16
ATOM     16  C2  NON d   1     -49.873  14.958  -3.068  0.00  0.00    -0.005 C 
ATOM     17  C1  NON d   1     -50.063  14.257  -4.405  0.00  0.00     0.005 C 
ENDBRANCH  15  16
ENDBRANCH  14  15
ENDBRANCH  13  14
ENDBRANCH  10  13
ENDBRANCH   7   9
ENDBRANCH   1   3
BRANCH   1  18
ATOM     18  C12 NON d   1     -40.228  19.970  -6.278  0.00  0.00     0.223 C 
BRANCH  18  19
ATOM     19  C13 NON d   1     -39.761  21.037  -5.263  0.00  0.00     0.239 C 
ATOM     20  O2  NON d   1     -38.571  21.231  -5.033  0.00  0.00    -0.271 OA
ATOM     21  N3  NON d   1     -40.837  21.676  -4.647  0.00  0.00    -0.326 N 
ATOM     22  H19 NON d   1     -41.763  21.363  -4.908  0.00  0.00     0.169 HD
BRANCH  21  23
ATOM     23  C14 NON d   1     -40.804  22.707  -3.678  0.00  0.00     0.035 A 
ATOM     24  C15 NON d   1     -40.456  22.346  -2.370  0.00  0.00     0.030 A 
ATOM     25  C16 NON d   1     -40.408  23.300  -1.347  0.00  0.00     0.014 A 
ATOM     26  C17 NON d   1     -40.713  24.643  -1.605  0.00  0.00    -0.026 A 
ATOM     27  C18 NON d   1     -40.679  25.615  -0.588  0.00  0.00     0.012 A 
ATOM     28  C22 NON d   1     -41.066  25.020  -2.919  0.00  0.00    -0.024 A 
ATOM     29  C19 NON d   1     -40.991  26.947  -0.863  0.00  0.00     0.001 A 
ATOM     30  C20 NON d   1     -41.339  27.322  -2.156  0.00  0.00     0.001 A 
ATOM     31  C21 NON d   1     -41.375  26.366  -3.176  0.00  0.00     0.012 A 
ATOM     32  C23 NON d   1     -41.104  24.045  -3.941  0.00  0.00     0.042 A 
ENDBRANCH  21  23
ENDBRANCH  18  19
ENDBRANCH   1  18
TORSDOF 9
ENDMDL
MODEL 9
REMARK VINA RESULT:   -11.860      1.792      2.452
REMARK INTER + INTRA:         -15.581
REMARK INTER:                 -14.545
REMARK INTRA:                  -1.036
REMARK CONF_INDEPENDENT:        2.685
REMARK UNBOUND:                -1.036
REMARK  9 active torsions:
REMARK  status: ('A' for Active; 'I' for Inactive)
REMARK    1  A    between atoms: C2_2  and  C3_3 
REMARK    2  A    between atoms: C3_3  and  C4_4 
REMARK    3  A    between atoms: C4_4  and  C5_5 
REMARK    4  A    between atoms: C5_5  and  C6_6 
REMARK       I    between atoms: C6_6  and  N1_8 
REMARK    5  A    between atoms: N1_8  and  C7_9 
REMARK    6  A    between atoms: C11_13  and  N2_14 
REMARK    7  A    between atoms: N2_14  and  C12_15 
REMARK    8  A    between atoms: C12_15  and  C13_16 
REMARK       I    between atoms: C13_16  and  N3_18 
REMARK    9  A    between atoms: N3_18  and  C14_19 
ROOT
ATOM      1  N2  NON d   1     -40.309  17.614  -3.447  0.00  0.00    -0.381 N 
ATOM      2  H16 NON d   1     -40.096  16.627  -3.590  0.00  0.00     0.160 HD
ENDROOT
BRANCH   1   3
ATOM      3  C11 NON d   1     -41.552  18.036  -3.936  0.00  0.00     0.030 A 
ATOM      4  C10 NON d   1     -41.681  19.145  -4.780  0.00  0.00     0.029 A 
ATOM      5  C9  NON d   1     -42.914  19.504  -5.319  0.00  0.00     0.004 A 
ATOM      6  C8  NON d   1     -44.046  18.737  -5.060  0.00  0.00     0.029 A 
ATOM      7  C7  NON d   1     -43.964  17.590  -4.270  0.00  0.00     0.036 A 
ATOM      8  C24 NON d   1     -42.709  17.252  -3.712  0.00  0.00     0.058 A 
BRANCH   7   9
ATOM      9  N1  NON d   1     -45.092  16.767  -4.005  0.00  0.00    -0.327 N 
ATOM     10  C6  NON d   1     -46.214  16.617  -4.819  0.00  0.00     0.222 C 
ATOM     11  O1  NON d   1     -46.364  17.115  -5.931  0.00  0.00    -0.273 OA
ATOM     12  H12 NON d   1     -45.041  16.187  -3.177  0.00  0.00     0.169 HD
BRANCH  10  13
ATOM     13  C5  NON d   1     -47.295  15.729  -4.204  0.00  0.00     0.103 C 
BRANCH  13  14
ATOM     14  C4  NON d   1     -47.728  16.181  -2.796  0.00  0.00     0.009 C 
BRANCH  14  15
ATOM     15  C3  NON d   1     -49.106  16.861  -2.768  0.00  0.00     0.000 C 
BRANCH  15  16
ATOM     16  C2  NON d   1     -50.271  15.864  -2.693  0.00  0.00    -0.005 C 
ATOM     17  C1  NON d   1     -50.083  14.630  -3.562  0.00  0.00     0.005 C 
ENDBRANCH  15  16
ENDBRANCH  14  15
ENDBRANCH  13  14
ENDBRANCH  10  13
ENDBRANCH   7   9
ENDBRANCH   1   3
BRANCH   1  18
ATOM     18  C12 NON d   1     -39.817  18.117  -2.153  0.00  0.00     0.223 C 
BRANCH  18  19
ATOM     19  C13 NON d   1     -40.222  19.584  -1.886  0.00  0.00     0.239 C 
ATOM     20  O2  NON d   1     -40.690  19.938  -0.809  0.00  0.00    -0.271 OA
ATOM     21  N3  NON d   1     -40.032  20.389  -3.010  0.00  0.00    -0.326 N 
ATOM     22  H19 NON d   1     -39.687  19.932  -3.844  0.00  0.00     0.169 HD
BRANCH  21  23
ATOM     23  C14 NON d   1     -40.278  21.776  -3.143  0.00  0.00     0.035 A 
ATOM     24  C15 NON d   1     -40.407  22.282  -4.444  0.00  0.00     0.030 A 
ATOM     25  C16 NON d   1     -40.641  23.643  -4.668  0.00  0.00     0.014 A 
ATOM     26  C17 NON d   1     -40.746  24.538  -3.596  0.00  0.00    -0.026 A 
ATOM     27  C18 NON d   1     -40.972  25.912  -3.802  0.00  0.00     0.012 A 
ATOM     28  C22 NON d   1     -40.617  24.042  -2.280  0.00  0.00    -0.024 A 
ATOM     29  C19 NON d   1     -41.069  26.790  -2.721  0.00  0.00     0.001 A 
ATOM     30  C20 NON d   1     -40.942  26.304  -1.424  0.00  0.00     0.001 A 
ATOM     31  C21 NON d   1     -40.720  24.941  -1.206  0.00  0.00     0.012 A 
ATOM     32  C23 NON d   1     -40.387  22.664  -2.072  0.00  0.00     0.042 A 
ENDBRANCH  21  23
ENDBRANCH  18  19
ENDBRANCH   1  18
TORSDOF 9
ENDMDL
