MODEL 1
REMARK VINA RESULT:   -28.560      0.000      0.000
REMARK INTER + INTRA:         -31.221
REMARK INTER:                 -30.349
REMARK INTRA:                  -0.872
REMARK CONF_INDEPENDENT:        1.790
REMARK UNBOUND:                -0.872
REMARK  6 active torsions:
REMARK  status: ('A' for Active; 'I' for Inactive)
REMARK    1  A    between atoms: C2_3  and  C14_19 
REMARK    2  A    between atoms: C3_4  and  C4_5 
REMARK    3  A    between atoms: C7_8  and  C8_9 
REMARK    4  A    between atoms: C11_12  and  N2_13 
REMARK       I    between atoms: C14_19  and  N3_21 
REMARK    5  A    between atoms: N3_21  and  C15_22 
REMARK    6  A    between atoms: C17_24  and  C18_25 
ROOT
ATOM      1  N1  NON d   1     -47.065  16.505  -6.185  0.00  0.00    -0.191 NA
ATOM      2  C1  NON d   1     -46.639  16.732  -5.127  0.00  0.00     0.105 C 
ATOM      3  C2  NON d   1     -46.145  17.014  -3.823  0.00  0.00     0.115 C 
ATOM      4  C3  NON d   1     -46.863  16.946  -2.681  0.00  0.00     0.065 C 
ENDROOT
BRANCH   3   5
ATOM      5  C14 NON d   1     -44.666  17.216  -3.777  0.00  0.00     0.266 C 
ATOM      6  O4  NON d   1     -43.952  16.276  -3.434  0.00  0.00    -0.267 OA
ATOM      7  N3  NON d   1     -44.193  18.470  -4.121  0.00  0.00    -0.321 N 
ATOM      8  H8  NON d   1     -44.781  19.273  -3.942  0.00  0.00     0.169 HD
BRANCH   7   9
ATOM      9  C15 NON d   1     -42.834  18.710  -4.495  0.00  0.00     0.057 A 
ATOM     10  C16 NON d   1     -42.576  19.146  -5.809  0.00  0.00     0.047 A 
ATOM     11  C17 NON d   1     -41.254  19.393  -6.291  0.00  0.00     0.050 A 
ATOM     12  C19 NON d   1     -40.192  19.210  -5.394  0.00  0.00     0.018 A 
ATOM     13  C20 NON d   1     -40.428  18.734  -4.101  0.00  0.00     0.027 A 
ATOM     14  C21 NON d   1     -41.730  18.467  -3.655  0.00  0.00     0.060 A 
ATOM     15 Cl1  NON d   1     -41.855  17.635  -2.140  0.00  0.00    -0.082 Cl
BRANCH  11  16
ATOM     16  C18 NON d   1     -40.966  19.879  -7.723  0.00  0.00     0.417 C 
ATOM     17  F1  NON d   1     -40.678  20.366  -9.155  0.00  0.00    -0.166 F 
ATOM     18  F2  NON d   1     -40.239  21.025  -7.263  0.00  0.00    -0.166 F 
ATOM     19  F3  NON d   1     -39.918  18.925  -7.942  0.00  0.00    -0.166 F 
ENDBRANCH  11  16
ENDBRANCH   7   9
ENDBRANCH   3   5
BRANCH   4  20
ATOM     20  C4  NON d   1     -48.224  16.485  -2.577  0.00  0.00     0.077 A 
ATOM     21  C5  NON d   1     -48.782  15.229  -2.807  0.00  0.00     0.040 A 
ATOM     22  C6  NON d   1     -50.149  15.268  -2.468  0.00  0.00     0.041 A 
ATOM     23  C7  NON d   1     -50.410  16.540  -2.016  0.00  0.00     0.086 A 
ATOM     24  O3  NON d   1     -49.256  17.284  -2.085  0.00  0.00    -0.310 OA
BRANCH  23  25
ATOM     25  C8  NON d   1     -51.630  17.162  -1.482  0.00  0.00    -0.002 A 
ATOM     26  C9  NON d   1     -51.538  18.020  -0.367  0.00  0.00     0.017 A 
ATOM     27  C10 NON d   1     -52.663  18.651   0.176  0.00  0.00     0.037 A 
ATOM     28  C11 NON d   1     -53.916  18.428  -0.400  0.00  0.00     0.102 A 
ATOM     29  C12 NON d   1     -54.039  17.581  -1.507  0.00  0.00     0.037 A 
ATOM     30  C13 NON d   1     -52.899  16.952  -2.042  0.00  0.00     0.017 A 
BRANCH  28  31
ATOM     31  N2  NON d   1     -55.099  19.096   0.162  0.00  0.00    -0.116 N 
ATOM     32  O1  NON d   1     -56.026  18.379   0.567  0.00  0.00    -0.532 OA
ATOM     33  O2  NON d   1     -55.102  20.334   0.196  0.00  0.00    -0.532 OA
ENDBRANCH  28  31
ENDBRANCH  23  25
ENDBRANCH   4  20
TORSDOF 6
ENDMDL
MODEL 2
REMARK VINA RESULT:   -26.327      2.269      2.777
REMARK INTER + INTRA:         -29.127
REMARK INTER:                 -28.116
REMARK INTRA:                  -1.011
REMARK CONF_INDEPENDENT:        1.790
REMARK UNBOUND:                -1.011
REMARK  6 active torsions:
REMARK  status: ('A' for Active; 'I' for Inactive)
REMARK    1  A    between atoms: C2_3  and  C14_19 
REMARK    2  A    between atoms: C3_4  and  C4_5 
REMARK    3  A    between atoms: C7_8  and  C8_9 
REMARK    4  A    between atoms: C11_12  and  N2_13 
REMARK       I    between atoms: C14_19  and  N3_21 
REMARK    5  A    between atoms: N3_21  and  C15_22 
REMARK    6  A    between atoms: C17_24  and  C18_25 
ROOT
ATOM      1  N1  NON d   1     -47.065  16.505  -6.185  0.00  0.00    -0.191 NA
ATOM      2  C1  NON d   1     -46.707  16.687  -5.094  0.00  0.00     0.105 C 
ATOM      3  C2  NON d   1     -46.295  16.917  -3.752  0.00  0.00     0.115 C 
ATOM      4  C3  NON d   1     -47.099  16.867  -2.667  0.00  0.00     0.065 C 
ENDROOT
BRANCH   3   5
ATOM      5  C14 NON d   1     -44.815  17.035  -3.593  0.00  0.00     0.266 C 
ATOM      6  O4  NON d   1     -44.199  16.098  -3.091  0.00  0.00    -0.267 OA
ATOM      7  N3  NON d   1     -44.231  18.213  -4.022  0.00  0.00    -0.321 N 
ATOM      8  H8  NON d   1     -44.775  19.065  -3.981  0.00  0.00     0.169 HD
BRANCH   7   9
ATOM      9  C15 NON d   1     -42.832  18.330  -4.294  0.00  0.00     0.057 A 
ATOM     10  C16 NON d   1     -41.927  17.848  -3.328  0.00  0.00     0.047 A 
ATOM     11  C17 NON d   1     -40.511  17.936  -3.491  0.00  0.00     0.050 A 
ATOM     12  C19 NON d   1     -40.029  18.505  -4.678  0.00  0.00     0.018 A 
ATOM     13  C20 NON d   1     -40.912  19.029  -5.626  0.00  0.00     0.027 A 
ATOM     14  C21 NON d   1     -42.300  18.962  -5.435  0.00  0.00     0.060 A 
ATOM     15 Cl1  NON d   1     -43.262  19.880  -6.546  0.00  0.00    -0.082 Cl
BRANCH  11  16
ATOM     16  C18 NON d   1     -39.516  17.403  -2.443  0.00  0.00     0.417 C 
ATOM     17  F1  NON d   1     -38.521  16.870  -1.396  0.00  0.00    -0.166 F 
ATOM     18  F2  NON d   1     -39.101  18.721  -2.065  0.00  0.00    -0.166 F 
ATOM     19  F3  NON d   1     -40.536  17.120  -1.475  0.00  0.00    -0.166 F 
ENDBRANCH  11  16
ENDBRANCH   7   9
ENDBRANCH   3   5
BRANCH   4  20
ATOM     20  C4  NON d   1     -48.487  16.481  -2.672  0.00  0.00     0.077 A 
ATOM     21  C5  NON d   1     -49.107  15.315  -3.116  0.00  0.00     0.040 A 
ATOM     22  C6  NON d   1     -50.481  15.384  -2.809  0.00  0.00     0.041 A 
ATOM     23  C7  NON d   1     -50.685  16.582  -2.165  0.00  0.00     0.086 A 
ATOM     24  O3  NON d   1     -49.488  17.254  -2.084  0.00  0.00    -0.310 OA
BRANCH  23  25
ATOM     25  C8  NON d   1     -51.884  17.184  -1.568  0.00  0.00    -0.002 A 
ATOM     26  C9  NON d   1     -51.746  18.067  -0.478  0.00  0.00     0.017 A 
ATOM     27  C10 NON d   1     -52.851  18.682   0.122  0.00  0.00     0.037 A 
ATOM     28  C11 NON d   1     -54.130  18.417  -0.371  0.00  0.00     0.102 A 
ATOM     29  C12 NON d   1     -54.300  17.544  -1.451  0.00  0.00     0.037 A 
ATOM     30  C13 NON d   1     -53.180  16.933  -2.044  0.00  0.00     0.017 A 
BRANCH  28  31
ATOM     31  N2  NON d   1     -55.294  19.068   0.250  0.00  0.00    -0.116 N 
ATOM     32  O1  NON d   1     -56.210  18.340   0.658  0.00  0.00    -0.532 OA
ATOM     33  O2  NON d   1     -55.291  20.304   0.328  0.00  0.00    -0.532 OA
ENDBRANCH  28  31
ENDBRANCH  23  25
ENDBRANCH   4  20
TORSDOF 6
ENDMDL
