MODEL 1
REMARK VINA RESULT:    -7.087      0.000      0.000
REMARK INTER + INTRA:          -8.331
REMARK INTER:                  -7.684
REMARK INTRA:                  -0.647
REMARK CONF_INDEPENDENT:        0.597
REMARK UNBOUND:                -0.647
REMARK  2 active torsions:
REMARK  status: ('A' for Active; 'I' for Inactive)
REMARK    1  A    between atoms: C5_6  and  C6_7 
REMARK    2  A    between atoms: C9_10  and  C10_11 
ROOT
ATOM      1  C1  NON d   1     -36.745  18.932  -2.915  0.00  0.00     0.069 C 
ATOM      2  C2  NON d   1     -38.159  18.724  -3.421  0.00  0.00     0.023 C 
ATOM      3  C3  NON d   1     -38.482  18.721  -4.739  0.00  0.00     0.060 C 
ATOM      4  C4  NON d   1     -37.442  18.767  -5.719  0.00  0.00     0.098 C 
ATOM      5  N1  NON d   1     -36.580  18.801  -6.494  0.00  0.00    -0.192 NA
ATOM      6  C5  NON d   1     -39.930  18.534  -5.239  0.00  0.00     0.133 C 
ATOM      7  C16 NON d   1     -40.964  18.562  -4.106  0.00  0.00     0.046 C 
ATOM      8  C17 NON d   1     -42.460  18.377  -4.422  0.00  0.00     0.018 C 
ATOM      9  N2  NON d   1     -43.956  18.192  -4.739  0.00  0.00    -0.096 N 
ATOM     10  C18 NON d   1     -40.453  18.376  -2.666  0.00  0.00     0.022 C 
ATOM     11  C19 NON d   1     -41.438  18.005  -1.541  0.00  0.00     0.069 C 
ATOM     12  N3  NON d   1     -39.105  18.509  -2.435  0.00  0.00    -0.361 N 
ATOM     13  H15 NON d   1     -38.779  18.455  -1.472  0.00  0.00     0.165 HD
ENDROOT
BRANCH   6  14
ATOM     14  C6  NON d   1     -40.321  19.304  -6.488  0.00  0.00     0.068 A 
ATOM     15  C7  NON d   1     -41.474  19.907  -6.955  0.00  0.00     0.036 A 
ATOM     16  C8  NON d   1     -41.115  20.630  -8.121  0.00  0.00     0.040 A 
ATOM     17  C9  NON d   1     -39.778  20.385  -8.347  0.00  0.00     0.086 A 
ATOM     18  O1  NON d   1     -39.292  19.594  -7.346  0.00  0.00    -0.313 OA
BRANCH  17  19
ATOM     19  C10 NON d   1     -38.832  20.791  -9.382  0.00  0.00    -0.002 A 
ATOM     20  C11 NON d   1     -39.189  21.754 -10.337  0.00  0.00     0.014 A 
ATOM     21  C12 NON d   1     -38.306  22.108 -11.363  0.00  0.00     0.001 A 
ATOM     22  C13 NON d   1     -37.056  21.500 -11.449  0.00  0.00     0.000 A 
ATOM     23  C14 NON d   1     -36.683  20.549 -10.504  0.00  0.00     0.001 A 
ATOM     24  C15 NON d   1     -37.564  20.202  -9.475  0.00  0.00     0.014 A 
ENDBRANCH  17  19
ENDBRANCH   6  14
TORSDOF 2
ENDMDL
MODEL 2
REMARK VINA RESULT:    -6.971      3.122      6.881
REMARK INTER + INTRA:          -8.519
REMARK INTER:                  -7.568
REMARK INTRA:                  -0.951
REMARK CONF_INDEPENDENT:        0.597
REMARK UNBOUND:                -0.951
REMARK  2 active torsions:
REMARK  status: ('A' for Active; 'I' for Inactive)
REMARK    1  A    between atoms: C5_6  and  C6_7 
REMARK    2  A    between atoms: C9_10  and  C10_11 
ROOT
ATOM      1  C1  NON d   1     -40.288  21.402  -8.783  0.00  0.00     0.069 C 
ATOM      2  C2  NON d   1     -40.261  21.411  -7.267  0.00  0.00     0.023 C 
ATOM      3  C3  NON d   1     -40.234  20.279  -6.519  0.00  0.00     0.060 C 
ATOM      4  C4  NON d   1     -40.074  19.012  -7.165  0.00  0.00     0.098 C 
ATOM      5  N1  NON d   1     -39.940  17.999  -7.711  0.00  0.00    -0.192 NA
ATOM      6  C5  NON d   1     -40.233  20.302  -4.976  0.00  0.00     0.133 C 
ATOM      7  C16 NON d   1     -40.473  21.702  -4.397  0.00  0.00     0.046 C 
ATOM      8  C17 NON d   1     -40.491  21.913  -2.871  0.00  0.00     0.018 C 
ATOM      9  N2  NON d   1     -40.509  22.124  -1.346  0.00  0.00    -0.096 N 
ATOM     10  C18 NON d   1     -40.293  22.906  -5.339  0.00  0.00     0.022 C 
ATOM     11  C19 NON d   1     -40.131  24.323  -4.756  0.00  0.00     0.069 C 
ATOM     12  N3  NON d   1     -40.240  22.668  -6.692  0.00  0.00    -0.361 N 
ATOM     13  H15 NON d   1     -40.191  23.472  -7.314  0.00  0.00     0.165 HD
ENDROOT
BRANCH   6  14
ATOM     14  C6  NON d   1     -40.983  19.179  -4.281  0.00  0.00     0.068 A 
ATOM     15  C7  NON d   1     -40.732  18.339  -3.212  0.00  0.00     0.036 A 
ATOM     16  C8  NON d   1     -41.935  17.634  -2.954  0.00  0.00     0.040 A 
ATOM     17  C9  NON d   1     -42.843  18.028  -3.914  0.00  0.00     0.086 A 
ATOM     18  O1  NON d   1     -42.269  18.979  -4.708  0.00  0.00    -0.313 OA
BRANCH  17  19
ATOM     19  C10 NON d   1     -44.220  17.657  -4.221  0.00  0.00    -0.002 A 
ATOM     20  C11 NON d   1     -44.969  16.881  -3.324  0.00  0.00     0.014 A 
ATOM     21  C12 NON d   1     -46.271  16.478  -3.638  0.00  0.00     0.001 A 
ATOM     22  C13 NON d   1     -46.841  16.842  -4.856  0.00  0.00     0.000 A 
ATOM     23  C14 NON d   1     -46.114  17.619  -5.753  0.00  0.00     0.001 A 
ATOM     24  C15 NON d   1     -44.816  18.028  -5.435  0.00  0.00     0.014 A 
ENDBRANCH  17  19
ENDBRANCH   6  14
TORSDOF 2
ENDMDL
MODEL 3
REMARK VINA RESULT:    -6.820      2.085      3.208
REMARK INTER + INTRA:          -8.349
REMARK INTER:                  -7.417
REMARK INTRA:                  -0.932
REMARK CONF_INDEPENDENT:        0.597
REMARK UNBOUND:                -0.932
REMARK  2 active torsions:
REMARK  status: ('A' for Active; 'I' for Inactive)
REMARK    1  A    between atoms: C5_6  and  C6_7 
REMARK    2  A    between atoms: C9_10  and  C10_11 
ROOT
ATOM      1  C1  NON d   1     -40.750  17.284  -2.067  0.00  0.00     0.069 C 
ATOM      2  C2  NON d   1     -40.667  18.622  -2.775  0.00  0.00     0.023 C 
ATOM      3  C3  NON d   1     -41.233  18.858  -3.985  0.00  0.00     0.060 C 
ATOM      4  C4  NON d   1     -42.074  17.862  -4.574  0.00  0.00     0.098 C 
ATOM      5  N1  NON d   1     -42.755  17.041  -5.029  0.00  0.00    -0.192 NA
ATOM      6  C5  NON d   1     -41.119  20.217  -4.706  0.00  0.00     0.133 C 
ATOM      7  C16 NON d   1     -40.143  21.181  -4.018  0.00  0.00     0.046 C 
ATOM      8  C17 NON d   1     -39.915  22.591  -4.595  0.00  0.00     0.018 C 
ATOM      9  N2  NON d   1     -39.688  24.000  -5.172  0.00  0.00    -0.096 N 
ATOM     10  C18 NON d   1     -39.728  20.866  -2.569  0.00  0.00     0.022 C 
ATOM     11  C19 NON d   1     -39.086  21.961  -1.697  0.00  0.00     0.069 C 
ATOM     12  N3  NON d   1     -39.988  19.608  -2.081  0.00  0.00    -0.361 N 
ATOM     13  H15 NON d   1     -39.650  19.381  -1.147  0.00  0.00     0.165 HD
ENDROOT
BRANCH   6  14
ATOM     14  C6  NON d   1     -41.023  20.175  -6.221  0.00  0.00     0.068 A 
ATOM     15  C7  NON d   1     -41.920  20.255  -7.269  0.00  0.00     0.036 A 
ATOM     16  C8  NON d   1     -41.155  20.341  -8.459  0.00  0.00     0.040 A 
ATOM     17  C9  NON d   1     -39.830  20.247  -8.090  0.00  0.00     0.086 A 
ATOM     18  O1  NON d   1     -39.750  20.163  -6.730  0.00  0.00    -0.313 OA
BRANCH  17  19
ATOM     19  C10 NON d   1     -38.570  20.230  -8.825  0.00  0.00    -0.002 A 
ATOM     20  C11 NON d   1     -38.287  21.218  -9.781  0.00  0.00     0.014 A 
ATOM     21  C12 NON d   1     -37.104  21.176 -10.527  0.00  0.00     0.001 A 
ATOM     22  C13 NON d   1     -36.190  20.143 -10.330  0.00  0.00     0.000 A 
ATOM     23  C14 NON d   1     -36.452  19.160  -9.380  0.00  0.00     0.001 A 
ATOM     24  C15 NON d   1     -37.631  19.208  -8.629  0.00  0.00     0.014 A 
ENDBRANCH  17  19
ENDBRANCH   6  14
TORSDOF 2
ENDMDL
MODEL 4
REMARK VINA RESULT:    -6.744      3.386      7.314
REMARK INTER + INTRA:          -8.227
REMARK INTER:                  -7.341
REMARK INTRA:                  -0.887
REMARK CONF_INDEPENDENT:        0.597
REMARK UNBOUND:                -0.887
REMARK  2 active torsions:
REMARK  status: ('A' for Active; 'I' for Inactive)
REMARK    1  A    between atoms: C5_6  and  C6_7 
REMARK    2  A    between atoms: C9_10  and  C10_11 
ROOT
ATOM      1  C1  NON d   1     -38.774  19.892  -1.759  0.00  0.00     0.069 C 
ATOM      2  C2  NON d   1     -39.575  19.971  -3.044  0.00  0.00     0.023 C 
ATOM      3  C3  NON d   1     -40.788  19.383  -3.198  0.00  0.00     0.060 C 
ATOM      4  C4  NON d   1     -41.428  18.782  -2.069  0.00  0.00     0.098 C 
ATOM      5  N1  NON d   1     -41.927  18.305  -1.138  0.00  0.00    -0.192 NA
ATOM      6  C5  NON d   1     -41.582  19.449  -4.520  0.00  0.00     0.133 C 
ATOM      7  C16 NON d   1     -40.774  20.056  -5.675  0.00  0.00     0.046 C 
ATOM      8  C17 NON d   1     -41.415  20.211  -7.067  0.00  0.00     0.018 C 
ATOM      9  N2  NON d   1     -42.056  20.366  -8.458  0.00  0.00    -0.096 N 
ATOM     10  C18 NON d   1     -39.503  20.850  -5.319  0.00  0.00     0.022 C 
ATOM     11  C19 NON d   1     -38.873  21.798  -6.356  0.00  0.00     0.069 C 
ATOM     12  N3  NON d   1     -38.989  20.714  -4.052  0.00  0.00    -0.361 N 
ATOM     13  H15 NON d   1     -38.110  21.184  -3.843  0.00  0.00     0.165 HD
ENDROOT
BRANCH   6  14
ATOM     14  C6  NON d   1     -42.400  18.222  -4.881  0.00  0.00     0.068 A 
ATOM     15  C7  NON d   1     -42.130  16.984  -5.433  0.00  0.00     0.036 A 
ATOM     16  C8  NON d   1     -43.319  16.219  -5.327  0.00  0.00     0.040 A 
ATOM     17  C9  NON d   1     -44.276  17.044  -4.775  0.00  0.00     0.086 A 
ATOM     18  O1  NON d   1     -43.712  18.254  -4.489  0.00  0.00    -0.313 OA
BRANCH  17  19
ATOM     19  C10 NON d   1     -45.688  16.881  -4.446  0.00  0.00    -0.002 A 
ATOM     20  C11 NON d   1     -46.177  17.257  -3.186  0.00  0.00     0.014 A 
ATOM     21  C12 NON d   1     -47.519  17.054  -2.847  0.00  0.00     0.001 A 
ATOM     22  C13 NON d   1     -48.390  16.468  -3.762  0.00  0.00     0.000 A 
ATOM     23  C14 NON d   1     -47.922  16.096  -5.020  0.00  0.00     0.001 A 
ATOM     24  C15 NON d   1     -46.583  16.307  -5.361  0.00  0.00     0.014 A 
ENDBRANCH  17  19
ENDBRANCH   6  14
TORSDOF 2
ENDMDL
MODEL 5
REMARK VINA RESULT:    -6.700      3.264      7.130
REMARK INTER + INTRA:          -8.179
REMARK INTER:                  -7.297
REMARK INTRA:                  -0.882
REMARK CONF_INDEPENDENT:        0.597
REMARK UNBOUND:                -0.882
REMARK  2 active torsions:
REMARK  status: ('A' for Active; 'I' for Inactive)
REMARK    1  A    between atoms: C5_6  and  C6_7 
REMARK    2  A    between atoms: C9_10  and  C10_11 
ROOT
ATOM      1  C1  NON d   1     -40.537  24.439 -12.374  0.00  0.00     0.069 C 
ATOM      2  C2  NON d   1     -40.174  24.142 -10.933  0.00  0.00     0.023 C 
ATOM      3  C3  NON d   1     -39.537  23.007 -10.547  0.00  0.00     0.060 C 
ATOM      4  C4  NON d   1     -39.045  22.104 -11.541  0.00  0.00     0.098 C 
ATOM      5  N1  NON d   1     -38.652  21.390 -12.365  0.00  0.00    -0.192 NA
ATOM      6  C5  NON d   1     -39.196  22.706  -9.073  0.00  0.00     0.133 C 
ATOM      7  C16 NON d   1     -39.828  23.705  -8.095  0.00  0.00     0.046 C 
ATOM      8  C17 NON d   1     -39.581  23.563  -6.581  0.00  0.00     0.018 C 
ATOM      9  N2  NON d   1     -39.335  23.421  -5.068  0.00  0.00    -0.096 N 
ATOM     10  C18 NON d   1     -40.352  25.034  -8.668  0.00  0.00     0.022 C 
ATOM     11  C19 NON d   1     -40.630  26.222  -7.728  0.00  0.00     0.069 C 
ATOM     12  N3  NON d   1     -40.517  25.131 -10.030  0.00  0.00    -0.361 N 
ATOM     13  H15 NON d   1     -40.930  25.986 -10.398  0.00  0.00     0.165 HD
ENDROOT
BRANCH   6  14
ATOM     14  C6  NON d   1     -39.268  21.251  -8.644  0.00  0.00     0.068 A 
ATOM     15  C7  NON d   1     -38.593  20.091  -8.975  0.00  0.00     0.036 A 
ATOM     16  C8  NON d   1     -39.022  19.093  -8.063  0.00  0.00     0.040 A 
ATOM     17  C9  NON d   1     -39.983  19.671  -7.262  0.00  0.00     0.086 A 
ATOM     18  O1  NON d   1     -40.119  20.986  -7.604  0.00  0.00    -0.313 OA
BRANCH  17  19
ATOM     19  C10 NON d   1     -40.826  19.183  -6.175  0.00  0.00    -0.002 A 
ATOM     20  C11 NON d   1     -42.190  19.505  -6.128  0.00  0.00     0.014 A 
ATOM     21  C12 NON d   1     -42.990  19.085  -5.060  0.00  0.00     0.001 A 
ATOM     22  C13 NON d   1     -42.436  18.339  -4.023  0.00  0.00     0.000 A 
ATOM     23  C14 NON d   1     -41.085  18.004  -4.059  0.00  0.00     0.001 A 
ATOM     24  C15 NON d   1     -40.288  18.418  -5.130  0.00  0.00     0.014 A 
ENDBRANCH  17  19
ENDBRANCH   6  14
TORSDOF 2
ENDMDL
MODEL 6
REMARK VINA RESULT:    -6.684      2.269      3.551
REMARK INTER + INTRA:          -8.109
REMARK INTER:                  -7.281
REMARK INTRA:                  -0.828
REMARK CONF_INDEPENDENT:        0.597
REMARK UNBOUND:                -0.828
REMARK  2 active torsions:
REMARK  status: ('A' for Active; 'I' for Inactive)
REMARK    1  A    between atoms: C5_6  and  C6_7 
REMARK    2  A    between atoms: C9_10  and  C10_11 
ROOT
ATOM      1  C1  NON d   1     -41.062  17.630  -1.865  0.00  0.00     0.069 C 
ATOM      2  C2  NON d   1     -40.715  18.878  -2.653  0.00  0.00     0.023 C 
ATOM      3  C3  NON d   1     -41.022  19.035  -3.966  0.00  0.00     0.060 C 
ATOM      4  C4  NON d   1     -41.836  18.058  -4.620  0.00  0.00     0.098 C 
ATOM      5  N1  NON d   1     -42.501  17.255  -5.126  0.00  0.00    -0.192 NA
ATOM      6  C5  NON d   1     -40.639  20.300  -4.763  0.00  0.00     0.133 C 
ATOM      7  C16 NON d   1     -39.715  21.244  -3.983  0.00  0.00     0.046 C 
ATOM      8  C17 NON d   1     -39.243  22.563  -4.622  0.00  0.00     0.018 C 
ATOM      9  N2  NON d   1     -38.772  23.882  -5.260  0.00  0.00    -0.096 N 
ATOM     10  C18 NON d   1     -39.609  21.044  -2.460  0.00  0.00     0.022 C 
ATOM     11  C19 NON d   1     -39.030  22.165  -1.575  0.00  0.00     0.069 C 
ATOM     12  N3  NON d   1     -40.080  19.868  -1.927  0.00  0.00    -0.361 N 
ATOM     13  H15 NON d   1     -39.945  19.711  -0.930  0.00  0.00     0.165 HD
ENDROOT
BRANCH   6  14
ATOM     14  C6  NON d   1     -40.270  20.096  -6.222  0.00  0.00     0.068 A 
ATOM     15  C7  NON d   1     -40.096  19.004  -7.051  0.00  0.00     0.036 A 
ATOM     16  C8  NON d   1     -39.940  19.510  -8.367  0.00  0.00     0.040 A 
ATOM     17  C9  NON d   1     -39.963  20.885  -8.271  0.00  0.00     0.086 A 
ATOM     18  O1  NON d   1     -40.181  21.239  -6.971  0.00  0.00    -0.313 OA
BRANCH  17  19
ATOM     19  C10 NON d   1     -39.820  21.971  -9.235  0.00  0.00    -0.002 A 
ATOM     20  C11 NON d   1     -40.315  23.252  -8.947  0.00  0.00     0.014 A 
ATOM     21  C12 NON d   1     -40.227  24.283  -9.889  0.00  0.00     0.001 A 
ATOM     22  C13 NON d   1     -39.647  24.046 -11.132  0.00  0.00     0.000 A 
ATOM     23  C14 NON d   1     -39.143  22.783 -11.430  0.00  0.00     0.001 A 
ATOM     24  C15 NON d   1     -39.224  21.755 -10.485  0.00  0.00     0.014 A 
ENDBRANCH  17  19
ENDBRANCH   6  14
TORSDOF 2
ENDMDL
MODEL 7
REMARK VINA RESULT:    -6.524      2.032      2.579
REMARK INTER + INTRA:          -8.059
REMARK INTER:                  -7.121
REMARK INTRA:                  -0.938
REMARK CONF_INDEPENDENT:        0.597
REMARK UNBOUND:                -0.938
REMARK  2 active torsions:
REMARK  status: ('A' for Active; 'I' for Inactive)
REMARK    1  A    between atoms: C5_6  and  C6_7 
REMARK    2  A    between atoms: C9_10  and  C10_11 
ROOT
ATOM      1  C1  NON d   1     -36.858  18.421  -2.599  0.00  0.00     0.069 C 
ATOM      2  C2  NON d   1     -38.201  18.475  -3.302  0.00  0.00     0.023 C 
ATOM      3  C3  NON d   1     -38.330  18.528  -4.651  0.00  0.00     0.060 C 
ATOM      4  C4  NON d   1     -37.171  18.379  -5.476  0.00  0.00     0.098 C 
ATOM      5  N1  NON d   1     -36.217  18.252  -6.122  0.00  0.00    -0.192 NA
ATOM      6  C5  NON d   1     -39.702  18.610  -5.353  0.00  0.00     0.133 C 
ATOM      7  C16 NON d   1     -40.863  18.832  -4.375  0.00  0.00     0.046 C 
ATOM      8  C17 NON d   1     -42.308  18.925  -4.900  0.00  0.00     0.018 C 
ATOM      9  N2  NON d   1     -43.752  19.018  -5.426  0.00  0.00    -0.096 N 
ATOM     10  C18 NON d   1     -40.603  18.558  -2.881  0.00  0.00     0.022 C 
ATOM     11  C19 NON d   1     -41.788  18.378  -1.914  0.00  0.00     0.069 C 
ATOM     12  N3  NON d   1     -39.299  18.441  -2.463  0.00  0.00    -0.361 N 
ATOM     13  H15 NON d   1     -39.129  18.330  -1.465  0.00  0.00     0.165 HD
ENDROOT
BRANCH   6  14
ATOM     14  C6  NON d   1     -39.765  19.436  -6.625  0.00  0.00     0.068 A 
ATOM     15  C7  NON d   1     -39.940  19.165  -7.969  0.00  0.00     0.036 A 
ATOM     16  C8  NON d   1     -40.091  20.415  -8.623  0.00  0.00     0.040 A 
ATOM     17  C9  NON d   1     -39.940  21.390  -7.660  0.00  0.00     0.086 A 
ATOM     18  O1  NON d   1     -39.759  20.795  -6.445  0.00  0.00    -0.313 OA
BRANCH  17  19
ATOM     19  C10 NON d   1     -39.946  22.849  -7.684  0.00  0.00    -0.002 A 
ATOM     20  C11 NON d   1     -40.148  23.543  -8.886  0.00  0.00     0.014 A 
ATOM     21  C12 NON d   1     -40.102  24.941  -8.924  0.00  0.00     0.001 A 
ATOM     22  C13 NON d   1     -39.847  25.663  -7.760  0.00  0.00     0.000 A 
ATOM     23  C14 NON d   1     -39.653  24.989  -6.558  0.00  0.00     0.001 A 
ATOM     24  C15 NON d   1     -39.707  23.593  -6.520  0.00  0.00     0.014 A 
ENDBRANCH  17  19
ENDBRANCH   6  14
TORSDOF 2
ENDMDL
MODEL 8
REMARK VINA RESULT:    -6.384      3.909      6.546
REMARK INTER + INTRA:          -7.920
REMARK INTER:                  -6.980
REMARK INTRA:                  -0.940
REMARK CONF_INDEPENDENT:        0.597
REMARK UNBOUND:                -0.940
REMARK  2 active torsions:
REMARK  status: ('A' for Active; 'I' for Inactive)
REMARK    1  A    between atoms: C5_6  and  C6_7 
REMARK    2  A    between atoms: C9_10  and  C10_11 
ROOT
ATOM      1  C1  NON d   1     -41.435  24.138  -0.341  0.00  0.00     0.069 C 
ATOM      2  C2  NON d   1     -40.423  23.115  -0.816  0.00  0.00     0.023 C 
ATOM      3  C3  NON d   1     -40.321  22.718  -2.110  0.00  0.00     0.060 C 
ATOM      4  C4  NON d   1     -41.089  23.387  -3.114  0.00  0.00     0.098 C 
ATOM      5  N1  NON d   1     -41.720  23.947  -3.909  0.00  0.00    -0.192 NA
ATOM      6  C5  NON d   1     -39.303  21.655  -2.576  0.00  0.00     0.133 C 
ATOM      7  C16 NON d   1     -38.584  20.962  -1.411  0.00  0.00     0.046 C 
ATOM      8  C17 NON d   1     -37.523  19.882  -1.693  0.00  0.00     0.018 C 
ATOM      9  N2  NON d   1     -36.463  18.802  -1.975  0.00  0.00    -0.096 N 
ATOM     10  C18 NON d   1     -38.649  21.636  -0.028  0.00  0.00     0.022 C 
ATOM     11  C19 NON d   1     -37.653  21.228   1.074  0.00  0.00     0.069 C 
ATOM     12  N3  NON d   1     -39.583  22.625   0.167  0.00  0.00    -0.361 N 
ATOM     13  H15 NON d   1     -39.670  23.019   1.102  0.00  0.00     0.165 HD
ENDROOT
BRANCH   6  14
ATOM     14  C6  NON d   1     -39.751  20.734  -3.697  0.00  0.00     0.068 A 
ATOM     15  C7  NON d   1     -39.179  20.238  -4.853  0.00  0.00     0.036 A 
ATOM     16  C8  NON d   1     -40.073  19.264  -5.367  0.00  0.00     0.040 A 
ATOM     17  C9  NON d   1     -41.174  19.256  -4.538  0.00  0.00     0.086 A 
ATOM     18  O1  NON d   1     -40.971  20.137  -3.515  0.00  0.00    -0.313 OA
BRANCH  17  19
ATOM     19  C10 NON d   1     -42.437  18.525  -4.536  0.00  0.00    -0.002 A 
ATOM     20  C11 NON d   1     -43.588  19.084  -5.110  0.00  0.00     0.014 A 
ATOM     21  C12 NON d   1     -44.814  18.410  -5.063  0.00  0.00     0.001 A 
ATOM     22  C13 NON d   1     -44.905  17.170  -4.437  0.00  0.00     0.000 A 
ATOM     23  C14 NON d   1     -43.769  16.597  -3.870  0.00  0.00     0.001 A 
ATOM     24  C15 NON d   1     -42.544  17.268  -3.925  0.00  0.00     0.014 A 
ENDBRANCH  17  19
ENDBRANCH   6  14
TORSDOF 2
ENDMDL
MODEL 9
REMARK VINA RESULT:    -6.356      4.347      6.847
REMARK INTER + INTRA:          -7.885
REMARK INTER:                  -6.953
REMARK INTRA:                  -0.933
REMARK CONF_INDEPENDENT:        0.597
REMARK UNBOUND:                -0.933
REMARK  2 active torsions:
REMARK  status: ('A' for Active; 'I' for Inactive)
REMARK    1  A    between atoms: C5_6  and  C6_7 
REMARK    2  A    between atoms: C9_10  and  C10_11 
ROOT
ATOM      1  C1  NON d   1     -41.653  26.174  -4.442  0.00  0.00     0.069 C 
ATOM      2  C2  NON d   1     -41.107  25.089  -3.535  0.00  0.00     0.023 C 
ATOM      3  C3  NON d   1     -40.425  24.011  -3.997  0.00  0.00     0.060 C 
ATOM      4  C4  NON d   1     -40.063  23.946  -5.379  0.00  0.00     0.098 C 
ATOM      5  N1  NON d   1     -39.778  23.919  -6.502  0.00  0.00    -0.192 NA
ATOM      6  C5  NON d   1     -39.897  22.900  -3.065  0.00  0.00     0.133 C 
ATOM      7  C16 NON d   1     -40.399  23.038  -1.622  0.00  0.00     0.046 C 
ATOM      8  C17 NON d   1     -39.961  22.022  -0.551  0.00  0.00     0.018 C 
ATOM      9  N2  NON d   1     -39.523  21.006   0.519  0.00  0.00    -0.096 N 
ATOM     10  C18 NON d   1     -40.995  24.394  -1.198  0.00  0.00     0.022 C 
ATOM     11  C19 NON d   1     -41.152  24.733   0.296  0.00  0.00     0.069 C 
ATOM     12  N3  NON d   1     -41.333  25.289  -2.186  0.00  0.00    -0.361 N 
ATOM     13  H15 NON d   1     -41.791  26.154  -1.906  0.00  0.00     0.165 HD
ENDROOT
BRANCH   6  14
ATOM     14  C6  NON d   1     -39.912  21.486  -3.619  0.00  0.00     0.068 A 
ATOM     15  C7  NON d   1     -38.954  20.572  -4.014  0.00  0.00     0.036 A 
ATOM     16  C8  NON d   1     -39.630  19.350  -4.259  0.00  0.00     0.040 A 
ATOM     17  C9  NON d   1     -40.973  19.590  -4.063  0.00  0.00     0.086 A 
ATOM     18  O1  NON d   1     -41.142  20.883  -3.659  0.00  0.00    -0.313 OA
BRANCH  17  19
ATOM     19  C10 NON d   1     -42.179  18.777  -4.188  0.00  0.00    -0.002 A 
ATOM     20  C11 NON d   1     -43.253  19.207  -4.980  0.00  0.00     0.014 A 
ATOM     21  C12 NON d   1     -44.431  18.457  -5.060  0.00  0.00     0.001 A 
ATOM     22  C13 NON d   1     -44.552  17.268  -4.344  0.00  0.00     0.000 A 
ATOM     23  C14 NON d   1     -43.492  16.823  -3.560  0.00  0.00     0.001 A 
ATOM     24  C15 NON d   1     -42.312  17.570  -3.487  0.00  0.00     0.014 A 
ENDBRANCH  17  19
ENDBRANCH   6  14
TORSDOF 2
ENDMDL
