MODEL 1
REMARK VINA RESULT:   -11.178      0.000      0.000
REMARK INTER + INTRA:         -14.481
REMARK INTER:                 -13.266
REMARK INTRA:                  -1.215
REMARK CONF_INDEPENDENT:        2.088
REMARK UNBOUND:                -1.215
REMARK  7 active torsions:
REMARK  status: ('A' for Active; 'I' for Inactive)
REMARK    1  A    between atoms: C2_2  and  C3_3 
REMARK    2  A    between atoms: C4_5  and  C5_6 
REMARK    3  A    between atoms: C9_11  and  N3_12 
REMARK    4  A    between atoms: C13_16  and  C14_17 
REMARK       I    between atoms: C14_17  and  N4_19 
REMARK    5  A    between atoms: N4_19  and  C15_20 
REMARK    6  A    between atoms: C15_20  and  C16_21 
REMARK    7  A    between atoms: C16_21  and  C17_22 
ROOT
ATOM      1  N3  NON d   1     -41.404  19.802  -4.181  0.00  0.00    -0.364 N 
ATOM      2  C10 NON d   1     -40.741  18.992  -3.157  0.00  0.00     0.124 C 
ATOM      3  C11 NON d   1     -41.406  17.654  -2.839  0.00  0.00     0.021 C 
ATOM      4  C12 NON d   1     -42.897  17.620  -3.146  0.00  0.00     0.017 C 
ATOM      5  C13 NON d   1     -43.091  17.937  -4.619  0.00  0.00     0.096 C 
ATOM      6  C23 NON d   1     -42.484  19.285  -5.007  0.00  0.00     0.138 C 
ENDROOT
BRANCH   1   7
ATOM      7  C9  NON d   1     -40.813  21.044  -4.458  0.00  0.00     0.139 A 
ATOM      8  N2  NON d   1     -40.930  21.957  -3.446  0.00  0.00    -0.242 NA
ATOM      9  C8  NON d   1     -40.420  23.201  -3.571  0.00  0.00     0.119 A 
ATOM     10  C7  NON d   1     -39.777  23.649  -4.698  0.00  0.00     0.020 A 
ATOM     11  C6  NON d   1     -39.650  22.755  -5.748  0.00  0.00     0.021 A 
ATOM     12  C5  NON d   1     -40.148  21.437  -5.648  0.00  0.00     0.060 A 
BRANCH  12  13
ATOM     13  C4  NON d   1     -39.837  20.591  -6.795  0.00  0.00     0.193 A 
ATOM     14  N1  NON d   1     -38.543  20.245  -7.145  0.00  0.00    -0.204 NA
ATOM     15  C3  NON d   1     -38.726  19.360  -8.103  0.00  0.00     0.172 A 
ATOM     16  O2  NON d   1     -40.044  19.114  -8.355  0.00  0.00    -0.196 OA
ATOM     17  N5  NON d   1     -40.775  19.882  -7.457  0.00  0.00    -0.105 NA
BRANCH  15  18
ATOM     18  C2  NON d   1     -37.757  18.374  -8.652  0.00  0.00     0.084 C 
ATOM     19  C1  NON d   1     -36.367  18.869  -9.095  0.00  0.00     0.013 C 
ENDBRANCH  15  18
ENDBRANCH  12  13
ENDBRANCH   1   7
BRANCH   5  20
ATOM     20  C14 NON d   1     -44.554  17.913  -5.062  0.00  0.00     0.223 C 
ATOM     21  O1  NON d   1     -45.095  18.841  -5.661  0.00  0.00    -0.273 OA
ATOM     22  N4  NON d   1     -45.232  16.742  -4.806  0.00  0.00    -0.360 N 
ATOM     23  H16 NON d   1     -44.706  15.925  -4.523  0.00  0.00     0.162 HD
BRANCH  22  24
ATOM     24  C15 NON d   1     -46.532  16.557  -5.430  0.00  0.00     0.127 C 
BRANCH  24  25
ATOM     25  C16 NON d   1     -47.317  15.358  -4.900  0.00  0.00     0.053 C 
BRANCH  25  26
ATOM     26  C17 NON d   1     -48.418  15.603  -3.887  0.00  0.00    -0.082 C 
ATOM     27  C18 NON d   1     -49.634  15.027  -3.910  0.00  0.00    -0.024 C 
ATOM     28  C19 NON d   1     -50.704  15.275  -2.890  0.00  0.00     0.027 C 
ATOM     29  C20 NON d   1     -50.466  16.525  -2.047  0.00  0.00     0.004 C 
ATOM     30  C21 NON d   1     -49.012  16.673  -1.620  0.00  0.00     0.005 C 
ATOM     31  C22 NON d   1     -48.025  16.561  -2.784  0.00  0.00     0.034 C 
ENDBRANCH  25  26
ENDBRANCH  24  25
ENDBRANCH  22  24
ENDBRANCH   5  20
TORSDOF 7
ENDMDL
MODEL 2
REMARK VINA RESULT:   -10.365      1.744      3.676
REMARK INTER + INTRA:         -13.799
REMARK INTER:                 -12.453
REMARK INTRA:                  -1.346
REMARK CONF_INDEPENDENT:        2.088
REMARK UNBOUND:                -1.346
REMARK  7 active torsions:
REMARK  status: ('A' for Active; 'I' for Inactive)
REMARK    1  A    between atoms: C2_2  and  C3_3 
REMARK    2  A    between atoms: C4_5  and  C5_6 
REMARK    3  A    between atoms: C9_11  and  N3_12 
REMARK    4  A    between atoms: C13_16  and  C14_17 
REMARK       I    between atoms: C14_17  and  N4_19 
REMARK    5  A    between atoms: N4_19  and  C15_20 
REMARK    6  A    between atoms: C15_20  and  C16_21 
REMARK    7  A    between atoms: C16_21  and  C17_22 
ROOT
ATOM      1  N3  NON d   1     -40.701  18.643  -5.094  0.00  0.00    -0.364 N 
ATOM      2  C10 NON d   1     -39.799  18.664  -3.939  0.00  0.00     0.124 C 
ATOM      3  C11 NON d   1     -40.343  18.021  -2.665  0.00  0.00     0.021 C 
ATOM      4  C12 NON d   1     -41.863  18.005  -2.584  0.00  0.00     0.017 C 
ATOM      5  C13 NON d   1     -42.402  17.257  -3.791  0.00  0.00     0.096 C 
ATOM      6  C23 NON d   1     -41.932  17.868  -5.110  0.00  0.00     0.138 C 
ENDROOT
BRANCH   1   7
ATOM      7  C9  NON d   1     -40.218  19.258  -6.259  0.00  0.00     0.139 A 
ATOM      8  N2  NON d   1     -39.883  18.383  -7.256  0.00  0.00    -0.242 NA
ATOM      9  C8  NON d   1     -39.394  18.826  -8.434  0.00  0.00     0.119 A 
ATOM     10  C7  NON d   1     -39.178  20.151  -8.716  0.00  0.00     0.020 A 
ATOM     11  C6  NON d   1     -39.493  21.066  -7.726  0.00  0.00     0.021 A 
ATOM     12  C5  NON d   1     -40.032  20.646  -6.489  0.00  0.00     0.060 A 
BRANCH  12  13
ATOM     13  C4  NON d   1     -40.411  21.737  -5.599  0.00  0.00     0.193 A 
ATOM     14  N1  NON d   1     -40.907  21.528  -4.323  0.00  0.00    -0.204 NA
ATOM     15  C3  NON d   1     -40.952  22.746  -3.824  0.00  0.00     0.172 A 
ATOM     16  O2  NON d   1     -40.493  23.693  -4.691  0.00  0.00    -0.196 OA
ATOM     17  N5  NON d   1     -40.085  23.024  -5.838  0.00  0.00    -0.105 NA
BRANCH  15  18
ATOM     18  C2  NON d   1     -41.069  23.160  -2.400  0.00  0.00     0.084 C 
ATOM     19  C1  NON d   1     -40.156  22.490  -1.356  0.00  0.00     0.013 C 
ENDBRANCH  15  18
ENDBRANCH  12  13
ENDBRANCH   1   7
BRANCH   5  20
ATOM     20  C14 NON d   1     -43.926  17.152  -3.816  0.00  0.00     0.223 C 
ATOM     21  O1  NON d   1     -44.628  17.256  -2.812  0.00  0.00    -0.273 OA
ATOM     22  N4  NON d   1     -44.489  16.996  -5.063  0.00  0.00    -0.360 N 
ATOM     23  H16 NON d   1     -43.912  17.141  -5.881  0.00  0.00     0.162 HD
BRANCH  22  24
ATOM     24  C15 NON d   1     -45.929  17.152  -5.185  0.00  0.00     0.127 C 
BRANCH  24  25
ATOM     25  C16 NON d   1     -46.714  15.845  -5.079  0.00  0.00     0.053 C 
BRANCH  25  26
ATOM     26  C17 NON d   1     -47.903  15.787  -4.140  0.00  0.00    -0.082 C 
ATOM     27  C18 NON d   1     -48.985  15.005  -4.309  0.00  0.00    -0.024 C 
ATOM     28  C19 NON d   1     -50.145  14.955  -3.361  0.00  0.00     0.027 C 
ATOM     29  C20 NON d   1     -50.200  16.139  -2.399  0.00  0.00     0.004 C 
ATOM     30  C21 NON d   1     -48.829  16.506  -1.846  0.00  0.00     0.005 C 
ATOM     31  C22 NON d   1     -47.767  16.688  -2.932  0.00  0.00     0.034 C 
ENDBRANCH  25  26
ENDBRANCH  24  25
ENDBRANCH  22  24
ENDBRANCH   5  20
TORSDOF 7
ENDMDL
MODEL 3
REMARK VINA RESULT:   -10.248      1.812      3.743
REMARK INTER + INTRA:         -13.598
REMARK INTER:                 -12.336
REMARK INTRA:                  -1.262
REMARK CONF_INDEPENDENT:        2.088
REMARK UNBOUND:                -1.262
REMARK  7 active torsions:
REMARK  status: ('A' for Active; 'I' for Inactive)
REMARK    1  A    between atoms: C2_2  and  C3_3 
REMARK    2  A    between atoms: C4_5  and  C5_6 
REMARK    3  A    between atoms: C9_11  and  N3_12 
REMARK    4  A    between atoms: C13_16  and  C14_17 
REMARK       I    between atoms: C14_17  and  N4_19 
REMARK    5  A    between atoms: N4_19  and  C15_20 
REMARK    6  A    between atoms: C15_20  and  C16_21 
REMARK    7  A    between atoms: C16_21  and  C17_22 
ROOT
ATOM      1  N3  NON d   1     -41.148  19.007  -5.172  0.00  0.00    -0.364 N 
ATOM      2  C10 NON d   1     -40.217  18.840  -4.053  0.00  0.00     0.124 C 
ATOM      3  C11 NON d   1     -40.713  17.961  -2.907  0.00  0.00     0.021 C 
ATOM      4  C12 NON d   1     -42.230  17.892  -2.796  0.00  0.00     0.017 C 
ATOM      5  C13 NON d   1     -42.785  17.363  -4.107  0.00  0.00     0.096 C 
ATOM      6  C23 NON d   1     -42.363  18.218  -5.302  0.00  0.00     0.138 C 
ENDROOT
BRANCH   1   7
ATOM      7  C9  NON d   1     -40.709  19.836  -6.215  0.00  0.00     0.139 A 
ATOM      8  N2  NON d   1     -40.557  19.195  -7.413  0.00  0.00    -0.242 NA
ATOM      9  C8  NON d   1     -40.131  19.860  -8.508  0.00  0.00     0.119 A 
ATOM     10  C7  NON d   1     -39.804  21.193  -8.508  0.00  0.00     0.020 A 
ATOM     11  C6  NON d   1     -39.934  21.873  -7.309  0.00  0.00     0.021 A 
ATOM     12  C5  NON d   1     -40.401  21.220  -6.146  0.00  0.00     0.060 A 
BRANCH  12  13
ATOM     13  C4  NON d   1     -40.585  22.100  -4.998  0.00  0.00     0.193 A 
ATOM     14  N1  NON d   1     -40.060  23.380  -4.940  0.00  0.00    -0.204 NA
ATOM     15  C3  NON d   1     -40.595  23.866  -3.840  0.00  0.00     0.172 A 
ATOM     16  O2  NON d   1     -41.436  22.987  -3.224  0.00  0.00    -0.196 OA
ATOM     17  N5  NON d   1     -41.473  21.845  -4.014  0.00  0.00    -0.105 NA
BRANCH  15  18
ATOM     18  C2  NON d   1     -40.698  25.286  -3.409  0.00  0.00     0.084 C 
ATOM     19  C1  NON d   1     -41.750  26.189  -4.079  0.00  0.00     0.013 C 
ENDBRANCH  15  18
ENDBRANCH  12  13
ENDBRANCH   1   7
BRANCH   5  20
ATOM     20  C14 NON d   1     -44.307  17.227  -4.116  0.00  0.00     0.223 C 
ATOM     21  O1  NON d   1     -45.024  17.582  -3.183  0.00  0.00    -0.273 OA
ATOM     22  N4  NON d   1     -44.850  16.732  -5.281  0.00  0.00    -0.360 N 
ATOM     23  H16 NON d   1     -44.264  16.663  -6.103  0.00  0.00     0.162 HD
BRANCH  22  24
ATOM     24  C15 NON d   1     -46.291  16.822  -5.453  0.00  0.00     0.127 C 
BRANCH  24  25
ATOM     25  C16 NON d   1     -47.049  15.551  -5.074  0.00  0.00     0.053 C 
BRANCH  25  26
ATOM     26  C17 NON d   1     -48.191  15.656  -4.082  0.00  0.00    -0.082 C 
ATOM     27  C18 NON d   1     -49.367  15.010  -4.184  0.00  0.00    -0.024 C 
ATOM     28  C19 NON d   1     -50.477  15.120  -3.183  0.00  0.00     0.027 C 
ATOM     29  C20 NON d   1     -50.342  16.317  -2.248  0.00  0.00     0.004 C 
ATOM     30  C21 NON d   1     -48.912  16.522  -1.766  0.00  0.00     0.005 C 
ATOM     31  C22 NON d   1     -47.888  16.554  -2.902  0.00  0.00     0.034 C 
ENDBRANCH  25  26
ENDBRANCH  24  25
ENDBRANCH  22  24
ENDBRANCH   5  20
TORSDOF 7
ENDMDL
MODEL 4
REMARK VINA RESULT:   -10.083      2.438      9.477
REMARK INTER + INTRA:         -13.549
REMARK INTER:                 -12.172
REMARK INTRA:                  -1.377
REMARK CONF_INDEPENDENT:        2.088
REMARK UNBOUND:                -1.377
REMARK  7 active torsions:
REMARK  status: ('A' for Active; 'I' for Inactive)
REMARK    1  A    between atoms: C2_2  and  C3_3 
REMARK    2  A    between atoms: C4_5  and  C5_6 
REMARK    3  A    between atoms: C9_11  and  N3_12 
REMARK    4  A    between atoms: C13_16  and  C14_17 
REMARK       I    between atoms: C14_17  and  N4_19 
REMARK    5  A    between atoms: N4_19  and  C15_20 
REMARK    6  A    between atoms: C15_20  and  C16_21 
REMARK    7  A    between atoms: C16_21  and  C17_22 
ROOT
ATOM      1  N3  NON d   1     -41.156  19.119  -5.949  0.00  0.00    -0.364 N 
ATOM      2  C10 NON d   1     -42.212  19.879  -6.625  0.00  0.00     0.124 C 
ATOM      3  C11 NON d   1     -41.926  20.259  -8.077  0.00  0.00     0.021 C 
ATOM      4  C12 NON d   1     -40.443  20.341  -8.411  0.00  0.00     0.017 C 
ATOM      5  C13 NON d   1     -39.807  18.995  -8.113  0.00  0.00     0.096 C 
ATOM      6  C23 NON d   1     -40.017  18.562  -6.662  0.00  0.00     0.138 C 
ENDROOT
BRANCH   1   7
ATOM      7  C9  NON d   1     -41.401  18.791  -4.608  0.00  0.00     0.139 A 
ATOM      8  N2  NON d   1     -40.396  19.151  -3.752  0.00  0.00    -0.242 NA
ATOM      9  C8  NON d   1     -40.483  18.891  -2.430  0.00  0.00     0.119 A 
ATOM     10  C7  NON d   1     -41.547  18.245  -1.851  0.00  0.00     0.020 A 
ATOM     11  C6  NON d   1     -42.578  17.855  -2.689  0.00  0.00     0.021 A 
ATOM     12  C5  NON d   1     -42.537  18.130  -4.074  0.00  0.00     0.060 A 
BRANCH  12  13
ATOM     13  C4  NON d   1     -43.747  17.753  -4.796  0.00  0.00     0.193 A 
ATOM     14  N1  NON d   1     -44.332  16.502  -4.680  0.00  0.00    -0.204 NA
ATOM     15  C3  NON d   1     -45.460  16.645  -5.344  0.00  0.00     0.172 A 
ATOM     16  O2  NON d   1     -45.629  17.903  -5.842  0.00  0.00    -0.196 OA
ATOM     17  N5  NON d   1     -44.529  18.648  -5.435  0.00  0.00    -0.105 NA
BRANCH  15  18
ATOM     18  C2  NON d   1     -46.674  15.786  -5.303  0.00  0.00     0.084 C 
ATOM     19  C1  NON d   1     -47.768  16.098  -4.265  0.00  0.00     0.013 C 
ENDBRANCH  15  18
ENDBRANCH  12  13
ENDBRANCH   1   7
BRANCH   5  20
ATOM     20  C14 NON d   1     -38.313  18.940  -8.429  0.00  0.00     0.223 C 
ATOM     21  O1  NON d   1     -37.728  17.910  -8.757  0.00  0.00    -0.273 OA
ATOM     22  N4  NON d   1     -37.654  20.149  -8.389  0.00  0.00    -0.360 N 
ATOM     23  H16 NON d   1     -38.198  21.001  -8.341  0.00  0.00     0.162 HD
BRANCH  22  24
ATOM     24  C15 NON d   1     -36.306  20.208  -8.929  0.00  0.00     0.127 C 
BRANCH  24  25
ATOM     25  C16 NON d   1     -36.245  20.401 -10.444  0.00  0.00     0.053 C 
BRANCH  25  26
ATOM     26  C17 NON d   1     -37.323  21.230 -11.114  0.00  0.00    -0.082 C 
ATOM     27  C18 NON d   1     -38.130  22.104 -10.484  0.00  0.00    -0.024 C 
ATOM     28  C19 NON d   1     -39.182  22.923 -11.169  0.00  0.00     0.027 C 
ATOM     29  C20 NON d   1     -39.546  22.411 -12.560  0.00  0.00     0.004 C 
ATOM     30  C21 NON d   1     -38.325  21.985 -13.363  0.00  0.00     0.005 C 
ATOM     31  C22 NON d   1     -37.411  21.017 -12.609  0.00  0.00     0.034 C 
ENDBRANCH  25  26
ENDBRANCH  24  25
ENDBRANCH  22  24
ENDBRANCH   5  20
TORSDOF 7
ENDMDL
MODEL 5
REMARK VINA RESULT:    -9.994      1.852      4.057
REMARK INTER + INTRA:         -13.294
REMARK INTER:                 -12.082
REMARK INTRA:                  -1.212
REMARK CONF_INDEPENDENT:        2.088
REMARK UNBOUND:                -1.212
REMARK  7 active torsions:
REMARK  status: ('A' for Active; 'I' for Inactive)
REMARK    1  A    between atoms: C2_2  and  C3_3 
REMARK    2  A    between atoms: C4_5  and  C5_6 
REMARK    3  A    between atoms: C9_11  and  N3_12 
REMARK    4  A    between atoms: C13_16  and  C14_17 
REMARK       I    between atoms: C14_17  and  N4_19 
REMARK    5  A    between atoms: N4_19  and  C15_20 
REMARK    6  A    between atoms: C15_20  and  C16_21 
REMARK    7  A    between atoms: C16_21  and  C17_22 
ROOT
ATOM      1  N3  NON d   1     -40.888  19.392  -4.612  0.00  0.00    -0.364 N 
ATOM      2  C10 NON d   1     -40.281  18.764  -3.436  0.00  0.00     0.124 C 
ATOM      3  C11 NON d   1     -41.097  17.648  -2.787  0.00  0.00     0.021 C 
ATOM      4  C12 NON d   1     -42.594  17.752  -3.043  0.00  0.00     0.017 C 
ATOM      5  C13 NON d   1     -42.828  17.734  -4.544  0.00  0.00     0.096 C 
ATOM      6  C23 NON d   1     -42.072  18.851  -5.262  0.00  0.00     0.138 C 
ENDROOT
BRANCH   1   7
ATOM      7  C9  NON d   1     -40.157  20.437  -5.197  0.00  0.00     0.139 A 
ATOM      8  N2  NON d   1     -39.613  20.127  -6.413  0.00  0.00    -0.242 NA
ATOM      9  C8  NON d   1     -38.872  21.028  -7.093  0.00  0.00     0.119 A 
ATOM     10  C7  NON d   1     -38.593  22.288  -6.626  0.00  0.00     0.020 A 
ATOM     11  C6  NON d   1     -39.116  22.633  -5.391  0.00  0.00     0.021 A 
ATOM     12  C5  NON d   1     -39.918  21.728  -4.660  0.00  0.00     0.060 A 
BRANCH  12  13
ATOM     13  C4  NON d   1     -40.480  22.282  -3.434  0.00  0.00     0.193 A 
ATOM     14  N1  NON d   1     -40.052  21.903  -2.172  0.00  0.00    -0.204 NA
ATOM     15  C3  NON d   1     -40.682  22.749  -1.383  0.00  0.00     0.172 A 
ATOM     16  O2  NON d   1     -41.451  23.643  -2.068  0.00  0.00    -0.196 OA
ATOM     17  N5  NON d   1     -41.275  23.373  -3.420  0.00  0.00    -0.105 NA
BRANCH  15  18
ATOM     18  C2  NON d   1     -40.392  23.083   0.037  0.00  0.00     0.084 C 
ATOM     19  C1  NON d   1     -41.151  24.253   0.691  0.00  0.00     0.013 C 
ENDBRANCH  15  18
ENDBRANCH  12  13
ENDBRANCH   1   7
BRANCH   5  20
ATOM     20  C14 NON d   1     -44.303  17.811  -4.934  0.00  0.00     0.223 C 
ATOM     21  O1  NON d   1     -44.850  18.845  -5.313  0.00  0.00    -0.273 OA
ATOM     22  N4  NON d   1     -44.988  16.617  -4.901  0.00  0.00    -0.360 N 
ATOM     23  H16 NON d   1     -44.466  15.756  -4.807  0.00  0.00     0.162 HD
BRANCH  22  24
ATOM     24  C15 NON d   1     -46.309  16.572  -5.506  0.00  0.00     0.127 C 
BRANCH  24  25
ATOM     25  C16 NON d   1     -47.165  15.388  -5.059  0.00  0.00     0.053 C 
BRANCH  25  26
ATOM     26  C17 NON d   1     -48.219  15.616  -3.992  0.00  0.00    -0.082 C 
ATOM     27  C18 NON d   1     -49.418  15.007  -3.947  0.00  0.00    -0.024 C 
ATOM     28  C19 NON d   1     -50.440  15.239  -2.875  0.00  0.00     0.027 C 
ATOM     29  C20 NON d   1     -50.194  16.505  -2.060  0.00  0.00     0.004 C 
ATOM     30  C21 NON d   1     -48.725  16.698  -1.710  0.00  0.00     0.005 C 
ATOM     31  C22 NON d   1     -47.795  16.598  -2.922  0.00  0.00     0.034 C 
ENDBRANCH  25  26
ENDBRANCH  24  25
ENDBRANCH  22  24
ENDBRANCH   5  20
TORSDOF 7
ENDMDL
MODEL 6
REMARK VINA RESULT:    -9.555      2.085      3.958
REMARK INTER + INTRA:         -12.513
REMARK INTER:                 -11.643
REMARK INTRA:                  -0.870
REMARK CONF_INDEPENDENT:        2.088
REMARK UNBOUND:                -0.870
REMARK  7 active torsions:
REMARK  status: ('A' for Active; 'I' for Inactive)
REMARK    1  A    between atoms: C2_2  and  C3_3 
REMARK    2  A    between atoms: C4_5  and  C5_6 
REMARK    3  A    between atoms: C9_11  and  N3_12 
REMARK    4  A    between atoms: C13_16  and  C14_17 
REMARK       I    between atoms: C14_17  and  N4_19 
REMARK    5  A    between atoms: N4_19  and  C15_20 
REMARK    6  A    between atoms: C15_20  and  C16_21 
REMARK    7  A    between atoms: C16_21  and  C17_22 
ROOT
ATOM      1  N3  NON d   1     -42.150  18.712  -4.787  0.00  0.00    -0.364 N 
ATOM      2  C10 NON d   1     -41.829  18.496  -3.373  0.00  0.00     0.124 C 
ATOM      3  C11 NON d   1     -42.819  17.632  -2.596  0.00  0.00     0.021 C 
ATOM      4  C12 NON d   1     -44.225  17.629  -3.181  0.00  0.00     0.017 C 
ATOM      5  C13 NON d   1     -44.149  17.134  -4.614  0.00  0.00     0.096 C 
ATOM      6  C23 NON d   1     -43.203  17.977  -5.469  0.00  0.00     0.138 C 
ENDROOT
BRANCH   1   7
ATOM      7  C9  NON d   1     -41.259  19.529  -5.499  0.00  0.00     0.139 A 
ATOM      8  N2  NON d   1     -41.535  19.624  -6.836  0.00  0.00    -0.242 NA
ATOM      9  C8  NON d   1     -40.758  20.366  -7.654  0.00  0.00     0.119 A 
ATOM     10  C7  NON d   1     -39.647  21.052  -7.231  0.00  0.00     0.020 A 
ATOM     11  C6  NON d   1     -39.329  20.968  -5.886  0.00  0.00     0.021 A 
ATOM     12  C5  NON d   1     -40.131  20.223  -4.992  0.00  0.00     0.060 A 
BRANCH  12  13
ATOM     13  C4  NON d   1     -39.724  20.326  -3.595  0.00  0.00     0.193 A 
ATOM     14  N1  NON d   1     -40.413  21.086  -2.666  0.00  0.00    -0.204 NA
ATOM     15  C3  NON d   1     -39.824  20.767  -1.532  0.00  0.00     0.172 A 
ATOM     16  O2  NON d   1     -38.835  19.841  -1.689  0.00  0.00    -0.196 OA
ATOM     17  N5  NON d   1     -38.805  19.509  -3.037  0.00  0.00    -0.105 NA
BRANCH  15  18
ATOM     18  C2  NON d   1     -40.312  20.978  -0.142  0.00  0.00     0.084 C 
ATOM     19  C1  NON d   1     -40.422  22.418   0.393  0.00  0.00     0.013 C 
ENDBRANCH  15  18
ENDBRANCH  12  13
ENDBRANCH   1   7
BRANCH   5  20
ATOM     20  C14 NON d   1     -45.507  17.064  -5.311  0.00  0.00     0.223 C 
ATOM     21  O1  NON d   1     -45.878  17.878  -6.155  0.00  0.00    -0.273 OA
ATOM     22  N4  NON d   1     -46.286  15.976  -4.983  0.00  0.00    -0.360 N 
ATOM     23  H16 NON d   1     -45.868  15.214  -4.466  0.00  0.00     0.162 HD
BRANCH  22  24
ATOM     24  C15 NON d   1     -47.462  15.711  -5.795  0.00  0.00     0.127 C 
BRANCH  24  25
ATOM     25  C16 NON d   1     -48.710  15.345  -4.992  0.00  0.00     0.053 C 
BRANCH  25  26
ATOM     26  C17 NON d   1     -48.927  16.010  -3.646  0.00  0.00    -0.082 C 
ATOM     27  C18 NON d   1     -47.966  16.594  -2.907  0.00  0.00    -0.024 C 
ATOM     28  C19 NON d   1     -48.206  17.256  -1.584  0.00  0.00     0.027 C 
ATOM     29  C20 NON d   1     -49.539  16.878  -0.944  0.00  0.00     0.004 C 
ATOM     30  C21 NON d   1     -50.680  16.841  -1.951  0.00  0.00     0.005 C 
ATOM     31  C22 NON d   1     -50.369  15.995  -3.189  0.00  0.00     0.034 C 
ENDBRANCH  25  26
ENDBRANCH  24  25
ENDBRANCH  22  24
ENDBRANCH   5  20
TORSDOF 7
ENDMDL
MODEL 7
REMARK VINA RESULT:    -9.515      2.876      5.161
REMARK INTER + INTRA:         -12.678
REMARK INTER:                 -11.603
REMARK INTRA:                  -1.075
REMARK CONF_INDEPENDENT:        2.088
REMARK UNBOUND:                -1.075
REMARK  7 active torsions:
REMARK  status: ('A' for Active; 'I' for Inactive)
REMARK    1  A    between atoms: C2_2  and  C3_3 
REMARK    2  A    between atoms: C4_5  and  C5_6 
REMARK    3  A    between atoms: C9_11  and  N3_12 
REMARK    4  A    between atoms: C13_16  and  C14_17 
REMARK       I    between atoms: C14_17  and  N4_19 
REMARK    5  A    between atoms: N4_19  and  C15_20 
REMARK    6  A    between atoms: C15_20  and  C16_21 
REMARK    7  A    between atoms: C16_21  and  C17_22 
ROOT
ATOM      1  N3  NON d   1     -40.149  19.823  -3.750  0.00  0.00    -0.364 N 
ATOM      2  C10 NON d   1     -39.991  20.609  -4.977  0.00  0.00     0.124 C 
ATOM      3  C11 NON d   1     -41.107  20.456  -6.008  0.00  0.00     0.021 C 
ATOM      4  C12 NON d   1     -41.858  19.136  -5.910  0.00  0.00     0.017 C 
ATOM      5  C13 NON d   1     -42.448  19.020  -4.516  0.00  0.00     0.096 C 
ATOM      6  C23 NON d   1     -41.383  19.124  -3.425  0.00  0.00     0.138 C 
ENDROOT
BRANCH   1   7
ATOM      7  C9  NON d   1     -39.113  19.937  -2.811  0.00  0.00     0.139 A 
ATOM      8  N2  NON d   1     -38.066  19.084  -3.027  0.00  0.00    -0.242 NA
ATOM      9  C8  NON d   1     -36.999  19.071  -2.199  0.00  0.00     0.119 A 
ATOM     10  C7  NON d   1     -36.887  19.874  -1.091  0.00  0.00     0.020 A 
ATOM     11  C6  NON d   1     -37.935  20.742  -0.834  0.00  0.00     0.021 A 
ATOM     12  C5  NON d   1     -39.057  20.805  -1.690  0.00  0.00     0.060 A 
BRANCH  12  13
ATOM     13  C4  NON d   1     -40.018  21.845  -1.341  0.00  0.00     0.193 A 
ATOM     14  N1  NON d   1     -40.308  22.192  -0.032  0.00  0.00    -0.204 NA
ATOM     15  C3  NON d   1     -41.070  23.256  -0.174  0.00  0.00     0.172 A 
ATOM     16  O2  NON d   1     -41.253  23.610  -1.478  0.00  0.00    -0.196 OA
ATOM     17  N5  NON d   1     -40.516  22.715  -2.244  0.00  0.00    -0.105 NA
BRANCH  15  18
ATOM     18  C2  NON d   1     -41.425  24.284   0.841  0.00  0.00     0.084 C 
ATOM     19  C1  NON d   1     -40.700  24.264   2.200  0.00  0.00     0.013 C 
ENDBRANCH  15  18
ENDBRANCH  12  13
ENDBRANCH   1   7
BRANCH   5  20
ATOM     20  C14 NON d   1     -43.251  17.739  -4.295  0.00  0.00     0.223 C 
ATOM     21  O1  NON d   1     -42.762  16.701  -3.852  0.00  0.00    -0.273 OA
ATOM     22  N4  NON d   1     -44.599  17.831  -4.564  0.00  0.00    -0.360 N 
ATOM     23  H16 NON d   1     -45.008  18.745  -4.706  0.00  0.00     0.162 HD
BRANCH  22  24
ATOM     24  C15 NON d   1     -45.456  16.740  -4.129  0.00  0.00     0.127 C 
BRANCH  24  25
ATOM     25  C16 NON d   1     -46.766  16.622  -4.908  0.00  0.00     0.053 C 
BRANCH  25  26
ATOM     26  C17 NON d   1     -48.001  16.130  -4.179  0.00  0.00    -0.082 C 
ATOM     27  C18 NON d   1     -48.778  15.107  -4.577  0.00  0.00    -0.024 C 
ATOM     28  C19 NON d   1     -49.989  14.630  -3.834  0.00  0.00     0.027 C 
ATOM     29  C20 NON d   1     -50.512  15.633  -2.809  0.00  0.00     0.004 C 
ATOM     30  C21 NON d   1     -49.393  16.295  -2.018  0.00  0.00     0.005 C 
ATOM     31  C22 NON d   1     -48.294  16.888  -2.902  0.00  0.00     0.034 C 
ENDBRANCH  25  26
ENDBRANCH  24  25
ENDBRANCH  22  24
ENDBRANCH   5  20
TORSDOF 7
ENDMDL
MODEL 8
REMARK VINA RESULT:    -9.294      2.265      3.294
REMARK INTER + INTRA:         -12.634
REMARK INTER:                 -11.382
REMARK INTRA:                  -1.251
REMARK CONF_INDEPENDENT:        2.088
REMARK UNBOUND:                -1.251
REMARK  7 active torsions:
REMARK  status: ('A' for Active; 'I' for Inactive)
REMARK    1  A    between atoms: C2_2  and  C3_3 
REMARK    2  A    between atoms: C4_5  and  C5_6 
REMARK    3  A    between atoms: C9_11  and  N3_12 
REMARK    4  A    between atoms: C13_16  and  C14_17 
REMARK       I    between atoms: C14_17  and  N4_19 
REMARK    5  A    between atoms: N4_19  and  C15_20 
REMARK    6  A    between atoms: C15_20  and  C16_21 
REMARK    7  A    between atoms: C16_21  and  C17_22 
ROOT
ATOM      1  N3  NON d   1     -39.909  18.884  -4.173  0.00  0.00    -0.364 N 
ATOM      2  C10 NON d   1     -39.918  20.271  -4.644  0.00  0.00     0.124 C 
ATOM      3  C11 NON d   1     -41.284  20.822  -5.048  0.00  0.00     0.021 C 
ATOM      4  C12 NON d   1     -42.279  19.751  -5.472  0.00  0.00     0.017 C 
ATOM      5  C13 NON d   1     -42.455  18.775  -4.322  0.00  0.00     0.096 C 
ATOM      6  C23 NON d   1     -41.131  18.148  -3.886  0.00  0.00     0.138 C 
ENDROOT
BRANCH   1   7
ATOM      7  C9  NON d   1     -38.653  18.363  -3.827  0.00  0.00     0.139 A 
ATOM      8  N2  NON d   1     -38.573  17.900  -2.543  0.00  0.00    -0.242 NA
ATOM      9  C8  NON d   1     -37.424  17.378  -2.062  0.00  0.00     0.119 A 
ATOM     10  C7  NON d   1     -36.266  17.290  -2.793  0.00  0.00     0.020 A 
ATOM     11  C6  NON d   1     -36.305  17.761  -4.095  0.00  0.00     0.021 A 
ATOM     12  C5  NON d   1     -37.495  18.290  -4.644  0.00  0.00     0.060 A 
BRANCH  12  13
ATOM     13  C4  NON d   1     -37.398  18.640  -6.056  0.00  0.00     0.193 A 
ATOM     14  N1  NON d   1     -38.505  18.943  -6.833  0.00  0.00    -0.204 NA
ATOM     15  C3  NON d   1     -37.966  19.356  -7.961  0.00  0.00     0.172 A 
ATOM     16  O2  NON d   1     -36.602  19.355  -7.931  0.00  0.00    -0.196 OA
ATOM     17  N5  NON d   1     -36.229  18.938  -6.659  0.00  0.00    -0.105 NA
BRANCH  15  18
ATOM     18  C2  NON d   1     -38.598  20.134  -9.060  0.00  0.00     0.084 C 
ATOM     19  C1  NON d   1     -40.092  20.492  -8.949  0.00  0.00     0.013 C 
ENDBRANCH  15  18
ENDBRANCH  12  13
ENDBRANCH   1   7
BRANCH   5  20
ATOM     20  C14 NON d   1     -43.452  17.655  -4.616  0.00  0.00     0.223 C 
ATOM     21  O1  NON d   1     -43.170  16.460  -4.543  0.00  0.00    -0.273 OA
ATOM     22  N4  NON d   1     -44.734  18.065  -4.910  0.00  0.00    -0.360 N 
ATOM     23  H16 NON d   1     -44.989  19.029  -4.741  0.00  0.00     0.162 HD
BRANCH  22  24
ATOM     24  C15 NON d   1     -45.782  17.058  -4.940  0.00  0.00     0.127 C 
BRANCH  24  25
ATOM     25  C16 NON d   1     -46.160  16.505  -3.566  0.00  0.00     0.053 C 
BRANCH  25  26
ATOM     26  C17 NON d   1     -47.613  16.162  -3.297  0.00  0.00    -0.082 C 
ATOM     27  C18 NON d   1     -48.343  15.281  -4.004  0.00  0.00    -0.024 C 
ATOM     28  C19 NON d   1     -49.776  14.948  -3.713  0.00  0.00     0.027 C 
ATOM     29  C20 NON d   1     -50.468  15.967  -2.812  0.00  0.00     0.004 C 
ATOM     30  C21 NON d   1     -49.584  16.424  -1.660  0.00  0.00     0.005 C 
ATOM     31  C22 NON d   1     -48.198  16.893  -2.109  0.00  0.00     0.034 C 
ENDBRANCH  25  26
ENDBRANCH  24  25
ENDBRANCH  22  24
ENDBRANCH   5  20
TORSDOF 7
ENDMDL
MODEL 9
REMARK VINA RESULT:    -9.025      2.341      4.250
REMARK INTER + INTRA:         -12.238
REMARK INTER:                 -11.113
REMARK INTRA:                  -1.125
REMARK CONF_INDEPENDENT:        2.088
REMARK UNBOUND:                -1.125
REMARK  7 active torsions:
REMARK  status: ('A' for Active; 'I' for Inactive)
REMARK    1  A    between atoms: C2_2  and  C3_3 
REMARK    2  A    between atoms: C4_5  and  C5_6 
REMARK    3  A    between atoms: C9_11  and  N3_12 
REMARK    4  A    between atoms: C13_16  and  C14_17 
REMARK       I    between atoms: C14_17  and  N4_19 
REMARK    5  A    between atoms: N4_19  and  C15_20 
REMARK    6  A    between atoms: C15_20  and  C16_21 
REMARK    7  A    between atoms: C16_21  and  C17_22 
ROOT
ATOM      1  N3  NON d   1     -39.059  19.807  -6.287  0.00  0.00    -0.364 N 
ATOM      2  C10 NON d   1     -38.941  21.044  -5.511  0.00  0.00     0.124 C 
ATOM      3  C11 NON d   1     -39.905  21.180  -4.335  0.00  0.00     0.021 C 
ATOM      4  C12 NON d   1     -41.183  20.367  -4.489  0.00  0.00     0.017 C 
ATOM      5  C13 NON d   1     -40.806  18.906  -4.659  0.00  0.00     0.096 C 
ATOM      6  C23 NON d   1     -39.870  18.682  -5.846  0.00  0.00     0.138 C 
ENDROOT
BRANCH   1   7
ATOM      7  C9  NON d   1     -38.194  19.688  -7.385  0.00  0.00     0.139 A 
ATOM      8  N2  NON d   1     -37.364  18.602  -7.329  0.00  0.00    -0.242 NA
ATOM      9  C8  NON d   1     -36.468  18.361  -8.310  0.00  0.00     0.119 A 
ATOM     10  C7  NON d   1     -36.305  19.171  -9.406  0.00  0.00     0.020 A 
ATOM     11  C6  NON d   1     -37.121  20.287  -9.491  0.00  0.00     0.021 A 
ATOM     12  C5  NON d   1     -38.088  20.561  -8.498  0.00  0.00     0.060 A 
BRANCH  12  13
ATOM     13  C4  NON d   1     -38.938  21.710  -8.791  0.00  0.00     0.193 A 
ATOM     14  N1  NON d   1     -38.566  22.715  -9.669  0.00  0.00    -0.204 NA
ATOM     15  C3  NON d   1     -39.662  23.438  -9.767  0.00  0.00     0.172 A 
ATOM     16  O2  NON d   1     -40.697  22.937  -9.032  0.00  0.00    -0.196 OA
ATOM     17  N5  NON d   1     -40.238  21.770  -8.434  0.00  0.00    -0.105 NA
BRANCH  15  18
ATOM     18  C2  NON d   1     -40.019  24.446 -10.801  0.00  0.00     0.084 C 
ATOM     19  C1  NON d   1     -39.838  25.940 -10.472  0.00  0.00     0.013 C 
ENDBRANCH  15  18
ENDBRANCH  12  13
ENDBRANCH   1   7
BRANCH   5  20
ATOM     20  C14 NON d   1     -42.011  17.976  -4.803  0.00  0.00     0.223 C 
ATOM     21  O1  NON d   1     -42.158  17.201  -5.747  0.00  0.00    -0.273 OA
ATOM     22  N4  NON d   1     -42.911  18.006  -3.762  0.00  0.00    -0.360 N 
ATOM     23  H16 NON d   1     -42.652  18.477  -2.905  0.00  0.00     0.162 HD
BRANCH  22  24
ATOM     24  C15 NON d   1     -43.928  16.969  -3.711  0.00  0.00     0.127 C 
BRANCH  24  25
ATOM     25  C16 NON d   1     -45.125  17.218  -4.628  0.00  0.00     0.053 C 
BRANCH  25  26
ATOM     26  C17 NON d   1     -46.472  16.644  -4.234  0.00  0.00    -0.082 C 
ATOM     27  C18 NON d   1     -47.105  16.882  -3.072  0.00  0.00    -0.024 C 
ATOM     28  C19 NON d   1     -48.444  16.313  -2.709  0.00  0.00     0.027 C 
ATOM     29  C20 NON d   1     -48.860  15.129  -3.577  0.00  0.00     0.004 C 
ATOM     30  C21 NON d   1     -48.542  15.345  -5.050  0.00  0.00     0.005 C 
ATOM     31  C22 NON d   1     -47.093  15.768  -5.301  0.00  0.00     0.034 C 
ENDBRANCH  25  26
ENDBRANCH  24  25
ENDBRANCH  22  24
ENDBRANCH   5  20
TORSDOF 7
ENDMDL
