MODEL 1
REMARK VINA RESULT:   -13.921      0.000      0.000
REMARK INTER + INTRA:         -17.541
REMARK INTER:                 -16.606
REMARK INTRA:                  -0.935
REMARK CONF_INDEPENDENT:        2.685
REMARK UNBOUND:                -0.935
REMARK  9 active torsions:
REMARK  status: ('A' for Active; 'I' for Inactive)
REMARK    1  A    between atoms: O1_2  and  C2_3 
REMARK    2  A    between atoms: C2_3  and  C3_4 
REMARK       I    between atoms: C3_4  and  N1_6 
REMARK    3  A    between atoms: N1_6  and  C4_7 
REMARK    4  A    between atoms: C8_11  and  N2_12 
REMARK       I    between atoms: N2_12  and  C9_13 
REMARK    5  A    between atoms: C9_13  and  C10_15 
REMARK    6  A    between atoms: C10_15  and  C11_16 
REMARK    7  A    between atoms: C11_16  and  C12_17 
REMARK    8  A    between atoms: C12_17  and  C13_18 
REMARK    9  A    between atoms: C13_18  and  C14_19 
ROOT
ATOM      1  N2  NON d   1     -40.498  19.693  -5.814  0.00  0.00    -0.327 N 
ATOM      2  C9  NON d   1     -40.662  20.195  -7.112  0.00  0.00     0.222 C 
ATOM      3  O3  NON d   1     -41.602  19.935  -7.861  0.00  0.00    -0.273 OA
ATOM      4  H10 NON d   1     -39.614  19.876  -5.354  0.00  0.00     0.169 HD
ENDROOT
BRANCH   1   5
ATOM      5  C8  NON d   1     -41.444  18.880  -5.097  0.00  0.00     0.036 A 
ATOM      6  C7  NON d   1     -41.034  18.039  -4.064  0.00  0.00     0.029 A 
ATOM      7  C6  NON d   1     -41.949  17.254  -3.370  0.00  0.00     0.004 A 
ATOM      8  C5  NON d   1     -43.299  17.280  -3.698  0.00  0.00     0.029 A 
ATOM      9  C4  NON d   1     -43.786  18.077  -4.740  0.00  0.00     0.036 A 
ATOM     10  C21 NON d   1     -42.834  18.885  -5.437  0.00  0.00     0.059 A 
BRANCH   9  11
ATOM     11  N1  NON d   1     -45.189  18.097  -5.088  0.00  0.00    -0.325 N 
ATOM     12  C3  NON d   1     -45.940  17.000  -5.569  0.00  0.00     0.245 C 
ATOM     13  O2  NON d   1     -45.457  15.893  -5.810  0.00  0.00    -0.271 OA
ATOM     14  H6  NON d   1     -45.662  18.986  -5.000  0.00  0.00     0.169 HD
BRANCH  12  15
ATOM     15  C2  NON d   1     -47.475  17.240  -5.814  0.00  0.00     0.270 C 
BRANCH  15  16
ATOM     16  O1  NON d   1     -48.174  15.983  -5.811  0.00  0.00    -0.387 OA
ATOM     17  C1  NON d   1     -48.241  15.201  -4.485  0.00  0.00     0.202 C 
ENDBRANCH  15  16
ENDBRANCH  12  15
ENDBRANCH   9  11
ENDBRANCH   1   5
BRANCH   2  18
ATOM     18  C10 NON d   1     -39.542  21.133  -7.602  0.00  0.00     0.103 C 
BRANCH  18  19
ATOM     19  C11 NON d   1     -39.171  20.835  -9.073  0.00  0.00     0.010 C 
BRANCH  19  20
ATOM     20  C12 NON d   1     -37.838  21.388  -9.609  0.00  0.00     0.005 C 
BRANCH  20  21
ATOM     21  C13 NON d   1     -37.795  21.738 -11.105  0.00  0.00     0.038 C 
BRANCH  21  22
ATOM     22  C14 NON d   1     -38.851  22.672 -11.637  0.00  0.00    -0.058 A 
ATOM     23  C15 NON d   1     -39.246  22.555 -12.978  0.00  0.00     0.007 A 
ATOM     24  C16 NON d   1     -40.194  23.425 -13.523  0.00  0.00     0.007 A 
ATOM     25  C17 NON d   1     -40.770  24.426 -12.736  0.00  0.00    -0.062 A 
ATOM     26  C18 NON d   1     -41.723  25.408 -13.348  0.00  0.00     0.048 C 
ATOM     27  C19 NON d   1     -40.431  24.501 -11.384  0.00  0.00     0.007 A 
ATOM     28  C20 NON d   1     -39.500  23.618 -10.836  0.00  0.00     0.007 A 
ENDBRANCH  21  22
ENDBRANCH  20  21
ENDBRANCH  19  20
ENDBRANCH  18  19
ENDBRANCH   2  18
TORSDOF 9
ENDMDL
MODEL 2
REMARK VINA RESULT:   -13.571      1.320      2.210
REMARK INTER + INTRA:         -17.353
REMARK INTER:                 -16.256
REMARK INTRA:                  -1.098
REMARK CONF_INDEPENDENT:        2.685
REMARK UNBOUND:                -1.098
REMARK  9 active torsions:
REMARK  status: ('A' for Active; 'I' for Inactive)
REMARK    1  A    between atoms: O1_2  and  C2_3 
REMARK    2  A    between atoms: C2_3  and  C3_4 
REMARK       I    between atoms: C3_4  and  N1_6 
REMARK    3  A    between atoms: N1_6  and  C4_7 
REMARK    4  A    between atoms: C8_11  and  N2_12 
REMARK       I    between atoms: N2_12  and  C9_13 
REMARK    5  A    between atoms: C9_13  and  C10_15 
REMARK    6  A    between atoms: C10_15  and  C11_16 
REMARK    7  A    between atoms: C11_16  and  C12_17 
REMARK    8  A    between atoms: C12_17  and  C13_18 
REMARK    9  A    between atoms: C13_18  and  C14_19 
ROOT
ATOM      1  N2  NON d   1     -40.724  19.649  -6.045  0.00  0.00    -0.327 N 
ATOM      2  C9  NON d   1     -40.104  19.253  -7.238  0.00  0.00     0.222 C 
ATOM      3  O3  NON d   1     -40.122  18.115  -7.703  0.00  0.00    -0.273 OA
ATOM      4  H10 NON d   1     -40.521  20.581  -5.704  0.00  0.00     0.169 HD
ENDROOT
BRANCH   1   5
ATOM      5  C8  NON d   1     -41.572  18.829  -5.221  0.00  0.00     0.036 A 
ATOM      6  C7  NON d   1     -41.040  18.037  -4.205  0.00  0.00     0.029 A 
ATOM      7  C6  NON d   1     -41.858  17.245  -3.407  0.00  0.00     0.004 A 
ATOM      8  C5  NON d   1     -43.233  17.214  -3.611  0.00  0.00     0.029 A 
ATOM      9  C4  NON d   1     -43.841  17.960  -4.628  0.00  0.00     0.036 A 
ATOM     10  C21 NON d   1     -42.986  18.775  -5.432  0.00  0.00     0.059 A 
BRANCH   9  11
ATOM     11  N1  NON d   1     -45.269  17.920  -4.847  0.00  0.00    -0.325 N 
ATOM     12  C3  NON d   1     -45.996  16.837  -5.392  0.00  0.00     0.245 C 
ATOM     13  O2  NON d   1     -45.472  15.803  -5.810  0.00  0.00    -0.271 OA
ATOM     14  H6  NON d   1     -45.784  18.757  -4.609  0.00  0.00     0.169 HD
BRANCH  12  15
ATOM     15  C2  NON d   1     -47.559  16.994  -5.471  0.00  0.00     0.270 C 
BRANCH  15  16
ATOM     16  O1  NON d   1     -48.161  15.733  -5.811  0.00  0.00    -0.387 OA
ATOM     17  C1  NON d   1     -48.968  15.005  -4.719  0.00  0.00     0.202 C 
ENDBRANCH  15  16
ENDBRANCH  12  15
ENDBRANCH   9  11
ENDBRANCH   1   5
BRANCH   2  18
ATOM     18  C10 NON d   1     -39.339  20.363  -7.983  0.00  0.00     0.103 C 
BRANCH  18  19
ATOM     19  C11 NON d   1     -40.269  21.552  -8.317  0.00  0.00     0.010 C 
BRANCH  19  20
ATOM     20  C12 NON d   1     -39.750  22.976  -8.045  0.00  0.00     0.005 C 
BRANCH  20  21
ATOM     21  C13 NON d   1     -39.175  23.736  -9.250  0.00  0.00     0.038 C 
BRANCH  21  22
ATOM     22  C14 NON d   1     -38.641  22.923 -10.402  0.00  0.00    -0.058 A 
ATOM     23  C15 NON d   1     -39.450  22.740 -11.534  0.00  0.00     0.007 A 
ATOM     24  C16 NON d   1     -39.011  21.963 -12.608  0.00  0.00     0.007 A 
ATOM     25  C17 NON d   1     -37.751  21.357 -12.575  0.00  0.00    -0.062 A 
ATOM     26  C18 NON d   1     -37.319  20.457 -13.693  0.00  0.00     0.048 C 
ATOM     27  C19 NON d   1     -36.916  21.595 -11.481  0.00  0.00     0.007 A 
ATOM     28  C20 NON d   1     -37.348  22.389 -10.418  0.00  0.00     0.007 A 
ENDBRANCH  21  22
ENDBRANCH  20  21
ENDBRANCH  19  20
ENDBRANCH  18  19
ENDBRANCH   2  18
TORSDOF 9
ENDMDL
MODEL 3
REMARK VINA RESULT:   -13.546      3.150      6.185
REMARK INTER + INTRA:         -17.812
REMARK INTER:                 -16.231
REMARK INTRA:                  -1.581
REMARK CONF_INDEPENDENT:        2.685
REMARK UNBOUND:                -1.581
REMARK  9 active torsions:
REMARK  status: ('A' for Active; 'I' for Inactive)
REMARK    1  A    between atoms: O1_2  and  C2_3 
REMARK    2  A    between atoms: C2_3  and  C3_4 
REMARK       I    between atoms: C3_4  and  N1_6 
REMARK    3  A    between atoms: N1_6  and  C4_7 
REMARK    4  A    between atoms: C8_11  and  N2_12 
REMARK       I    between atoms: N2_12  and  C9_13 
REMARK    5  A    between atoms: C9_13  and  C10_15 
REMARK    6  A    between atoms: C10_15  and  C11_16 
REMARK    7  A    between atoms: C11_16  and  C12_17 
REMARK    8  A    between atoms: C12_17  and  C13_18 
REMARK    9  A    between atoms: C13_18  and  C14_19 
ROOT
ATOM      1  N2  NON d   1     -40.547  19.886  -5.702  0.00  0.00    -0.327 N 
ATOM      2  C9  NON d   1     -40.642  20.328  -7.028  0.00  0.00     0.222 C 
ATOM      3  O3  NON d   1     -41.476  19.946  -7.847  0.00  0.00    -0.273 OA
ATOM      4  H10 NON d   1     -39.734  20.177  -5.173  0.00  0.00     0.169 HD
ENDROOT
BRANCH   1   5
ATOM      5  C8  NON d   1     -41.467  19.000  -5.040  0.00  0.00     0.036 A 
ATOM      6  C7  NON d   1     -41.030  18.106  -4.063  0.00  0.00     0.029 A 
ATOM      7  C6  NON d   1     -41.919  17.250  -3.422  0.00  0.00     0.004 A 
ATOM      8  C5  NON d   1     -43.270  17.256  -3.748  0.00  0.00     0.029 A 
ATOM      9  C4  NON d   1     -43.783  18.104  -4.736  0.00  0.00     0.036 A 
ATOM     10  C21 NON d   1     -42.857  18.984  -5.378  0.00  0.00     0.059 A 
BRANCH   9  11
ATOM     11  N1  NON d   1     -45.186  18.104  -5.082  0.00  0.00    -0.325 N 
ATOM     12  C3  NON d   1     -45.922  16.997  -5.565  0.00  0.00     0.245 C 
ATOM     13  O2  NON d   1     -45.422  15.898  -5.810  0.00  0.00    -0.271 OA
ATOM     14  H6  NON d   1     -45.673  18.985  -4.992  0.00  0.00     0.169 HD
BRANCH  12  15
ATOM     15  C2  NON d   1     -47.461  17.214  -5.808  0.00  0.00     0.270 C 
BRANCH  15  16
ATOM     16  O1  NON d   1     -48.139  15.946  -5.811  0.00  0.00    -0.387 OA
ATOM     17  C1  NON d   1     -48.602  15.376  -4.457  0.00  0.00     0.202 C 
ENDBRANCH  15  16
ENDBRANCH  12  15
ENDBRANCH   9  11
ENDBRANCH   1   5
BRANCH   2  18
ATOM     18  C10 NON d   1     -39.584  21.364  -7.454  0.00  0.00     0.103 C 
BRANCH  18  19
ATOM     19  C11 NON d   1     -39.022  22.122  -6.229  0.00  0.00     0.010 C 
BRANCH  19  20
ATOM     20  C12 NON d   1     -39.894  23.221  -5.596  0.00  0.00     0.005 C 
BRANCH  20  21
ATOM     21  C13 NON d   1     -41.034  22.749  -4.681  0.00  0.00     0.038 C 
BRANCH  21  22
ATOM     22  C14 NON d   1     -40.718  22.528  -3.224  0.00  0.00    -0.058 A 
ATOM     23  C15 NON d   1     -41.066  23.521  -2.297  0.00  0.00     0.007 A 
ATOM     24  C16 NON d   1     -40.758  23.374  -0.942  0.00  0.00     0.007 A 
ATOM     25  C17 NON d   1     -40.100  22.228  -0.486  0.00  0.00    -0.062 A 
ATOM     26  C18 NON d   1     -39.698  22.114   0.953  0.00  0.00     0.048 C 
ATOM     27  C19 NON d   1     -39.815  21.207  -1.395  0.00  0.00     0.007 A 
ATOM     28  C20 NON d   1     -40.142  21.346  -2.744  0.00  0.00     0.007 A 
ENDBRANCH  21  22
ENDBRANCH  20  21
ENDBRANCH  19  20
ENDBRANCH  18  19
ENDBRANCH   2  18
TORSDOF 9
ENDMDL
MODEL 4
REMARK VINA RESULT:   -13.343      3.660      7.540
REMARK INTER + INTRA:         -17.167
REMARK INTER:                 -16.027
REMARK INTRA:                  -1.140
REMARK CONF_INDEPENDENT:        2.685
REMARK UNBOUND:                -1.140
REMARK  9 active torsions:
REMARK  status: ('A' for Active; 'I' for Inactive)
REMARK    1  A    between atoms: O1_2  and  C2_3 
REMARK    2  A    between atoms: C2_3  and  C3_4 
REMARK       I    between atoms: C3_4  and  N1_6 
REMARK    3  A    between atoms: N1_6  and  C4_7 
REMARK    4  A    between atoms: C8_11  and  N2_12 
REMARK       I    between atoms: N2_12  and  C9_13 
REMARK    5  A    between atoms: C9_13  and  C10_15 
REMARK    6  A    between atoms: C10_15  and  C11_16 
REMARK    7  A    between atoms: C11_16  and  C12_17 
REMARK    8  A    between atoms: C12_17  and  C13_18 
REMARK    9  A    between atoms: C13_18  and  C14_19 
ROOT
ATOM      1  N2  NON d   1     -46.557  16.807  -3.534  0.00  0.00    -0.327 N 
ATOM      2  C9  NON d   1     -45.838  16.866  -4.735  0.00  0.00     0.222 C 
ATOM      3  O3  NON d   1     -46.211  16.399  -5.810  0.00  0.00    -0.273 OA
ATOM      4  H10 NON d   1     -46.080  17.110  -2.693  0.00  0.00     0.169 HD
ENDROOT
BRANCH   1   5
ATOM      5  C8  NON d   1     -47.891  16.293  -3.372  0.00  0.00     0.036 A 
ATOM      6  C7  NON d   1     -48.297  15.129  -4.023  0.00  0.00     0.029 A 
ATOM      7  C6  NON d   1     -49.585  14.630  -3.866  0.00  0.00     0.004 A 
ATOM      8  C5  NON d   1     -50.508  15.288  -3.062  0.00  0.00     0.029 A 
ATOM      9  C4  NON d   1     -50.187  16.476  -2.397  0.00  0.00     0.036 A 
ATOM     10  C21 NON d   1     -48.855  16.970  -2.561  0.00  0.00     0.059 A 
BRANCH   9  11
ATOM     11  N1  NON d   1     -51.149  17.167  -1.569  0.00  0.00    -0.325 N 
ATOM     12  C3  NON d   1     -52.540  17.255  -1.809  0.00  0.00     0.245 C 
ATOM     13  O2  NON d   1     -53.091  16.795  -2.810  0.00  0.00    -0.271 OA
ATOM     14  H6  NON d   1     -50.783  17.649  -0.759  0.00  0.00     0.169 HD
BRANCH  12  15
ATOM     15  C2  NON d   1     -53.405  18.002  -0.729  0.00  0.00     0.270 C 
BRANCH  15  16
ATOM     16  O1  NON d   1     -52.846  19.301  -0.467  0.00  0.00    -0.387 OA
ATOM     17  C1  NON d   1     -53.817  20.446  -0.121  0.00  0.00     0.202 C 
ENDBRANCH  15  16
ENDBRANCH  12  15
ENDBRANCH   9  11
ENDBRANCH   1   5
BRANCH   2  18
ATOM     18  C10 NON d   1     -44.470  17.569  -4.651  0.00  0.00     0.103 C 
BRANCH  18  19
ATOM     19  C11 NON d   1     -43.585  16.933  -3.553  0.00  0.00     0.010 C 
BRANCH  19  20
ATOM     20  C12 NON d   1     -42.080  17.255  -3.560  0.00  0.00     0.005 C 
BRANCH  20  21
ATOM     21  C13 NON d   1     -41.698  18.736  -3.703  0.00  0.00     0.038 C 
BRANCH  21  22
ATOM     22  C14 NON d   1     -41.140  19.192  -5.027  0.00  0.00    -0.058 A 
ATOM     23  C15 NON d   1     -41.160  20.560  -5.336  0.00  0.00     0.007 A 
ATOM     24  C16 NON d   1     -40.689  21.023  -6.567  0.00  0.00     0.007 A 
ATOM     25  C17 NON d   1     -40.183  20.126  -7.513  0.00  0.00    -0.062 A 
ATOM     26  C18 NON d   1     -39.756  20.617  -8.862  0.00  0.00     0.048 C 
ATOM     27  C19 NON d   1     -40.097  18.772  -7.181  0.00  0.00     0.007 A 
ATOM     28  C20 NON d   1     -40.548  18.315  -5.943  0.00  0.00     0.007 A 
ENDBRANCH  21  22
ENDBRANCH  20  21
ENDBRANCH  19  20
ENDBRANCH  18  19
ENDBRANCH   2  18
TORSDOF 9
ENDMDL
MODEL 5
REMARK VINA RESULT:   -13.266      6.511      9.542
REMARK INTER + INTRA:         -16.742
REMARK INTER:                 -15.951
REMARK INTRA:                  -0.791
REMARK CONF_INDEPENDENT:        2.685
REMARK UNBOUND:                -0.791
REMARK  9 active torsions:
REMARK  status: ('A' for Active; 'I' for Inactive)
REMARK    1  A    between atoms: O1_2  and  C2_3 
REMARK    2  A    between atoms: C2_3  and  C3_4 
REMARK       I    between atoms: C3_4  and  N1_6 
REMARK    3  A    between atoms: N1_6  and  C4_7 
REMARK    4  A    between atoms: C8_11  and  N2_12 
REMARK       I    between atoms: N2_12  and  C9_13 
REMARK    5  A    between atoms: C9_13  and  C10_15 
REMARK    6  A    between atoms: C10_15  and  C11_16 
REMARK    7  A    between atoms: C11_16  and  C12_17 
REMARK    8  A    between atoms: C12_17  and  C13_18 
REMARK    9  A    between atoms: C13_18  and  C14_19 
ROOT
ATOM      1  N2  NON d   1     -40.567  19.189  -1.973  0.00  0.00    -0.327 N 
ATOM      2  C9  NON d   1     -40.287  20.559  -1.884  0.00  0.00     0.222 C 
ATOM      3  O3  NON d   1     -40.517  21.390  -2.761  0.00  0.00    -0.273 OA
ATOM      4  H10 NON d   1     -40.206  18.593  -1.238  0.00  0.00     0.169 HD
ENDROOT
BRANCH   1   5
ATOM      5  C8  NON d   1     -41.263  18.538  -3.051  0.00  0.00     0.036 A 
ATOM      6  C7  NON d   1     -40.690  18.428  -4.316  0.00  0.00     0.029 A 
ATOM      7  C6  NON d   1     -41.362  17.798  -5.358  0.00  0.00     0.004 A 
ATOM      8  C5  NON d   1     -42.633  17.270  -5.166  0.00  0.00     0.029 A 
ATOM      9  C4  NON d   1     -43.288  17.363  -3.933  0.00  0.00     0.036 A 
ATOM     10  C21 NON d   1     -42.579  18.006  -2.871  0.00  0.00     0.059 A 
BRANCH   9  11
ATOM     11  N1  NON d   1     -44.614  16.823  -3.735  0.00  0.00    -0.325 N 
ATOM     12  C3  NON d   1     -45.654  16.805  -4.693  0.00  0.00     0.245 C 
ATOM     13  O2  NON d   1     -45.565  17.317  -5.809  0.00  0.00    -0.271 OA
ATOM     14  H6  NON d   1     -44.815  16.448  -2.819  0.00  0.00     0.169 HD
BRANCH  12  15
ATOM     15  C2  NON d   1     -46.996  16.097  -4.275  0.00  0.00     0.270 C 
BRANCH  15  16
ATOM     16  O1  NON d   1     -47.645  15.555  -5.438  0.00  0.00    -0.387 OA
ATOM     17  C1  NON d   1     -49.018  14.883  -5.248  0.00  0.00     0.202 C 
ENDBRANCH  15  16
ENDBRANCH  12  15
ENDBRANCH   9  11
ENDBRANCH   1   5
BRANCH   2  18
ATOM     18  C10 NON d   1     -39.626  21.012  -0.568  0.00  0.00     0.103 C 
BRANCH  18  19
ATOM     19  C11 NON d   1     -40.449  22.130   0.113  0.00  0.00     0.010 C 
BRANCH  19  20
ATOM     20  C12 NON d   1     -39.704  23.131   1.013  0.00  0.00     0.005 C 
BRANCH  20  21
ATOM     21  C13 NON d   1     -40.151  24.598   0.921  0.00  0.00     0.038 C 
BRANCH  21  22
ATOM     22  C14 NON d   1     -40.897  25.179   2.095  0.00  0.00    -0.058 A 
ATOM     23  C15 NON d   1     -41.065  24.396   3.247  0.00  0.00     0.007 A 
ATOM     24  C16 NON d   1     -41.782  24.880   4.343  0.00  0.00     0.007 A 
ATOM     25  C17 NON d   1     -42.341  26.161   4.312  0.00  0.00    -0.062 A 
ATOM     26  C18 NON d   1     -43.180  26.644   5.457  0.00  0.00     0.048 C 
ATOM     27  C19 NON d   1     -42.117  26.969   3.196  0.00  0.00     0.007 A 
ATOM     28  C20 NON d   1     -41.382  26.492   2.110  0.00  0.00     0.007 A 
ENDBRANCH  21  22
ENDBRANCH  20  21
ENDBRANCH  19  20
ENDBRANCH  18  19
ENDBRANCH   2  18
TORSDOF 9
ENDMDL
MODEL 6
REMARK VINA RESULT:   -13.123      3.378      5.360
REMARK INTER + INTRA:         -17.702
REMARK INTER:                 -15.807
REMARK INTRA:                  -1.894
REMARK CONF_INDEPENDENT:        2.685
REMARK UNBOUND:                -1.894
REMARK  9 active torsions:
REMARK  status: ('A' for Active; 'I' for Inactive)
REMARK    1  A    between atoms: O1_2  and  C2_3 
REMARK    2  A    between atoms: C2_3  and  C3_4 
REMARK       I    between atoms: C3_4  and  N1_6 
REMARK    3  A    between atoms: N1_6  and  C4_7 
REMARK    4  A    between atoms: C8_11  and  N2_12 
REMARK       I    between atoms: N2_12  and  C9_13 
REMARK    5  A    between atoms: C9_13  and  C10_15 
REMARK    6  A    between atoms: C10_15  and  C11_16 
REMARK    7  A    between atoms: C11_16  and  C12_17 
REMARK    8  A    between atoms: C12_17  and  C13_18 
REMARK    9  A    between atoms: C13_18  and  C14_19 
ROOT
ATOM      1  N2  NON d   1     -40.406  18.674  -6.062  0.00  0.00    -0.327 N 
ATOM      2  C9  NON d   1     -40.610  19.515  -7.164  0.00  0.00     0.222 C 
ATOM      3  O3  NON d   1     -41.696  19.974  -7.516  0.00  0.00    -0.273 OA
ATOM      4  H10 NON d   1     -39.489  18.257  -5.960  0.00  0.00     0.169 HD
ENDROOT
BRANCH   1   5
ATOM      5  C8  NON d   1     -41.401  18.293  -5.094  0.00  0.00     0.036 A 
ATOM      6  C7  NON d   1     -41.039  17.895  -3.809  0.00  0.00     0.029 A 
ATOM      7  C6  NON d   1     -42.000  17.529  -2.872  0.00  0.00     0.004 A 
ATOM      8  C5  NON d   1     -43.351  17.539  -3.200  0.00  0.00     0.029 A 
ATOM      9  C4  NON d   1     -43.793  17.901  -4.478  0.00  0.00     0.036 A 
ATOM     10  C21 NON d   1     -42.793  18.284  -5.425  0.00  0.00     0.059 A 
BRANCH   9  11
ATOM     11  N1  NON d   1     -45.196  17.902  -4.823  0.00  0.00    -0.325 N 
ATOM     12  C3  NON d   1     -45.902  16.841  -5.435  0.00  0.00     0.245 C 
ATOM     13  O2  NON d   1     -45.372  15.794  -5.810  0.00  0.00    -0.271 OA
ATOM     14  H6  NON d   1     -45.707  18.752  -4.628  0.00  0.00     0.169 HD
BRANCH  12  15
ATOM     15  C2  NON d   1     -47.447  17.042  -5.652  0.00  0.00     0.270 C 
BRANCH  15  16
ATOM     16  O1  NON d   1     -48.088  15.765  -5.819  0.00  0.00    -0.387 OA
ATOM     17  C1  NON d   1     -48.762  15.132  -4.587  0.00  0.00     0.202 C 
ENDBRANCH  15  16
ENDBRANCH  12  15
ENDBRANCH   9  11
ENDBRANCH   1   5
BRANCH   2  18
ATOM     18  C10 NON d   1     -39.347  19.850  -7.980  0.00  0.00     0.103 C 
BRANCH  18  19
ATOM     19  C11 NON d   1     -38.445  18.605  -8.145  0.00  0.00     0.010 C 
BRANCH  19  20
ATOM     20  C12 NON d   1     -36.944  18.753  -7.839  0.00  0.00     0.005 C 
BRANCH  20  21
ATOM     21  C13 NON d   1     -36.490  18.346  -6.429  0.00  0.00     0.038 C 
BRANCH  21  22
ATOM     22  C14 NON d   1     -37.196  18.976  -5.255  0.00  0.00    -0.058 A 
ATOM     23  C15 NON d   1     -37.412  18.207  -4.102  0.00  0.00     0.007 A 
ATOM     24  C16 NON d   1     -38.096  18.738  -3.006  0.00  0.00     0.007 A 
ATOM     25  C17 NON d   1     -38.573  20.052  -3.039  0.00  0.00    -0.062 A 
ATOM     26  C18 NON d   1     -39.377  20.589  -1.894  0.00  0.00     0.048 C 
ATOM     27  C19 NON d   1     -38.299  20.842  -4.157  0.00  0.00     0.007 A 
ATOM     28  C20 NON d   1     -37.597  20.316  -5.243  0.00  0.00     0.007 A 
ENDBRANCH  21  22
ENDBRANCH  20  21
ENDBRANCH  19  20
ENDBRANCH  18  19
ENDBRANCH   2  18
TORSDOF 9
ENDMDL
MODEL 7
REMARK VINA RESULT:   -13.061      2.657      4.839
REMARK INTER + INTRA:         -17.702
REMARK INTER:                 -15.746
REMARK INTRA:                  -1.956
REMARK CONF_INDEPENDENT:        2.685
REMARK UNBOUND:                -1.956
REMARK  9 active torsions:
REMARK  status: ('A' for Active; 'I' for Inactive)
REMARK    1  A    between atoms: O1_2  and  C2_3 
REMARK    2  A    between atoms: C2_3  and  C3_4 
REMARK       I    between atoms: C3_4  and  N1_6 
REMARK    3  A    between atoms: N1_6  and  C4_7 
REMARK    4  A    between atoms: C8_11  and  N2_12 
REMARK       I    between atoms: N2_12  and  C9_13 
REMARK    5  A    between atoms: C9_13  and  C10_15 
REMARK    6  A    between atoms: C10_15  and  C11_16 
REMARK    7  A    between atoms: C11_16  and  C12_17 
REMARK    8  A    between atoms: C12_17  and  C13_18 
REMARK    9  A    between atoms: C13_18  and  C14_19 
ROOT
ATOM      1  N2  NON d   1     -40.695  19.584  -6.101  0.00  0.00    -0.327 N 
ATOM      2  C9  NON d   1     -39.999  19.121  -7.226  0.00  0.00     0.222 C 
ATOM      3  O3  NON d   1     -39.933  17.948  -7.588  0.00  0.00    -0.273 OA
ATOM      4  H10 NON d   1     -40.558  20.552  -5.837  0.00  0.00     0.169 HD
ENDROOT
BRANCH   1   5
ATOM      5  C8  NON d   1     -41.535  18.791  -5.244  0.00  0.00     0.036 A 
ATOM      6  C7  NON d   1     -40.994  18.025  -4.213  0.00  0.00     0.029 A 
ATOM      7  C6  NON d   1     -41.806  17.259  -3.383  0.00  0.00     0.004 A 
ATOM      8  C5  NON d   1     -43.183  17.230  -3.568  0.00  0.00     0.029 A 
ATOM      9  C4  NON d   1     -43.801  17.950  -4.597  0.00  0.00     0.036 A 
ATOM     10  C21 NON d   1     -42.952  18.739  -5.435  0.00  0.00     0.059 A 
BRANCH   9  11
ATOM     11  N1  NON d   1     -45.232  17.912  -4.797  0.00  0.00    -0.325 N 
ATOM     12  C3  NON d   1     -45.963  16.840  -5.359  0.00  0.00     0.245 C 
ATOM     13  O2  NON d   1     -45.443  15.819  -5.811  0.00  0.00    -0.271 OA
ATOM     14  H6  NON d   1     -45.746  18.740  -4.531  0.00  0.00     0.169 HD
BRANCH  12  15
ATOM     15  C2  NON d   1     -47.528  16.994  -5.412  0.00  0.00     0.270 C 
BRANCH  15  16
ATOM     16  O1  NON d   1     -48.129  15.750  -5.810  0.00  0.00    -0.387 OA
ATOM     17  C1  NON d   1     -48.994  15.006  -4.776  0.00  0.00     0.202 C 
ENDBRANCH  15  16
ENDBRANCH  12  15
ENDBRANCH   9  11
ENDBRANCH   1   5
BRANCH   2  18
ATOM     18  C10 NON d   1     -39.260  20.204  -8.034  0.00  0.00     0.103 C 
BRANCH  18  19
ATOM     19  C11 NON d   1     -40.191  21.399  -8.345  0.00  0.00     0.010 C 
BRANCH  19  20
ATOM     20  C12 NON d   1     -39.642  22.820  -8.129  0.00  0.00     0.005 C 
BRANCH  20  21
ATOM     21  C13 NON d   1     -38.677  23.008  -6.947  0.00  0.00     0.038 C 
BRANCH  21  22
ATOM     22  C14 NON d   1     -39.082  22.437  -5.613  0.00  0.00    -0.058 A 
ATOM     23  C15 NON d   1     -38.131  21.734  -4.860  0.00  0.00     0.007 A 
ATOM     24  C16 NON d   1     -38.473  21.155  -3.636  0.00  0.00     0.007 A 
ATOM     25  C17 NON d   1     -39.774  21.272  -3.137  0.00  0.00    -0.062 A 
ATOM     26  C18 NON d   1     -40.157  20.579  -1.865  0.00  0.00     0.048 C 
ATOM     27  C19 NON d   1     -40.705  22.030  -3.850  0.00  0.00     0.007 A 
ATOM     28  C20 NON d   1     -40.355  22.626  -5.063  0.00  0.00     0.007 A 
ENDBRANCH  21  22
ENDBRANCH  20  21
ENDBRANCH  19  20
ENDBRANCH  18  19
ENDBRANCH   2  18
TORSDOF 9
ENDMDL
MODEL 8
REMARK VINA RESULT:   -12.615      4.697      7.340
REMARK INTER + INTRA:         -16.559
REMARK INTER:                 -15.299
REMARK INTRA:                  -1.260
REMARK CONF_INDEPENDENT:        2.685
REMARK UNBOUND:                -1.260
REMARK  9 active torsions:
REMARK  status: ('A' for Active; 'I' for Inactive)
REMARK    1  A    between atoms: O1_2  and  C2_3 
REMARK    2  A    between atoms: C2_3  and  C3_4 
REMARK       I    between atoms: C3_4  and  N1_6 
REMARK    3  A    between atoms: N1_6  and  C4_7 
REMARK    4  A    between atoms: C8_11  and  N2_12 
REMARK       I    between atoms: N2_12  and  C9_13 
REMARK    5  A    between atoms: C9_13  and  C10_15 
REMARK    6  A    between atoms: C10_15  and  C11_16 
REMARK    7  A    between atoms: C11_16  and  C12_17 
REMARK    8  A    between atoms: C12_17  and  C13_18 
REMARK    9  A    between atoms: C13_18  and  C14_19 
ROOT
ATOM      1  N2  NON d   1     -40.612  19.982  -4.752  0.00  0.00    -0.327 N 
ATOM      2  C9  NON d   1     -40.687  21.330  -4.376  0.00  0.00     0.222 C 
ATOM      3  O3  NON d   1     -41.632  21.853  -3.788  0.00  0.00    -0.273 OA
ATOM      4  H10 NON d   1     -39.841  19.709  -5.349  0.00  0.00     0.169 HD
ENDROOT
BRANCH   1   5
ATOM      5  C8  NON d   1     -41.569  18.960  -4.422  0.00  0.00     0.036 A 
ATOM      6  C7  NON d   1     -41.218  17.877  -3.618  0.00  0.00     0.029 A 
ATOM      7  C6  NON d   1     -42.143  16.889  -3.297  0.00  0.00     0.004 A 
ATOM      8  C5  NON d   1     -43.444  16.951  -3.782  0.00  0.00     0.029 A 
ATOM      9  C4  NON d   1     -43.868  17.991  -4.616  0.00  0.00     0.036 A 
ATOM     10  C21 NON d   1     -42.907  19.003  -4.928  0.00  0.00     0.059 A 
BRANCH   9  11
ATOM     11  N1  NON d   1     -45.218  18.051  -5.128  0.00  0.00    -0.325 N 
ATOM     12  C3  NON d   1     -45.952  16.967  -5.661  0.00  0.00     0.245 C 
ATOM     13  O2  NON d   1     -45.490  15.835  -5.810  0.00  0.00    -0.271 OA
ATOM     14  H6  NON d   1     -45.661  18.960  -5.125  0.00  0.00     0.169 HD
BRANCH  12  15
ATOM     15  C2  NON d   1     -47.437  17.255  -6.094  0.00  0.00     0.270 C 
BRANCH  15  16
ATOM     16  O1  NON d   1     -48.222  16.055  -5.978  0.00  0.00    -0.387 OA
ATOM     17  C1  NON d   1     -48.169  15.287  -4.644  0.00  0.00     0.202 C 
ENDBRANCH  15  16
ENDBRANCH  12  15
ENDBRANCH   9  11
ENDBRANCH   1   5
BRANCH   2  18
ATOM     18  C10 NON d   1     -39.470  22.191  -4.767  0.00  0.00     0.103 C 
BRANCH  18  19
ATOM     19  C11 NON d   1     -38.723  22.701  -3.512  0.00  0.00     0.010 C 
BRANCH  19  20
ATOM     20  C12 NON d   1     -38.484  21.709  -2.360  0.00  0.00     0.005 C 
BRANCH  20  21
ATOM     21  C13 NON d   1     -39.684  21.420  -1.445  0.00  0.00     0.038 C 
BRANCH  21  22
ATOM     22  C14 NON d   1     -40.167  22.531  -0.550  0.00  0.00    -0.058 A 
ATOM     23  C15 NON d   1     -40.875  23.601  -1.118  0.00  0.00     0.007 A 
ATOM     24  C16 NON d   1     -41.308  24.671  -0.332  0.00  0.00     0.007 A 
ATOM     25  C17 NON d   1     -41.047  24.690   1.042  0.00  0.00    -0.062 A 
ATOM     26  C18 NON d   1     -41.440  25.879   1.865  0.00  0.00     0.048 C 
ATOM     27  C19 NON d   1     -40.404  23.595   1.622  0.00  0.00     0.007 A 
ATOM     28  C20 NON d   1     -39.991  22.517   0.838  0.00  0.00     0.007 A 
ENDBRANCH  21  22
ENDBRANCH  20  21
ENDBRANCH  19  20
ENDBRANCH  18  19
ENDBRANCH   2  18
TORSDOF 9
ENDMDL
MODEL 9
REMARK VINA RESULT:   -12.440      3.072      5.210
REMARK INTER + INTRA:         -16.913
REMARK INTER:                 -15.125
REMARK INTRA:                  -1.788
REMARK CONF_INDEPENDENT:        2.685
REMARK UNBOUND:                -1.788
REMARK  9 active torsions:
REMARK  status: ('A' for Active; 'I' for Inactive)
REMARK    1  A    between atoms: O1_2  and  C2_3 
REMARK    2  A    between atoms: C2_3  and  C3_4 
REMARK       I    between atoms: C3_4  and  N1_6 
REMARK    3  A    between atoms: N1_6  and  C4_7 
REMARK    4  A    between atoms: C8_11  and  N2_12 
REMARK       I    between atoms: N2_12  and  C9_13 
REMARK    5  A    between atoms: C9_13  and  C10_15 
REMARK    6  A    between atoms: C10_15  and  C11_16 
REMARK    7  A    between atoms: C11_16  and  C12_17 
REMARK    8  A    between atoms: C12_17  and  C13_18 
REMARK    9  A    between atoms: C13_18  and  C14_19 
ROOT
ATOM      1  N2  NON d   1     -40.710  19.611  -5.978  0.00  0.00    -0.327 N 
ATOM      2  C9  NON d   1     -40.048  19.187  -7.138  0.00  0.00     0.222 C 
ATOM      3  O3  NON d   1     -40.039  18.036  -7.571  0.00  0.00    -0.273 OA
ATOM      4  H10 NON d   1     -40.528  20.554  -5.658  0.00  0.00     0.169 HD
ENDROOT
BRANCH   1   5
ATOM      5  C8  NON d   1     -41.577  18.806  -5.159  0.00  0.00     0.036 A 
ATOM      6  C7  NON d   1     -41.068  18.032  -4.117  0.00  0.00     0.029 A 
ATOM      7  C6  NON d   1     -41.905  17.254  -3.324  0.00  0.00     0.004 A 
ATOM      8  C5  NON d   1     -43.274  17.220  -3.558  0.00  0.00     0.029 A 
ATOM      9  C4  NON d   1     -43.859  17.947  -4.601  0.00  0.00     0.036 A 
ATOM     10  C21 NON d   1     -42.986  18.748  -5.401  0.00  0.00     0.059 A 
BRANCH   9  11
ATOM     11  N1  NON d   1     -45.282  17.904  -4.852  0.00  0.00    -0.325 N 
ATOM     12  C3  NON d   1     -45.994  16.816  -5.408  0.00  0.00     0.245 C 
ATOM     13  O2  NON d   1     -45.459  15.782  -5.810  0.00  0.00    -0.271 OA
ATOM     14  H6  NON d   1     -45.804  18.740  -4.630  0.00  0.00     0.169 HD
BRANCH  12  15
ATOM     15  C2  NON d   1     -47.555  16.970  -5.523  0.00  0.00     0.270 C 
BRANCH  15  16
ATOM     16  O1  NON d   1     -48.153  15.694  -5.812  0.00  0.00    -0.387 OA
ATOM     17  C1  NON d   1     -48.958  15.007  -4.693  0.00  0.00     0.202 C 
ENDBRANCH  15  16
ENDBRANCH  12  15
ENDBRANCH   9  11
ENDBRANCH   1   5
BRANCH   2  18
ATOM     18  C10 NON d   1     -39.269  20.284  -7.890  0.00  0.00     0.103 C 
BRANCH  18  19
ATOM     19  C11 NON d   1     -39.797  21.691  -7.524  0.00  0.00     0.010 C 
BRANCH  19  20
ATOM     20  C12 NON d   1     -38.808  22.698  -6.912  0.00  0.00     0.005 C 
BRANCH  20  21
ATOM     21  C13 NON d   1     -38.381  22.442  -5.459  0.00  0.00     0.038 C 
BRANCH  21  22
ATOM     22  C14 NON d   1     -37.807  21.088  -5.125  0.00  0.00    -0.058 A 
ATOM     23  C15 NON d   1     -36.736  20.600  -5.888  0.00  0.00     0.007 A 
ATOM     24  C16 NON d   1     -36.198  19.335  -5.638  0.00  0.00     0.007 A 
ATOM     25  C17 NON d   1     -36.718  18.535  -4.616  0.00  0.00    -0.062 A 
ATOM     26  C18 NON d   1     -36.193  17.147  -4.407  0.00  0.00     0.048 C 
ATOM     27  C19 NON d   1     -37.737  19.046  -3.810  0.00  0.00     0.007 A 
ATOM     28  C20 NON d   1     -38.259  20.318  -4.048  0.00  0.00     0.007 A 
ENDBRANCH  21  22
ENDBRANCH  20  21
ENDBRANCH  19  20
ENDBRANCH  18  19
ENDBRANCH   2  18
TORSDOF 9
ENDMDL
