MODEL 1
REMARK VINA RESULT:   -31.043      0.000      0.000
REMARK INTER + INTRA:         -34.108
REMARK INTER:                 -33.132
REMARK INTRA:                  -0.976
REMARK CONF_INDEPENDENT:        2.088
REMARK UNBOUND:                -0.976
REMARK  7 active torsions:
REMARK  status: ('A' for Active; 'I' for Inactive)
REMARK    1  A    between atoms: C6_6  and  N1_7 
REMARK       I    between atoms: N1_7  and  C7_8 
REMARK    2  A    between atoms: C7_8  and  C8_10 
REMARK    3  A    between atoms: C8_10  and  N2_11 
REMARK       I    between atoms: N2_11  and  C9_12 
REMARK       I    between atoms: C9_12  and  N3_14 
REMARK    4  A    between atoms: N3_14  and  C10_15 
REMARK    5  A    between atoms: C10_15  and  C11_16 
REMARK    6  A    between atoms: C11_16  and  C12_17 
REMARK    7  A    between atoms: C12_17  and  C13_18 
ROOT
ATOM      1  N2  NON d   1     -39.173  18.065  -2.498  0.00  0.00    -0.334 N 
ATOM      2  C9  NON d   1     -40.192  18.400  -3.367  0.00  0.00     0.316 C 
ATOM      3  O2  NON d   1     -40.050  19.227  -4.261  0.00  0.00    -0.247 OA
ATOM      4  N3  NON d   1     -41.381  17.699  -3.160  0.00  0.00    -0.343 N 
ATOM      5  H11 NON d   1     -39.380  17.517  -1.675  0.00  0.00     0.164 HD
ATOM      6  H12 NON d   1     -41.511  17.346  -2.224  0.00  0.00     0.164 HD
ENDROOT
BRANCH   1   7
ATOM      7  C8  NON d   1     -37.850  18.752  -2.522  0.00  0.00     0.227 C 
BRANCH   7   8
ATOM      8  C7  NON d   1     -37.895  20.267  -2.128  0.00  0.00     0.239 C 
ATOM      9  N1  NON d   1     -38.684  20.604  -1.006  0.00  0.00    -0.325 N 
ATOM     10  H8  NON d   1     -38.800  19.880  -0.309  0.00  0.00     0.169 HD
ATOM     11  O1  NON d   1     -37.200  21.062  -2.766  0.00  0.00    -0.271 OA
BRANCH   9  12
ATOM     12  C6  NON d   1     -39.207  21.922  -0.631  0.00  0.00     0.046 A 
ATOM     13  C4  NON d   1     -38.793  22.508   0.732  0.00  0.00    -0.034 A 
ATOM     14  C3  NON d   1     -39.414  23.706   1.074  0.00  0.00     0.015 A 
ATOM     15  C5  NON d   1     -37.797  21.791   1.663  0.00  0.00     0.050 C 
ATOM     16  C2  NON d   1     -40.357  24.325   0.205  0.00  0.00    -0.061 A 
ATOM     17  C1  NON d   1     -40.951  25.648   0.621  0.00  0.00     0.048 C 
ATOM     18  C22 NON d   1     -40.726  23.779  -1.061  0.00  0.00     0.015 A 
ATOM     19  C20 NON d   1     -40.192  22.580  -1.537  0.00  0.00    -0.034 A 
ATOM     20  C21 NON d   1     -40.597  21.935  -2.875  0.00  0.00     0.050 C 
ENDBRANCH   9  12
ENDBRANCH   7   8
ENDBRANCH   1   7
BRANCH   4  21
ATOM     21  C10 NON d   1     -42.597  18.124  -3.875  0.00  0.00     0.125 C 
BRANCH  21  22
ATOM     22  C11 NON d   1     -43.519  17.018  -4.459  0.00  0.00     0.027 C 
BRANCH  22  23
ATOM     23  C12 NON d   1     -44.733  17.545  -5.240  0.00  0.00     0.080 C 
BRANCH  23  24
ATOM     24  C13 NON d   1     -46.085  17.057  -4.755  0.00  0.00     0.105 A 
ATOM     25  N4  NON d   1     -46.401  17.092  -3.412  0.00  0.00    -0.343 N 
ATOM     26  C14 NON d   1     -47.636  16.521  -3.224  0.00  0.00     0.062 A 
ATOM     27  H19 NON d   1     -45.808  17.446  -2.677  0.00  0.00     0.167 HD
ATOM     28  C15 NON d   1     -48.405  16.281  -2.076  0.00  0.00     0.032 A 
ATOM     29  C19 NON d   1     -48.041  16.157  -4.504  0.00  0.00     0.085 A 
ATOM     30  C16 NON d   1     -49.642  15.658  -2.255  0.00  0.00     0.002 A 
ATOM     31  C17 NON d   1     -50.081  15.278  -3.526  0.00  0.00     0.002 A 
ATOM     32  C18 NON d   1     -49.285  15.523  -4.662  0.00  0.00     0.034 A 
ATOM     33  N5  NON d   1     -47.073  16.504  -5.435  0.00  0.00    -0.233 NA
ENDBRANCH  23  24
ENDBRANCH  22  23
ENDBRANCH  21  22
ENDBRANCH   4  21
TORSDOF 7
ENDMDL
MODEL 2
REMARK VINA RESULT:   -30.995      0.488      1.762
REMARK INTER + INTRA:         -34.055
REMARK INTER:                 -33.083
REMARK INTRA:                  -0.972
REMARK CONF_INDEPENDENT:        2.088
REMARK UNBOUND:                -0.972
REMARK  7 active torsions:
REMARK  status: ('A' for Active; 'I' for Inactive)
REMARK    1  A    between atoms: C6_6  and  N1_7 
REMARK       I    between atoms: N1_7  and  C7_8 
REMARK    2  A    between atoms: C7_8  and  C8_10 
REMARK    3  A    between atoms: C8_10  and  N2_11 
REMARK       I    between atoms: N2_11  and  C9_12 
REMARK       I    between atoms: C9_12  and  N3_14 
REMARK    4  A    between atoms: N3_14  and  C10_15 
REMARK    5  A    between atoms: C10_15  and  C11_16 
REMARK    6  A    between atoms: C11_16  and  C12_17 
REMARK    7  A    between atoms: C12_17  and  C13_18 
ROOT
ATOM      1  N2  NON d   1     -39.659  18.344  -2.531  0.00  0.00    -0.334 N 
ATOM      2  C9  NON d   1     -40.832  18.443  -3.252  0.00  0.00     0.316 C 
ATOM      3  O2  NON d   1     -40.923  19.112  -4.275  0.00  0.00    -0.247 OA
ATOM      4  N3  NON d   1     -41.892  17.696  -2.734  0.00  0.00    -0.343 N 
ATOM      5  H11 NON d   1     -39.674  17.931  -1.610  0.00  0.00     0.164 HD
ATOM      6  H12 NON d   1     -41.835  17.501  -1.746  0.00  0.00     0.164 HD
ENDROOT
BRANCH   1   7
ATOM      7  C8  NON d   1     -38.437  19.118  -2.892  0.00  0.00     0.227 C 
BRANCH   7   8
ATOM      8  C7  NON d   1     -38.446  20.609  -2.412  0.00  0.00     0.239 C 
ATOM      9  N1  NON d   1     -39.090  20.873  -1.184  0.00  0.00    -0.325 N 
ATOM     10  H8  NON d   1     -39.112  20.111  -0.518  0.00  0.00     0.169 HD
ATOM     11  O1  NON d   1     -37.844  21.448  -3.088  0.00  0.00    -0.271 OA
BRANCH   9  12
ATOM     12  C6  NON d   1     -39.574  22.161  -0.674  0.00  0.00     0.046 A 
ATOM     13  C4  NON d   1     -40.472  23.015  -1.590  0.00  0.00    -0.034 A 
ATOM     14  C3  NON d   1     -40.800  24.272  -1.090  0.00  0.00     0.015 A 
ATOM     15  C5  NON d   1     -40.931  22.524  -2.975  0.00  0.00     0.050 C 
ATOM     16  C2  NON d   1     -40.329  24.710   0.181  0.00  0.00    -0.061 A 
ATOM     17  C1  NON d   1     -40.768  26.064   0.678  0.00  0.00     0.048 C 
ATOM     18  C22 NON d   1     -39.506  23.906   1.027  0.00  0.00     0.015 A 
ATOM     19  C20 NON d   1     -39.089  22.625   0.658  0.00  0.00    -0.034 A 
ATOM     20  C21 NON d   1     -38.165  21.746   1.520  0.00  0.00     0.050 C 
ENDBRANCH   9  12
ENDBRANCH   7   8
ENDBRANCH   1   7
BRANCH   4  21
ATOM     21  C10 NON d   1     -43.244  17.895  -3.285  0.00  0.00     0.125 C 
BRANCH  21  22
ATOM     22  C11 NON d   1     -43.599  17.171  -4.614  0.00  0.00     0.027 C 
BRANCH  22  23
ATOM     23  C12 NON d   1     -44.865  17.698  -5.309  0.00  0.00     0.080 C 
BRANCH  23  24
ATOM     24  C13 NON d   1     -46.176  17.130  -4.800  0.00  0.00     0.105 A 
ATOM     25  N4  NON d   1     -46.477  17.160  -3.454  0.00  0.00    -0.343 N 
ATOM     26  C14 NON d   1     -47.669  16.512  -3.243  0.00  0.00     0.062 A 
ATOM     27  H19 NON d   1     -45.899  17.561  -2.732  0.00  0.00     0.167 HD
ATOM     28  C15 NON d   1     -48.406  16.237  -2.082  0.00  0.00     0.032 A 
ATOM     29  C19 NON d   1     -48.065  16.107  -4.514  0.00  0.00     0.085 A 
ATOM     30  C16 NON d   1     -49.603  15.532  -2.238  0.00  0.00     0.002 A 
ATOM     31  C17 NON d   1     -50.031  15.108  -3.499  0.00  0.00     0.002 A 
ATOM     32  C18 NON d   1     -49.268  15.391  -4.647  0.00  0.00     0.034 A 
ATOM     33  N5  NON d   1     -47.134  16.505  -5.461  0.00  0.00    -0.233 NA
ENDBRANCH  23  24
ENDBRANCH  22  23
ENDBRANCH  21  22
ENDBRANCH   4  21
TORSDOF 7
ENDMDL
MODEL 3
REMARK VINA RESULT:   -30.574      2.814      4.511
REMARK INTER + INTRA:         -34.054
REMARK INTER:                 -32.662
REMARK INTRA:                  -1.392
REMARK CONF_INDEPENDENT:        2.088
REMARK UNBOUND:                -1.392
REMARK  7 active torsions:
REMARK  status: ('A' for Active; 'I' for Inactive)
REMARK    1  A    between atoms: C6_6  and  N1_7 
REMARK       I    between atoms: N1_7  and  C7_8 
REMARK    2  A    between atoms: C7_8  and  C8_10 
REMARK    3  A    between atoms: C8_10  and  N2_11 
REMARK       I    between atoms: N2_11  and  C9_12 
REMARK       I    between atoms: C9_12  and  N3_14 
REMARK    4  A    between atoms: N3_14  and  C10_15 
REMARK    5  A    between atoms: C10_15  and  C11_16 
REMARK    6  A    between atoms: C11_16  and  C12_17 
REMARK    7  A    between atoms: C12_17  and  C13_18 
ROOT
ATOM      1  N2  NON d   1     -39.737  17.882  -2.759  0.00  0.00    -0.334 N 
ATOM      2  C9  NON d   1     -40.959  17.744  -3.387  0.00  0.00     0.316 C 
ATOM      3  O2  NON d   1     -41.081  17.788  -4.606  0.00  0.00    -0.247 OA
ATOM      4  N3  NON d   1     -42.031  17.523  -2.521  0.00  0.00    -0.343 N 
ATOM      5  H11 NON d   1     -39.704  18.015  -1.758  0.00  0.00     0.164 HD
ATOM      6  H12 NON d   1     -41.899  17.864  -1.581  0.00  0.00     0.164 HD
ENDROOT
BRANCH   1   7
ATOM      7  C8  NON d   1     -38.487  18.187  -3.510  0.00  0.00     0.227 C 
BRANCH   7   8
ATOM      8  C7  NON d   1     -38.508  19.550  -4.282  0.00  0.00     0.239 C 
ATOM      9  N1  NON d   1     -39.609  19.775  -5.136  0.00  0.00    -0.325 N 
ATOM     10  H8  NON d   1     -40.469  19.302  -4.890  0.00  0.00     0.169 HD
ATOM     11  O1  NON d   1     -37.612  20.368  -4.055  0.00  0.00    -0.271 OA
BRANCH   9  12
ATOM     12  C6  NON d   1     -39.722  20.745  -6.231  0.00  0.00     0.046 A 
ATOM     13  C4  NON d   1     -39.468  20.252  -7.669  0.00  0.00    -0.034 A 
ATOM     14  C3  NON d   1     -39.478  21.246  -8.644  0.00  0.00     0.015 A 
ATOM     15  C5  NON d   1     -39.179  18.774  -7.988  0.00  0.00     0.050 C 
ATOM     16  C2  NON d   1     -39.713  22.610  -8.309  0.00  0.00    -0.061 A 
ATOM     17  C1  NON d   1     -39.760  23.622  -9.426  0.00  0.00     0.048 C 
ATOM     18  C22 NON d   1     -39.958  23.054  -6.975  0.00  0.00     0.015 A 
ATOM     19  C20 NON d   1     -39.971  22.175  -5.890  0.00  0.00    -0.034 A 
ATOM     20  C21 NON d   1     -40.186  22.620  -4.432  0.00  0.00     0.050 C 
ENDBRANCH   9  12
ENDBRANCH   7   8
ENDBRANCH   1   7
BRANCH   4  21
ATOM     21  C10 NON d   1     -43.404  17.581  -3.052  0.00  0.00     0.125 C 
BRANCH  21  22
ATOM     22  C11 NON d   1     -43.631  17.144  -4.526  0.00  0.00     0.027 C 
BRANCH  22  23
ATOM     23  C12 NON d   1     -44.884  17.744  -5.185  0.00  0.00     0.080 C 
BRANCH  23  24
ATOM     24  C13 NON d   1     -46.206  17.153  -4.734  0.00  0.00     0.105 A 
ATOM     25  N4  NON d   1     -46.571  17.187  -3.405  0.00  0.00    -0.343 N 
ATOM     26  C14 NON d   1     -47.760  16.517  -3.245  0.00  0.00     0.062 A 
ATOM     27  H19 NON d   1     -46.036  17.604  -2.658  0.00  0.00     0.167 HD
ATOM     28  C15 NON d   1     -48.546  16.236  -2.119  0.00  0.00     0.032 A 
ATOM     29  C19 NON d   1     -48.087  16.095  -4.530  0.00  0.00     0.085 A 
ATOM     30  C16 NON d   1     -49.720  15.506  -2.326  0.00  0.00     0.002 A 
ATOM     31  C17 NON d   1     -50.079  15.066  -3.602  0.00  0.00     0.002 A 
ATOM     32  C18 NON d   1     -49.268  15.355  -4.716  0.00  0.00     0.034 A 
ATOM     33  N5  NON d   1     -47.119  16.505  -5.435  0.00  0.00    -0.233 NA
ENDBRANCH  23  24
ENDBRANCH  22  23
ENDBRANCH  21  22
ENDBRANCH   4  21
TORSDOF 7
ENDMDL
MODEL 4
REMARK VINA RESULT:   -30.410      3.606      5.379
REMARK INTER + INTRA:         -33.859
REMARK INTER:                 -32.498
REMARK INTRA:                  -1.361
REMARK CONF_INDEPENDENT:        2.088
REMARK UNBOUND:                -1.361
REMARK  7 active torsions:
REMARK  status: ('A' for Active; 'I' for Inactive)
REMARK    1  A    between atoms: C6_6  and  N1_7 
REMARK       I    between atoms: N1_7  and  C7_8 
REMARK    2  A    between atoms: C7_8  and  C8_10 
REMARK    3  A    between atoms: C8_10  and  N2_11 
REMARK       I    between atoms: N2_11  and  C9_12 
REMARK       I    between atoms: C9_12  and  N3_14 
REMARK    4  A    between atoms: N3_14  and  C10_15 
REMARK    5  A    between atoms: C10_15  and  C11_16 
REMARK    6  A    between atoms: C11_16  and  C12_17 
REMARK    7  A    between atoms: C12_17  and  C13_18 
ROOT
ATOM      1  N2  NON d   1     -39.991  17.941  -2.692  0.00  0.00    -0.334 N 
ATOM      2  C9  NON d   1     -41.175  17.738  -3.373  0.00  0.00     0.316 C 
ATOM      3  O2  NON d   1     -41.225  17.643  -4.594  0.00  0.00    -0.247 OA
ATOM      4  N3  NON d   1     -42.299  17.624  -2.553  0.00  0.00    -0.343 N 
ATOM      5  H11 NON d   1     -40.015  18.188  -1.713  0.00  0.00     0.164 HD
ATOM      6  H12 NON d   1     -42.219  18.070  -1.652  0.00  0.00     0.164 HD
ENDROOT
BRANCH   1   7
ATOM      7  C8  NON d   1     -38.695  18.152  -3.398  0.00  0.00     0.227 C 
BRANCH   7   8
ATOM      8  C7  NON d   1     -38.728  19.261  -4.504  0.00  0.00     0.239 C 
ATOM      9  N1  NON d   1     -39.015  18.833  -5.818  0.00  0.00    -0.325 N 
ATOM     10  H8  NON d   1     -39.576  17.995  -5.903  0.00  0.00     0.169 HD
ATOM     11  O1  NON d   1     -38.571  20.436  -4.163  0.00  0.00    -0.271 OA
BRANCH   9  12
ATOM     12  C6  NON d   1     -38.759  19.542  -7.076  0.00  0.00     0.046 A 
ATOM     13  C4  NON d   1     -39.938  20.263  -7.758  0.00  0.00    -0.034 A 
ATOM     14  C3  NON d   1     -39.652  20.817  -9.003  0.00  0.00     0.015 A 
ATOM     15  C5  NON d   1     -41.339  20.323  -7.122  0.00  0.00     0.050 C 
ATOM     16  C2  NON d   1     -38.354  20.713  -9.579  0.00  0.00    -0.061 A 
ATOM     17  C1  NON d   1     -38.106  21.382 -10.908  0.00  0.00     0.048 C 
ATOM     18  C22 NON d   1     -37.265  20.051  -8.935  0.00  0.00     0.015 A 
ATOM     19  C20 NON d   1     -37.401  19.441  -7.686  0.00  0.00    -0.034 A 
ATOM     20  C21 NON d   1     -36.266  18.679  -6.978  0.00  0.00     0.050 C 
ENDBRANCH   9  12
ENDBRANCH   7   8
ENDBRANCH   1   7
BRANCH   4  21
ATOM     21  C10 NON d   1     -43.638  17.628  -3.169  0.00  0.00     0.125 C 
BRANCH  21  22
ATOM     22  C11 NON d   1     -43.740  17.295  -4.683  0.00  0.00     0.027 C 
BRANCH  22  23
ATOM     23  C12 NON d   1     -45.027  17.795  -5.361  0.00  0.00     0.080 C 
BRANCH  23  24
ATOM     24  C13 NON d   1     -46.316  17.179  -4.851  0.00  0.00     0.105 A 
ATOM     25  N4  NON d   1     -46.626  17.215  -3.508  0.00  0.00    -0.343 N 
ATOM     26  C14 NON d   1     -47.791  16.520  -3.294  0.00  0.00     0.062 A 
ATOM     27  H19 NON d   1     -46.070  17.650  -2.787  0.00  0.00     0.167 HD
ATOM     28  C15 NON d   1     -48.524  16.230  -2.134  0.00  0.00     0.032 A 
ATOM     29  C19 NON d   1     -48.163  16.081  -4.561  0.00  0.00     0.085 A 
ATOM     30  C16 NON d   1     -49.689  15.474  -2.286  0.00  0.00     0.002 A 
ATOM     31  C17 NON d   1     -50.091  15.015  -3.544  0.00  0.00     0.002 A 
ATOM     32  C18 NON d   1     -49.333  15.314  -4.692  0.00  0.00     0.034 A 
ATOM     33  N5  NON d   1     -47.243  16.505  -5.509  0.00  0.00    -0.233 NA
ENDBRANCH  23  24
ENDBRANCH  22  23
ENDBRANCH  21  22
ENDBRANCH   4  21
TORSDOF 7
ENDMDL
MODEL 5
REMARK VINA RESULT:   -30.388      1.042      2.002
REMARK INTER + INTRA:         -33.979
REMARK INTER:                 -32.476
REMARK INTRA:                  -1.504
REMARK CONF_INDEPENDENT:        2.088
REMARK UNBOUND:                -1.504
REMARK  7 active torsions:
REMARK  status: ('A' for Active; 'I' for Inactive)
REMARK    1  A    between atoms: C6_6  and  N1_7 
REMARK       I    between atoms: N1_7  and  C7_8 
REMARK    2  A    between atoms: C7_8  and  C8_10 
REMARK    3  A    between atoms: C8_10  and  N2_11 
REMARK       I    between atoms: N2_11  and  C9_12 
REMARK       I    between atoms: C9_12  and  N3_14 
REMARK    4  A    between atoms: N3_14  and  C10_15 
REMARK    5  A    between atoms: C10_15  and  C11_16 
REMARK    6  A    between atoms: C11_16  and  C12_17 
REMARK    7  A    between atoms: C12_17  and  C13_18 
ROOT
ATOM      1  N2  NON d   1     -39.599  18.168  -2.528  0.00  0.00    -0.334 N 
ATOM      2  C9  NON d   1     -40.757  18.471  -3.215  0.00  0.00     0.316 C 
ATOM      3  O2  NON d   1     -40.874  19.484  -3.896  0.00  0.00    -0.247 OA
ATOM      4  N3  NON d   1     -41.768  17.516  -3.092  0.00  0.00    -0.343 N 
ATOM      5  H11 NON d   1     -39.606  17.423  -1.845  0.00  0.00     0.164 HD
ATOM      6  H12 NON d   1     -41.721  16.948  -2.260  0.00  0.00     0.164 HD
ENDROOT
BRANCH   1   7
ATOM      7  C8  NON d   1     -38.433  19.096  -2.486  0.00  0.00     0.227 C 
BRANCH   7   8
ATOM      8  C7  NON d   1     -38.686  20.423  -1.691  0.00  0.00     0.239 C 
ATOM      9  N1  NON d   1     -39.945  21.036  -1.871  0.00  0.00    -0.325 N 
ATOM     10  H8  NON d   1     -40.710  20.421  -2.116  0.00  0.00     0.169 HD
ATOM     11  O1  NON d   1     -37.813  20.817  -0.914  0.00  0.00    -0.271 OA
BRANCH   9  12
ATOM     12  C6  NON d   1     -40.327  22.420  -1.573  0.00  0.00     0.046 A 
ATOM     13  C4  NON d   1     -40.656  23.355  -2.754  0.00  0.00    -0.034 A 
ATOM     14  C3  NON d   1     -40.898  24.681  -2.409  0.00  0.00     0.015 A 
ATOM     15  C5  NON d   1     -40.669  22.858  -4.212  0.00  0.00     0.050 C 
ATOM     16  C2  NON d   1     -40.844  25.115  -1.053  0.00  0.00    -0.061 A 
ATOM     17  C1  NON d   1     -41.168  26.557  -0.750  0.00  0.00     0.048 C 
ATOM     18  C22 NON d   1     -40.548  24.240   0.035  0.00  0.00     0.015 A 
ATOM     19  C20 NON d   1     -40.276  22.883  -0.156  0.00  0.00    -0.034 A 
ATOM     20  C21 NON d   1     -39.909  21.916   0.984  0.00  0.00     0.050 C 
ENDBRANCH   9  12
ENDBRANCH   7   8
ENDBRANCH   1   7
BRANCH   4  21
ATOM     21  C10 NON d   1     -43.116  17.831  -3.595  0.00  0.00     0.125 C 
BRANCH  21  22
ATOM     22  C11 NON d   1     -43.681  16.961  -4.752  0.00  0.00     0.027 C 
BRANCH  22  23
ATOM     23  C12 NON d   1     -44.932  17.540  -5.435  0.00  0.00     0.080 C 
BRANCH  23  24
ATOM     24  C13 NON d   1     -46.245  16.878  -5.063  0.00  0.00     0.105 A 
ATOM     25  N4  NON d   1     -46.705  16.915  -3.764  0.00  0.00    -0.343 N 
ATOM     26  C14 NON d   1     -47.859  16.176  -3.671  0.00  0.00     0.062 A 
ATOM     27  H19 NON d   1     -46.251  17.379  -2.992  0.00  0.00     0.167 HD
ATOM     28  C15 NON d   1     -48.705  15.869  -2.596  0.00  0.00     0.032 A 
ATOM     29  C19 NON d   1     -48.068  15.710  -4.966  0.00  0.00     0.085 A 
ATOM     30  C16 NON d   1     -49.815  15.065  -2.867  0.00  0.00     0.002 A 
ATOM     31  C17 NON d   1     -50.056  14.577  -4.154  0.00  0.00     0.002 A 
ATOM     32  C18 NON d   1     -49.186  14.894  -5.215  0.00  0.00     0.034 A 
ATOM     33  N5  NON d   1     -47.065  16.161  -5.810  0.00  0.00    -0.233 NA
ENDBRANCH  23  24
ENDBRANCH  22  23
ENDBRANCH  21  22
ENDBRANCH   4  21
TORSDOF 7
ENDMDL
MODEL 6
REMARK VINA RESULT:   -30.239      2.916      4.741
REMARK INTER + INTRA:         -34.128
REMARK INTER:                 -32.327
REMARK INTRA:                  -1.801
REMARK CONF_INDEPENDENT:        2.088
REMARK UNBOUND:                -1.801
REMARK  7 active torsions:
REMARK  status: ('A' for Active; 'I' for Inactive)
REMARK    1  A    between atoms: C6_6  and  N1_7 
REMARK       I    between atoms: N1_7  and  C7_8 
REMARK    2  A    between atoms: C7_8  and  C8_10 
REMARK    3  A    between atoms: C8_10  and  N2_11 
REMARK       I    between atoms: N2_11  and  C9_12 
REMARK       I    between atoms: C9_12  and  N3_14 
REMARK    4  A    between atoms: N3_14  and  C10_15 
REMARK    5  A    between atoms: C10_15  and  C11_16 
REMARK    6  A    between atoms: C11_16  and  C12_17 
REMARK    7  A    between atoms: C12_17  and  C13_18 
ROOT
ATOM      1  N2  NON d   1     -39.978  18.374  -2.490  0.00  0.00    -0.334 N 
ATOM      2  C9  NON d   1     -41.235  18.275  -3.052  0.00  0.00     0.316 C 
ATOM      3  O2  NON d   1     -41.772  19.212  -3.633  0.00  0.00    -0.247 OA
ATOM      4  N3  NON d   1     -41.825  17.016  -2.928  0.00  0.00    -0.343 N 
ATOM      5  H11 NON d   1     -39.649  17.644  -1.875  0.00  0.00     0.164 HD
ATOM      6  H12 NON d   1     -41.493  16.463  -2.153  0.00  0.00     0.164 HD
ENDROOT
BRANCH   1   7
ATOM      7  C8  NON d   1     -39.216  19.655  -2.466  0.00  0.00     0.227 C 
BRANCH   7   8
ATOM      8  C7  NON d   1     -38.807  20.196  -3.878  0.00  0.00     0.239 C 
ATOM      9  N1  NON d   1     -39.851  20.682  -4.695  0.00  0.00    -0.325 N 
ATOM     10  H8  NON d   1     -40.662  21.046  -4.212  0.00  0.00     0.169 HD
ATOM     11  O1  NON d   1     -37.609  20.229  -4.170  0.00  0.00    -0.271 OA
BRANCH   9  12
ATOM     12  C6  NON d   1     -39.840  20.895  -6.145  0.00  0.00     0.046 A 
ATOM     13  C4  NON d   1     -40.058  19.675  -7.062  0.00  0.00    -0.034 A 
ATOM     14  C3  NON d   1     -39.920  19.928  -8.424  0.00  0.00     0.015 A 
ATOM     15  C5  NON d   1     -40.360  18.273  -6.501  0.00  0.00     0.050 C 
ATOM     16  C2  NON d   1     -39.606  21.229  -8.908  0.00  0.00    -0.061 A 
ATOM     17  C1  NON d   1     -39.524  21.437 -10.400  0.00  0.00     0.048 C 
ATOM     18  C22 NON d   1     -39.416  22.355  -8.051  0.00  0.00     0.015 A 
ATOM     19  C20 NON d   1     -39.514  22.256  -6.662  0.00  0.00    -0.034 A 
ATOM     20  C21 NON d   1     -39.272  23.434  -5.701  0.00  0.00     0.050 C 
ENDBRANCH   9  12
ENDBRANCH   7   8
ENDBRANCH   1   7
BRANCH   4  21
ATOM     21  C10 NON d   1     -43.244  16.852  -3.290  0.00  0.00     0.125 C 
BRANCH  21  22
ATOM     22  C11 NON d   1     -43.618  16.899  -4.798  0.00  0.00     0.027 C 
BRANCH  22  23
ATOM     23  C12 NON d   1     -44.863  17.741  -5.121  0.00  0.00     0.080 C 
BRANCH  23  24
ATOM     24  C13 NON d   1     -46.189  17.133  -4.706  0.00  0.00     0.105 A 
ATOM     25  N4  NON d   1     -46.572  17.123  -3.381  0.00  0.00    -0.343 N 
ATOM     26  C14 NON d   1     -47.760  16.445  -3.258  0.00  0.00     0.062 A 
ATOM     27  H19 NON d   1     -46.047  17.518  -2.615  0.00  0.00     0.167 HD
ATOM     28  C15 NON d   1     -48.560  16.126  -2.152  0.00  0.00     0.032 A 
ATOM     29  C19 NON d   1     -48.069  16.064  -4.560  0.00  0.00     0.085 A 
ATOM     30  C16 NON d   1     -49.729  15.401  -2.396  0.00  0.00     0.002 A 
ATOM     31  C17 NON d   1     -50.070  15.000  -3.691  0.00  0.00     0.002 A 
ATOM     32  C18 NON d   1     -49.245  15.327  -4.784  0.00  0.00     0.034 A 
ATOM     33  N5  NON d   1     -47.092  16.505  -5.439  0.00  0.00    -0.233 NA
ENDBRANCH  23  24
ENDBRANCH  22  23
ENDBRANCH  21  22
ENDBRANCH   4  21
TORSDOF 7
ENDMDL
MODEL 7
REMARK VINA RESULT:   -30.136      1.889      2.725
REMARK INTER + INTRA:         -33.043
REMARK INTER:                 -32.224
REMARK INTRA:                  -0.819
REMARK CONF_INDEPENDENT:        2.088
REMARK UNBOUND:                -0.819
REMARK  7 active torsions:
REMARK  status: ('A' for Active; 'I' for Inactive)
REMARK    1  A    between atoms: C6_6  and  N1_7 
REMARK       I    between atoms: N1_7  and  C7_8 
REMARK    2  A    between atoms: C7_8  and  C8_10 
REMARK    3  A    between atoms: C8_10  and  N2_11 
REMARK       I    between atoms: N2_11  and  C9_12 
REMARK       I    between atoms: C9_12  and  N3_14 
REMARK    4  A    between atoms: N3_14  and  C10_15 
REMARK    5  A    between atoms: C10_15  and  C11_16 
REMARK    6  A    between atoms: C11_16  and  C12_17 
REMARK    7  A    between atoms: C12_17  and  C13_18 
ROOT
ATOM      1  N2  NON d   1     -41.002  20.887  -4.006  0.00  0.00    -0.334 N 
ATOM      2  C9  NON d   1     -41.333  19.547  -4.039  0.00  0.00     0.316 C 
ATOM      3  O2  NON d   1     -40.999  18.764  -3.156  0.00  0.00    -0.247 OA
ATOM      4  N3  NON d   1     -42.100  19.169  -5.142  0.00  0.00    -0.343 N 
ATOM      5  H11 NON d   1     -41.142  21.455  -4.829  0.00  0.00     0.164 HD
ATOM      6  H12 NON d   1     -42.003  19.761  -5.953  0.00  0.00     0.164 HD
ENDROOT
BRANCH   1   7
ATOM      7  C8  NON d   1     -40.134  21.466  -2.941  0.00  0.00     0.227 C 
BRANCH   7   8
ATOM      8  C7  NON d   1     -40.638  22.832  -2.362  0.00  0.00     0.239 C 
ATOM      9  N1  NON d   1     -39.959  23.326  -1.228  0.00  0.00    -0.325 N 
ATOM     10  H8  NON d   1     -38.993  23.042  -1.127  0.00  0.00     0.169 HD
ATOM     11  O1  NON d   1     -41.542  23.424  -2.957  0.00  0.00    -0.271 OA
BRANCH   9  12
ATOM     12  C6  NON d   1     -40.413  24.341  -0.272  0.00  0.00     0.046 A 
ATOM     13  C4  NON d   1     -40.372  25.819  -0.706  0.00  0.00    -0.034 A 
ATOM     14  C3  NON d   1     -40.707  26.737   0.286  0.00  0.00     0.015 A 
ATOM     15  C5  NON d   1     -39.946  26.244  -2.124  0.00  0.00     0.050 C 
ATOM     16  C2  NON d   1     -41.062  26.312   1.598  0.00  0.00    -0.061 A 
ATOM     17  C1  NON d   1     -41.463  27.360   2.605  0.00  0.00     0.048 C 
ATOM     18  C22 NON d   1     -41.108  24.939   1.987  0.00  0.00     0.015 A 
ATOM     19  C20 NON d   1     -40.790  23.905   1.103  0.00  0.00    -0.034 A 
ATOM     20  C21 NON d   1     -40.783  22.416   1.496  0.00  0.00     0.050 C 
ENDBRANCH   9  12
ENDBRANCH   7   8
ENDBRANCH   1   7
BRANCH   4  21
ATOM     21  C10 NON d   1     -42.325  17.736  -5.401  0.00  0.00     0.125 C 
BRANCH  21  22
ATOM     22  C11 NON d   1     -43.628  17.095  -4.846  0.00  0.00     0.027 C 
BRANCH  22  23
ATOM     23  C12 NON d   1     -44.912  17.875  -5.171  0.00  0.00     0.080 C 
BRANCH  23  24
ATOM     24  C13 NON d   1     -46.206  17.217  -4.732  0.00  0.00     0.105 A 
ATOM     25  N4  NON d   1     -46.598  17.256  -3.410  0.00  0.00    -0.343 N 
ATOM     26  C14 NON d   1     -47.748  16.520  -3.258  0.00  0.00     0.062 A 
ATOM     27  H19 NON d   1     -46.103  17.720  -2.663  0.00  0.00     0.167 HD
ATOM     28  C15 NON d   1     -48.538  16.216  -2.140  0.00  0.00     0.032 A 
ATOM     29  C19 NON d   1     -48.025  16.054  -4.539  0.00  0.00     0.085 A 
ATOM     30  C16 NON d   1     -49.663  15.415  -2.352  0.00  0.00     0.002 A 
ATOM     31  C17 NON d   1     -49.971  14.928  -3.626  0.00  0.00     0.002 A 
ATOM     32  C18 NON d   1     -49.156  15.242  -4.730  0.00  0.00     0.034 A 
ATOM     33  N5  NON d   1     -47.066  16.502  -5.435  0.00  0.00    -0.233 NA
ENDBRANCH  23  24
ENDBRANCH  22  23
ENDBRANCH  21  22
ENDBRANCH   4  21
TORSDOF 7
ENDMDL
MODEL 8
REMARK VINA RESULT:   -29.531      1.561      1.680
REMARK INTER + INTRA:         -33.135
REMARK INTER:                 -31.619
REMARK INTRA:                  -1.516
REMARK CONF_INDEPENDENT:        2.088
REMARK UNBOUND:                -1.516
REMARK  7 active torsions:
REMARK  status: ('A' for Active; 'I' for Inactive)
REMARK    1  A    between atoms: C6_6  and  N1_7 
REMARK       I    between atoms: N1_7  and  C7_8 
REMARK    2  A    between atoms: C7_8  and  C8_10 
REMARK    3  A    between atoms: C8_10  and  N2_11 
REMARK       I    between atoms: N2_11  and  C9_12 
REMARK       I    between atoms: C9_12  and  N3_14 
REMARK    4  A    between atoms: N3_14  and  C10_15 
REMARK    5  A    between atoms: C10_15  and  C11_16 
REMARK    6  A    between atoms: C11_16  and  C12_17 
REMARK    7  A    between atoms: C12_17  and  C13_18 
ROOT
ATOM      1  N2  NON d   1     -40.313  20.433  -4.990  0.00  0.00    -0.334 N 
ATOM      2  C9  NON d   1     -40.992  19.551  -4.174  0.00  0.00     0.316 C 
ATOM      3  O2  NON d   1     -40.527  19.140  -3.117  0.00  0.00    -0.247 OA
ATOM      4  N3  NON d   1     -42.258  19.191  -4.640  0.00  0.00    -0.343 N 
ATOM      5  H11 NON d   1     -40.652  20.607  -5.926  0.00  0.00     0.164 HD
ATOM      6  H12 NON d   1     -42.386  19.271  -5.637  0.00  0.00     0.164 HD
ENDROOT
BRANCH   1   7
ATOM      7  C8  NON d   1     -38.924  20.883  -4.693  0.00  0.00     0.227 C 
BRANCH   7   8
ATOM      8  C7  NON d   1     -38.807  21.891  -3.500  0.00  0.00     0.239 C 
ATOM      9  N1  NON d   1     -39.875  21.903  -2.577  0.00  0.00    -0.325 N 
ATOM     10  H8  NON d   1     -40.390  21.037  -2.479  0.00  0.00     0.169 HD
ATOM     11  O1  NON d   1     -37.777  22.562  -3.396  0.00  0.00    -0.271 OA
BRANCH   9  12
ATOM     12  C6  NON d   1     -40.222  22.948  -1.608  0.00  0.00     0.046 A 
ATOM     13  C4  NON d   1     -40.250  22.575  -0.113  0.00  0.00    -0.034 A 
ATOM     14  C3  NON d   1     -40.698  23.581   0.739  0.00  0.00     0.015 A 
ATOM     15  C5  NON d   1     -39.854  21.174   0.388  0.00  0.00     0.050 C 
ATOM     16  C2  NON d   1     -41.091  24.855   0.238  0.00  0.00    -0.061 A 
ATOM     17  C1  NON d   1     -41.517  25.911   1.226  0.00  0.00     0.048 C 
ATOM     18  C22 NON d   1     -41.051  25.194  -1.148  0.00  0.00     0.015 A 
ATOM     19  C20 NON d   1     -40.631  24.287  -2.124  0.00  0.00    -0.034 A 
ATOM     20  C21 NON d   1     -40.617  24.597  -3.631  0.00  0.00     0.050 C 
ENDBRANCH   9  12
ENDBRANCH   7   8
ENDBRANCH   1   7
BRANCH   4  21
ATOM     21  C10 NON d   1     -42.981  18.093  -3.974  0.00  0.00     0.125 C 
BRANCH  21  22
ATOM     22  C11 NON d   1     -43.804  17.121  -4.864  0.00  0.00     0.027 C 
BRANCH  22  23
ATOM     23  C12 NON d   1     -45.105  17.717  -5.426  0.00  0.00     0.080 C 
BRANCH  23  24
ATOM     24  C13 NON d   1     -46.374  16.964  -5.075  0.00  0.00     0.105 A 
ATOM     25  N4  NON d   1     -46.904  17.039  -3.803  0.00  0.00    -0.343 N 
ATOM     26  C14 NON d   1     -47.993  16.207  -3.717  0.00  0.00     0.062 A 
ATOM     27  H19 NON d   1     -46.532  17.588  -3.043  0.00  0.00     0.167 HD
ATOM     28  C15 NON d   1     -48.865  15.891  -2.666  0.00  0.00     0.032 A 
ATOM     29  C19 NON d   1     -48.093  15.646  -4.987  0.00  0.00     0.085 A 
ATOM     30  C16 NON d   1     -49.886  14.976  -2.935  0.00  0.00     0.002 A 
ATOM     31  C17 NON d   1     -50.015  14.392  -4.198  0.00  0.00     0.002 A 
ATOM     32  C18 NON d   1     -49.121  14.720  -5.235  0.00  0.00     0.034 A 
ATOM     33  N5  NON d   1     -47.089  16.132  -5.811  0.00  0.00    -0.233 NA
ENDBRANCH  23  24
ENDBRANCH  22  23
ENDBRANCH  21  22
ENDBRANCH   4  21
TORSDOF 7
ENDMDL
MODEL 9
REMARK VINA RESULT:   -29.190      4.205      5.928
REMARK INTER + INTRA:         -32.860
REMARK INTER:                 -31.278
REMARK INTRA:                  -1.582
REMARK CONF_INDEPENDENT:        2.088
REMARK UNBOUND:                -1.582
REMARK  7 active torsions:
REMARK  status: ('A' for Active; 'I' for Inactive)
REMARK    1  A    between atoms: C6_6  and  N1_7 
REMARK       I    between atoms: N1_7  and  C7_8 
REMARK    2  A    between atoms: C7_8  and  C8_10 
REMARK    3  A    between atoms: C8_10  and  N2_11 
REMARK       I    between atoms: N2_11  and  C9_12 
REMARK       I    between atoms: C9_12  and  N3_14 
REMARK    4  A    between atoms: N3_14  and  C10_15 
REMARK    5  A    between atoms: C10_15  and  C11_16 
REMARK    6  A    between atoms: C11_16  and  C12_17 
REMARK    7  A    between atoms: C12_17  and  C13_18 
ROOT
ATOM      1  N2  NON d   1     -40.838  20.379  -4.278  0.00  0.00    -0.334 N 
ATOM      2  C9  NON d   1     -41.648  19.504  -4.973  0.00  0.00     0.316 C 
ATOM      3  O2  NON d   1     -42.457  19.882  -5.813  0.00  0.00    -0.247 OA
ATOM      4  N3  NON d   1     -41.448  18.159  -4.659  0.00  0.00    -0.343 N 
ATOM      5  H11 NON d   1     -40.317  20.048  -3.478  0.00  0.00     0.164 HD
ATOM      6  H12 NON d   1     -41.062  17.986  -3.743  0.00  0.00     0.164 HD
ENDROOT
BRANCH   1   7
ATOM      7  C8  NON d   1     -40.950  21.858  -4.429  0.00  0.00     0.227 C 
BRANCH   7   8
ATOM      8  C7  NON d   1     -40.252  22.436  -5.707  0.00  0.00     0.239 C 
ATOM      9  N1  NON d   1     -40.369  21.673  -6.890  0.00  0.00    -0.325 N 
ATOM     10  H8  NON d   1     -41.192  21.088  -6.964  0.00  0.00     0.169 HD
ATOM     11  O1  NON d   1     -39.704  23.538  -5.630  0.00  0.00    -0.271 OA
BRANCH   9  12
ATOM     12  C6  NON d   1     -39.549  21.753  -8.103  0.00  0.00     0.046 A 
ATOM     13  C4  NON d   1     -39.498  23.094  -8.860  0.00  0.00    -0.034 A 
ATOM     14  C3  NON d   1     -38.795  23.068 -10.062  0.00  0.00     0.015 A 
ATOM     15  C5  NON d   1     -40.214  24.355  -8.341  0.00  0.00     0.050 C 
ATOM     16  C2  NON d   1     -38.174  21.876 -10.531  0.00  0.00    -0.061 A 
ATOM     17  C1  NON d   1     -37.387  21.938 -11.816  0.00  0.00     0.048 C 
ATOM     18  C22 NON d   1     -38.218  20.641  -9.816  0.00  0.00     0.015 A 
ATOM     19  C20 NON d   1     -38.891  20.510  -8.600  0.00  0.00    -0.034 A 
ATOM     20  C21 NON d   1     -39.001  19.186  -7.821  0.00  0.00     0.050 C 
ENDBRANCH   9  12
ENDBRANCH   7   8
ENDBRANCH   1   7
BRANCH   4  21
ATOM     21  C10 NON d   1     -42.398  17.155  -5.168  0.00  0.00     0.125 C 
BRANCH  21  22
ATOM     22  C11 NON d   1     -43.773  17.030  -4.454  0.00  0.00     0.027 C 
BRANCH  22  23
ATOM     23  C12 NON d   1     -44.970  17.527  -5.281  0.00  0.00     0.080 C 
BRANCH  23  24
ATOM     24  C13 NON d   1     -46.291  16.838  -4.998  0.00  0.00     0.105 A 
ATOM     25  N4  NON d   1     -46.814  16.821  -3.722  0.00  0.00    -0.343 N 
ATOM     26  C14 NON d   1     -47.962  16.067  -3.713  0.00  0.00     0.062 A 
ATOM     27  H19 NON d   1     -46.403  17.261  -2.913  0.00  0.00     0.167 HD
ATOM     28  C15 NON d   1     -48.855  15.712  -2.692  0.00  0.00     0.032 A 
ATOM     29  C19 NON d   1     -48.103  15.648  -5.032  0.00  0.00     0.085 A 
ATOM     30  C16 NON d   1     -49.941  14.906  -3.046  0.00  0.00     0.002 A 
ATOM     31  C17 NON d   1     -50.113  14.465  -4.361  0.00  0.00     0.002 A 
ATOM     32  C18 NON d   1     -49.197  14.831  -5.366  0.00  0.00     0.034 A 
ATOM     33  N5  NON d   1     -47.066  16.141  -5.810  0.00  0.00    -0.233 NA
ENDBRANCH  23  24
ENDBRANCH  22  23
ENDBRANCH  21  22
ENDBRANCH   4  21
TORSDOF 7
ENDMDL
