MODEL 1
REMARK VINA RESULT:   -15.898      0.000      0.000
REMARK INTER + INTRA:         -17.988
REMARK INTER:                 -18.284
REMARK INTRA:                   0.296
REMARK CONF_INDEPENDENT:        2.386
REMARK UNBOUND:                 0.296
REMARK  8 active torsions:
REMARK  status: ('A' for Active; 'I' for Inactive)
REMARK    1  A    between atoms: O1_2  and  C2_3 
REMARK    2  A    between atoms: C2_3  and  C3_5 
REMARK    3  A    between atoms: C3_5  and  C4_6 
REMARK    4  A    between atoms: C4_6  and  C5_7 
REMARK    5  A    between atoms: C8_10  and  N1_11 
REMARK       I    between atoms: N1_11  and  C9_12 
REMARK    6  A    between atoms: C10_14  and  C9_12 
REMARK    7  A    between atoms: C10_14  and  C12_16 
REMARK    8  A    between atoms: C12_16  and  S1_17 
ROOT
ATOM      1  C5  NON d   1     -40.788  18.913  -5.306  0.00  0.00    -0.058 A 
ATOM      2  C6  NON d   1     -40.973  17.816  -4.449  0.00  0.00     0.009 A 
ATOM      3  C7  NON d   1     -42.254  17.390  -4.066  0.00  0.00     0.030 A 
ATOM      4  C8  NON d   1     -43.395  18.059  -4.512  0.00  0.00     0.034 A 
ATOM      5  C14 NON d   1     -43.219  19.167  -5.349  0.00  0.00     0.030 A 
ATOM      6  C15 NON d   1     -41.933  19.581  -5.755  0.00  0.00     0.009 A 
ENDROOT
BRANCH   4   7
ATOM      7  N1  NON d   1     -44.710  17.714  -4.091  0.00  0.00    -0.327 N 
ATOM      8  C9  NON d   1     -45.473  16.673  -4.609  0.00  0.00     0.226 C 
ATOM      9  O3  NON d   1     -45.227  16.128  -5.683  0.00  0.00    -0.273 OA
ATOM     10  H10 NON d   1     -45.142  18.328  -3.416  0.00  0.00     0.169 HD
BRANCH   8  11
ATOM     11  C10 NON d   1     -46.616  16.163  -3.673  0.00  0.00     0.083 C 
ATOM     12  C11 NON d   1     -47.250  17.256  -2.793  0.00  0.00     0.020 C 
BRANCH  11  13
ATOM     13  C12 NON d   1     -47.391  15.085  -4.391  0.00  0.00     0.087 C 
BRANCH  13  14
ATOM     14  S1  NON d   1     -48.189  15.887  -5.810  0.00  0.00    -0.173 SA
ATOM     15  C13 NON d   1     -47.561  17.253  -6.142  0.00  0.00     0.089 C 
ENDBRANCH  13  14
ENDBRANCH  11  13
ENDBRANCH   8  11
ENDBRANCH   4   7
BRANCH   1  16
ATOM     16  C4  NON d   1     -39.364  19.311  -5.646  0.00  0.00     0.048 C 
BRANCH  16  17
ATOM     17  C3  NON d   1     -39.087  19.899  -7.034  0.00  0.00     0.115 C 
BRANCH  17  18
ATOM     18  C2  NON d   1     -39.783  19.090  -8.115  0.00  0.00     0.258 C 
ATOM     19  O2  NON d   1     -39.585  17.909  -8.353  0.00  0.00    -0.265 OA
BRANCH  18  20
ATOM     20  O1  NON d   1     -40.661  19.892  -8.787  0.00  0.00    -0.326 OA
ATOM     21  C1  NON d   1     -40.321  21.284  -8.821  0.00  0.00     0.213 C 
ENDBRANCH  18  20
ENDBRANCH  17  18
ENDBRANCH  16  17
ENDBRANCH   1  16
TORSDOF 8
ENDMDL
MODEL 2
REMARK VINA RESULT:   -13.972      0.996      1.551
REMARK INTER + INTRA:         -16.965
REMARK INTER:                 -16.358
REMARK INTRA:                  -0.607
REMARK CONF_INDEPENDENT:        2.386
REMARK UNBOUND:                -0.607
REMARK  8 active torsions:
REMARK  status: ('A' for Active; 'I' for Inactive)
REMARK    1  A    between atoms: O1_2  and  C2_3 
REMARK    2  A    between atoms: C2_3  and  C3_5 
REMARK    3  A    between atoms: C3_5  and  C4_6 
REMARK    4  A    between atoms: C4_6  and  C5_7 
REMARK    5  A    between atoms: C8_10  and  N1_11 
REMARK       I    between atoms: N1_11  and  C9_12 
REMARK    6  A    between atoms: C10_14  and  C9_12 
REMARK    7  A    between atoms: C10_14  and  C12_16 
REMARK    8  A    between atoms: C12_16  and  S1_17 
ROOT
ATOM      1  C5  NON d   1     -40.174  19.407  -5.188  0.00  0.00    -0.058 A 
ATOM      2  C6  NON d   1     -41.389  20.041  -5.492  0.00  0.00     0.009 A 
ATOM      3  C7  NON d   1     -42.619  19.517  -5.065  0.00  0.00     0.030 A 
ATOM      4  C8  NON d   1     -42.677  18.329  -4.336  0.00  0.00     0.034 A 
ATOM      5  C14 NON d   1     -41.472  17.677  -4.047  0.00  0.00     0.030 A 
ATOM      6  C15 NON d   1     -40.233  18.217  -4.453  0.00  0.00     0.009 A 
ENDROOT
BRANCH   4   7
ATOM      7  N1  NON d   1     -43.902  17.716  -3.948  0.00  0.00    -0.327 N 
ATOM      8  C9  NON d   1     -45.044  17.631  -4.737  0.00  0.00     0.226 C 
ATOM      9  O3  NON d   1     -45.229  18.330  -5.731  0.00  0.00    -0.273 OA
ATOM     10  H10 NON d   1     -43.959  17.389  -2.994  0.00  0.00     0.169 HD
BRANCH   8  11
ATOM     11  C10 NON d   1     -46.042  16.499  -4.334  0.00  0.00     0.083 C 
ATOM     12  C11 NON d   1     -47.054  16.903  -3.246  0.00  0.00     0.020 C 
BRANCH  11  13
ATOM     13  C12 NON d   1     -46.382  15.688  -5.560  0.00  0.00     0.087 C 
BRANCH  13  14
ATOM     14  S1  NON d   1     -48.171  15.863  -5.811  0.00  0.00    -0.173 SA
ATOM     15  C13 NON d   1     -48.989  15.048  -4.792  0.00  0.00     0.089 C 
ENDBRANCH  13  14
ENDBRANCH  11  13
ENDBRANCH   8  11
ENDBRANCH   4   7
BRANCH   1  16
ATOM     16  C4  NON d   1     -38.897  20.038  -5.711  0.00  0.00     0.048 C 
BRANCH  16  17
ATOM     17  C3  NON d   1     -38.768  20.267  -7.222  0.00  0.00     0.115 C 
BRANCH  17  18
ATOM     18  C2  NON d   1     -39.523  19.202  -7.998  0.00  0.00     0.258 C 
ATOM     19  O2  NON d   1     -39.430  17.998  -7.822  0.00  0.00    -0.265 OA
BRANCH  18  20
ATOM     20  O1  NON d   1     -40.319  19.802  -8.932  0.00  0.00    -0.326 OA
ATOM     21  C1  NON d   1     -40.992  20.990  -8.497  0.00  0.00     0.213 C 
ENDBRANCH  18  20
ENDBRANCH  17  18
ENDBRANCH  16  17
ENDBRANCH   1  16
TORSDOF 8
ENDMDL
MODEL 3
REMARK VINA RESULT:   -13.711      4.611      7.669
REMARK INTER + INTRA:         -16.711
REMARK INTER:                 -16.097
REMARK INTRA:                  -0.613
REMARK CONF_INDEPENDENT:        2.386
REMARK UNBOUND:                -0.613
REMARK  8 active torsions:
REMARK  status: ('A' for Active; 'I' for Inactive)
REMARK    1  A    between atoms: O1_2  and  C2_3 
REMARK    2  A    between atoms: C2_3  and  C3_5 
REMARK    3  A    between atoms: C3_5  and  C4_6 
REMARK    4  A    between atoms: C4_6  and  C5_7 
REMARK    5  A    between atoms: C8_10  and  N1_11 
REMARK       I    between atoms: N1_11  and  C9_12 
REMARK    6  A    between atoms: C10_14  and  C9_12 
REMARK    7  A    between atoms: C10_14  and  C12_16 
REMARK    8  A    between atoms: C12_16  and  S1_17 
ROOT
ATOM      1  C5  NON d   1     -42.824  17.594  -4.209  0.00  0.00    -0.058 A 
ATOM      2  C6  NON d   1     -41.792  18.274  -4.876  0.00  0.00     0.009 A 
ATOM      3  C7  NON d   1     -40.785  18.953  -4.173  0.00  0.00     0.030 A 
ATOM      4  C8  NON d   1     -40.786  18.992  -2.777  0.00  0.00     0.034 A 
ATOM      5  C14 NON d   1     -41.824  18.334  -2.105  0.00  0.00     0.030 A 
ATOM      6  C15 NON d   1     -42.823  17.630  -2.810  0.00  0.00     0.009 A 
ENDROOT
BRANCH   4   7
ATOM      7  N1  NON d   1     -39.833  19.730  -2.021  0.00  0.00    -0.327 N 
ATOM      8  C9  NON d   1     -39.794  21.116  -1.911  0.00  0.00     0.226 C 
ATOM      9  O3  NON d   1     -40.381  21.870  -2.685  0.00  0.00    -0.273 OA
ATOM     10  H10 NON d   1     -39.086  19.200  -1.598  0.00  0.00     0.169 HD
BRANCH   8  11
ATOM     11  C10 NON d   1     -39.033  21.658  -0.659  0.00  0.00     0.083 C 
ATOM     12  C11 NON d   1     -38.194  22.922  -0.924  0.00  0.00     0.020 C 
BRANCH  11  13
ATOM     13  C12 NON d   1     -39.888  21.439   0.565  0.00  0.00     0.087 C 
BRANCH  13  14
ATOM     14  S1  NON d   1     -40.640  23.043   0.958  0.00  0.00    -0.173 SA
ATOM     15  C13 NON d   1     -41.441  23.621  -0.223  0.00  0.00     0.089 C 
ENDBRANCH  13  14
ENDBRANCH  11  13
ENDBRANCH   8  11
ENDBRANCH   4   7
BRANCH   1  16
ATOM     16  C4  NON d   1     -43.879  16.907  -5.056  0.00  0.00     0.048 C 
BRANCH  16  17
ATOM     17  C3  NON d   1     -45.292  16.764  -4.479  0.00  0.00     0.115 C 
BRANCH  17  18
ATOM     18  C2  NON d   1     -46.336  16.822  -5.580  0.00  0.00     0.258 C 
ATOM     19  O2  NON d   1     -46.637  17.818  -6.219  0.00  0.00    -0.265 OA
BRANCH  18  20
ATOM     20  O1  NON d   1     -46.896  15.586  -5.739  0.00  0.00    -0.326 OA
ATOM     21  C1  NON d   1     -48.140  15.381  -5.058  0.00  0.00     0.213 C 
ENDBRANCH  18  20
ENDBRANCH  17  18
ENDBRANCH  16  17
ENDBRANCH   1  16
TORSDOF 8
ENDMDL
MODEL 4
REMARK VINA RESULT:   -13.685      2.823      7.328
REMARK INTER + INTRA:         -16.851
REMARK INTER:                 -16.072
REMARK INTRA:                  -0.779
REMARK CONF_INDEPENDENT:        2.386
REMARK UNBOUND:                -0.779
REMARK  8 active torsions:
REMARK  status: ('A' for Active; 'I' for Inactive)
REMARK    1  A    between atoms: O1_2  and  C2_3 
REMARK    2  A    between atoms: C2_3  and  C3_5 
REMARK    3  A    between atoms: C3_5  and  C4_6 
REMARK    4  A    between atoms: C4_6  and  C5_7 
REMARK    5  A    between atoms: C8_10  and  N1_11 
REMARK       I    between atoms: N1_11  and  C9_12 
REMARK    6  A    between atoms: C10_14  and  C9_12 
REMARK    7  A    between atoms: C10_14  and  C12_16 
REMARK    8  A    between atoms: C12_16  and  S1_17 
ROOT
ATOM      1  C5  NON d   1     -43.421  18.207  -4.538  0.00  0.00    -0.058 A 
ATOM      2  C6  NON d   1     -42.326  17.408  -4.175  0.00  0.00     0.009 A 
ATOM      3  C7  NON d   1     -41.036  17.661  -4.667  0.00  0.00     0.030 A 
ATOM      4  C8  NON d   1     -40.802  18.711  -5.556  0.00  0.00     0.034 A 
ATOM      5  C14 NON d   1     -41.893  19.499  -5.941  0.00  0.00     0.030 A 
ATOM      6  C15 NON d   1     -43.185  19.262  -5.427  0.00  0.00     0.009 A 
ENDROOT
BRANCH   4   7
ATOM      7  N1  NON d   1     -39.529  18.960  -6.143  0.00  0.00    -0.327 N 
ATOM      8  C9  NON d   1     -39.146  18.580  -7.425  0.00  0.00     0.226 C 
ATOM      9  O3  NON d   1     -39.745  17.729  -8.081  0.00  0.00    -0.273 OA
ATOM     10  H10 NON d   1     -38.832  19.380  -5.545  0.00  0.00     0.169 HD
BRANCH   8  11
ATOM     11  C10 NON d   1     -37.954  19.390  -8.027  0.00  0.00     0.083 C 
ATOM     12  C11 NON d   1     -36.621  18.621  -8.068  0.00  0.00     0.020 C 
BRANCH  11  13
ATOM     13  C12 NON d   1     -38.472  20.266  -9.141  0.00  0.00     0.087 C 
BRANCH  13  14
ATOM     14  S1  NON d   1     -40.197  20.652  -8.731  0.00  0.00    -0.173 SA
ATOM     15  C13 NON d   1     -40.318  21.839  -7.758  0.00  0.00     0.089 C 
ENDBRANCH  13  14
ENDBRANCH  11  13
ENDBRANCH   8  11
ENDBRANCH   4   7
BRANCH   1  16
ATOM     16  C4  NON d   1     -44.781  17.841  -3.971  0.00  0.00     0.048 C 
BRANCH  16  17
ATOM     17  C3  NON d   1     -45.414  16.514  -4.403  0.00  0.00     0.115 C 
BRANCH  17  18
ATOM     18  C2  NON d   1     -46.350  16.717  -5.580  0.00  0.00     0.258 C 
ATOM     19  O2  NON d   1     -46.467  17.748  -6.223  0.00  0.00    -0.265 OA
BRANCH  18  20
ATOM     20  O1  NON d   1     -47.050  15.565  -5.806  0.00  0.00    -0.326 OA
ATOM     21  C1  NON d   1     -48.206  15.376  -4.981  0.00  0.00     0.213 C 
ENDBRANCH  18  20
ENDBRANCH  17  18
ENDBRANCH  16  17
ENDBRANCH   1  16
TORSDOF 8
ENDMDL
MODEL 5
REMARK VINA RESULT:   -13.563      3.058      7.391
REMARK INTER + INTRA:         -16.723
REMARK INTER:                 -15.949
REMARK INTRA:                  -0.774
REMARK CONF_INDEPENDENT:        2.386
REMARK UNBOUND:                -0.774
REMARK  8 active torsions:
REMARK  status: ('A' for Active; 'I' for Inactive)
REMARK    1  A    between atoms: O1_2  and  C2_3 
REMARK    2  A    between atoms: C2_3  and  C3_5 
REMARK    3  A    between atoms: C3_5  and  C4_6 
REMARK    4  A    between atoms: C4_6  and  C5_7 
REMARK    5  A    between atoms: C8_10  and  N1_11 
REMARK       I    between atoms: N1_11  and  C9_12 
REMARK    6  A    between atoms: C10_14  and  C9_12 
REMARK    7  A    between atoms: C10_14  and  C12_16 
REMARK    8  A    between atoms: C12_16  and  S1_17 
ROOT
ATOM      1  C5  NON d   1     -43.565  17.568  -4.293  0.00  0.00    -0.058 A 
ATOM      2  C6  NON d   1     -42.215  17.267  -4.052  0.00  0.00     0.009 A 
ATOM      3  C7  NON d   1     -41.181  18.077  -4.546  0.00  0.00     0.030 A 
ATOM      4  C8  NON d   1     -41.462  19.209  -5.313  0.00  0.00     0.034 A 
ATOM      5  C14 NON d   1     -42.805  19.505  -5.577  0.00  0.00     0.030 A 
ATOM      6  C15 NON d   1     -43.846  18.705  -5.060  0.00  0.00     0.009 A 
ENDROOT
BRANCH   4   7
ATOM      7  N1  NON d   1     -40.449  20.018  -5.901  0.00  0.00    -0.327 N 
ATOM      8  C9  NON d   1     -40.409  20.416  -7.233  0.00  0.00     0.226 C 
ATOM      9  O3  NON d   1     -41.069  19.873  -8.117  0.00  0.00    -0.273 OA
ATOM     10  H10 NON d   1     -39.663  20.253  -5.312  0.00  0.00     0.169 HD
BRANCH   8  11
ATOM     11  C10 NON d   1     -39.542  21.684  -7.518  0.00  0.00     0.083 C 
ATOM     12  C11 NON d   1     -39.722  22.819  -6.493  0.00  0.00     0.020 C 
BRANCH  11  13
ATOM     13  C12 NON d   1     -38.215  21.249  -8.090  0.00  0.00     0.087 C 
BRANCH  13  14
ATOM     14  S1  NON d   1     -37.886  19.594  -7.421  0.00  0.00    -0.173 SA
ATOM     15  C13 NON d   1     -37.443  18.598  -8.508  0.00  0.00     0.089 C 
ENDBRANCH  13  14
ENDBRANCH  11  13
ENDBRANCH   8  11
ENDBRANCH   4   7
BRANCH   1  16
ATOM     16  C4  NON d   1     -44.610  16.620  -3.736  0.00  0.00     0.048 C 
BRANCH  16  17
ATOM     17  C3  NON d   1     -46.089  16.965  -3.948  0.00  0.00     0.115 C 
BRANCH  17  18
ATOM     18  C2  NON d   1     -46.461  16.879  -5.417  0.00  0.00     0.258 C 
ATOM     19  O2  NON d   1     -46.316  17.770  -6.239  0.00  0.00    -0.265 OA
BRANCH  18  20
ATOM     20  O1  NON d   1     -46.994  15.648  -5.679  0.00  0.00    -0.326 OA
ATOM     21  C1  NON d   1     -48.259  15.381  -5.060  0.00  0.00     0.213 C 
ENDBRANCH  18  20
ENDBRANCH  17  18
ENDBRANCH  16  17
ENDBRANCH   1  16
TORSDOF 8
ENDMDL
MODEL 6
REMARK VINA RESULT:   -13.430      3.043      7.294
REMARK INTER + INTRA:         -16.613
REMARK INTER:                 -15.816
REMARK INTRA:                  -0.796
REMARK CONF_INDEPENDENT:        2.386
REMARK UNBOUND:                -0.796
REMARK  8 active torsions:
REMARK  status: ('A' for Active; 'I' for Inactive)
REMARK    1  A    between atoms: O1_2  and  C2_3 
REMARK    2  A    between atoms: C2_3  and  C3_5 
REMARK    3  A    between atoms: C3_5  and  C4_6 
REMARK    4  A    between atoms: C4_6  and  C5_7 
REMARK    5  A    between atoms: C8_10  and  N1_11 
REMARK       I    between atoms: N1_11  and  C9_12 
REMARK    6  A    between atoms: C10_14  and  C9_12 
REMARK    7  A    between atoms: C10_14  and  C12_16 
REMARK    8  A    between atoms: C12_16  and  S1_17 
ROOT
ATOM      1  C5  NON d   1     -43.575  17.530  -4.299  0.00  0.00    -0.058 A 
ATOM      2  C6  NON d   1     -42.225  17.254  -4.028  0.00  0.00     0.009 A 
ATOM      3  C7  NON d   1     -41.198  18.096  -4.481  0.00  0.00     0.030 A 
ATOM      4  C8  NON d   1     -41.485  19.233  -5.238  0.00  0.00     0.034 A 
ATOM      5  C14 NON d   1     -42.827  19.503  -5.532  0.00  0.00     0.030 A 
ATOM      6  C15 NON d   1     -43.862  18.671  -5.055  0.00  0.00     0.009 A 
ENDROOT
BRANCH   4   7
ATOM      7  N1  NON d   1     -40.476  20.075  -5.786  0.00  0.00    -0.327 N 
ATOM      8  C9  NON d   1     -40.249  20.281  -7.142  0.00  0.00     0.226 C 
ATOM      9  O3  NON d   1     -40.686  19.536  -8.018  0.00  0.00    -0.273 OA
ATOM     10  H10 NON d   1     -39.832  20.491  -5.129  0.00  0.00     0.169 HD
BRANCH   8  11
ATOM     11  C10 NON d   1     -39.482  21.596  -7.492  0.00  0.00     0.083 C 
ATOM     12  C11 NON d   1     -40.098  22.400  -8.652  0.00  0.00     0.020 C 
BRANCH  11  13
ATOM     13  C12 NON d   1     -38.948  22.204  -6.219  0.00  0.00     0.087 C 
BRANCH  13  14
ATOM     14  S1  NON d   1     -40.301  23.185  -5.512  0.00  0.00    -0.173 SA
ATOM     15  C13 NON d   1     -40.513  22.901  -4.014  0.00  0.00     0.089 C 
ENDBRANCH  13  14
ENDBRANCH  11  13
ENDBRANCH   8  11
ENDBRANCH   4   7
BRANCH   1  16
ATOM     16  C4  NON d   1     -44.612  16.548  -3.785  0.00  0.00     0.048 C 
BRANCH  16  17
ATOM     17  C3  NON d   1     -46.094  16.900  -3.963  0.00  0.00     0.115 C 
BRANCH  17  18
ATOM     18  C2  NON d   1     -46.484  16.877  -5.430  0.00  0.00     0.258 C 
ATOM     19  O2  NON d   1     -46.318  17.791  -6.223  0.00  0.00    -0.265 OA
BRANCH  18  20
ATOM     20  O1  NON d   1     -47.061  15.674  -5.727  0.00  0.00    -0.326 OA
ATOM     21  C1  NON d   1     -48.233  15.350  -4.969  0.00  0.00     0.213 C 
ENDBRANCH  18  20
ENDBRANCH  17  18
ENDBRANCH  16  17
ENDBRANCH   1  16
TORSDOF 8
ENDMDL
MODEL 7
REMARK VINA RESULT:   -13.313      4.962      8.095
REMARK INTER + INTRA:         -16.221
REMARK INTER:                 -15.699
REMARK INTRA:                  -0.522
REMARK CONF_INDEPENDENT:        2.386
REMARK UNBOUND:                -0.522
REMARK  8 active torsions:
REMARK  status: ('A' for Active; 'I' for Inactive)
REMARK    1  A    between atoms: O1_2  and  C2_3 
REMARK    2  A    between atoms: C2_3  and  C3_5 
REMARK    3  A    between atoms: C3_5  and  C4_6 
REMARK    4  A    between atoms: C4_6  and  C5_7 
REMARK    5  A    between atoms: C8_10  and  N1_11 
REMARK       I    between atoms: N1_11  and  C9_12 
REMARK    6  A    between atoms: C10_14  and  C9_12 
REMARK    7  A    between atoms: C10_14  and  C12_16 
REMARK    8  A    between atoms: C12_16  and  S1_17 
ROOT
ATOM      1  C5  NON d   1     -42.761  17.766  -4.192  0.00  0.00    -0.058 A 
ATOM      2  C6  NON d   1     -42.339  19.036  -4.616  0.00  0.00     0.009 A 
ATOM      3  C7  NON d   1     -41.386  19.772  -3.895  0.00  0.00     0.030 A 
ATOM      4  C8  NON d   1     -40.837  19.271  -2.714  0.00  0.00     0.034 A 
ATOM      5  C14 NON d   1     -41.269  18.014  -2.272  0.00  0.00     0.030 A 
ATOM      6  C15 NON d   1     -42.208  17.262  -3.009  0.00  0.00     0.009 A 
ENDROOT
BRANCH   4   7
ATOM      7  N1  NON d   1     -39.927  20.010  -1.907  0.00  0.00    -0.327 N 
ATOM      8  C9  NON d   1     -39.773  21.392  -1.928  0.00  0.00     0.226 C 
ATOM      9  O3  NON d   1     -40.178  22.100  -2.848  0.00  0.00    -0.273 OA
ATOM     10  H10 NON d   1     -39.295  19.472  -1.332  0.00  0.00     0.169 HD
BRANCH   8  11
ATOM     11  C10 NON d   1     -39.136  22.006  -0.641  0.00  0.00     0.083 C 
ATOM     12  C11 NON d   1     -40.054  21.977   0.596  0.00  0.00     0.020 C 
BRANCH  11  13
ATOM     13  C12 NON d   1     -37.663  21.682  -0.621  0.00  0.00     0.087 C 
BRANCH  13  14
ATOM     14  S1  NON d   1     -37.310  20.997   1.022  0.00  0.00    -0.173 SA
ATOM     15  C13 NON d   1     -37.030  22.093   2.067  0.00  0.00     0.089 C 
ENDBRANCH  13  14
ENDBRANCH  11  13
ENDBRANCH   8  11
ENDBRANCH   4   7
BRANCH   1  16
ATOM     16  C4  NON d   1     -43.812  17.056  -5.027  0.00  0.00     0.048 C 
BRANCH  16  17
ATOM     17  C3  NON d   1     -45.208  16.864  -4.424  0.00  0.00     0.115 C 
BRANCH  17  18
ATOM     18  C2  NON d   1     -46.276  16.923  -5.501  0.00  0.00     0.258 C 
ATOM     19  O2  NON d   1     -46.539  17.899  -6.186  0.00  0.00    -0.265 OA
BRANCH  18  20
ATOM     20  O1  NON d   1     -46.907  15.713  -5.581  0.00  0.00    -0.326 OA
ATOM     21  C1  NON d   1     -47.831  15.430  -4.523  0.00  0.00     0.213 C 
ENDBRANCH  18  20
ENDBRANCH  17  18
ENDBRANCH  16  17
ENDBRANCH   1  16
TORSDOF 8
ENDMDL
MODEL 8
REMARK VINA RESULT:   -13.285      4.066      7.879
REMARK INTER + INTRA:         -16.324
REMARK INTER:                 -15.672
REMARK INTRA:                  -0.652
REMARK CONF_INDEPENDENT:        2.386
REMARK UNBOUND:                -0.652
REMARK  8 active torsions:
REMARK  status: ('A' for Active; 'I' for Inactive)
REMARK    1  A    between atoms: O1_2  and  C2_3 
REMARK    2  A    between atoms: C2_3  and  C3_5 
REMARK    3  A    between atoms: C3_5  and  C4_6 
REMARK    4  A    between atoms: C4_6  and  C5_7 
REMARK    5  A    between atoms: C8_10  and  N1_11 
REMARK       I    between atoms: N1_11  and  C9_12 
REMARK    6  A    between atoms: C10_14  and  C9_12 
REMARK    7  A    between atoms: C10_14  and  C12_16 
REMARK    8  A    between atoms: C12_16  and  S1_17 
ROOT
ATOM      1  C5  NON d   1     -43.373  18.007  -4.383  0.00  0.00    -0.058 A 
ATOM      2  C6  NON d   1     -42.567  19.120  -4.673  0.00  0.00     0.009 A 
ATOM      3  C7  NON d   1     -41.309  19.292  -4.075  0.00  0.00     0.030 A 
ATOM      4  C8  NON d   1     -40.822  18.366  -3.151  0.00  0.00     0.034 A 
ATOM      5  C14 NON d   1     -41.629  17.265  -2.839  0.00  0.00     0.030 A 
ATOM      6  C15 NON d   1     -42.883  17.077  -3.459  0.00  0.00     0.009 A 
ENDROOT
BRANCH   4   7
ATOM      7  N1  NON d   1     -39.589  18.535  -2.460  0.00  0.00    -0.327 N 
ATOM      8  C9  NON d   1     -38.436  19.097  -2.998  0.00  0.00     0.226 C 
ATOM      9  O3  NON d   1     -38.254  19.232  -4.206  0.00  0.00    -0.273 OA
ATOM     10  H10 NON d   1     -39.536  18.144  -1.531  0.00  0.00     0.169 HD
BRANCH   8  11
ATOM     11  C10 NON d   1     -37.419  19.650  -1.949  0.00  0.00     0.083 C 
ATOM     12  C11 NON d   1     -36.395  18.613  -1.452  0.00  0.00     0.020 C 
BRANCH  11  13
ATOM     13  C12 NON d   1     -37.088  21.081  -2.296  0.00  0.00     0.087 C 
BRANCH  13  14
ATOM     14  S1  NON d   1     -38.272  22.114  -1.388  0.00  0.00    -0.173 SA
ATOM     15  C13 NON d   1     -39.404  21.288  -0.750  0.00  0.00     0.089 C 
ENDBRANCH  13  14
ENDBRANCH  11  13
ENDBRANCH   8  11
ENDBRANCH   4   7
BRANCH   1  16
ATOM     16  C4  NON d   1     -44.726  17.920  -5.063  0.00  0.00     0.048 C 
BRANCH  16  17
ATOM     17  C3  NON d   1     -45.629  16.726  -4.731  0.00  0.00     0.115 C 
BRANCH  17  18
ATOM     18  C2  NON d   1     -46.827  16.676  -5.662  0.00  0.00     0.258 C 
ATOM     19  O2  NON d   1     -47.353  17.642  -6.193  0.00  0.00    -0.265 OA
BRANCH  18  20
ATOM     20  O1  NON d   1     -47.233  15.380  -5.809  0.00  0.00    -0.326 OA
ATOM     21  C1  NON d   1     -48.394  15.009  -5.054  0.00  0.00     0.213 C 
ENDBRANCH  18  20
ENDBRANCH  17  18
ENDBRANCH  16  17
ENDBRANCH   1  16
TORSDOF 8
ENDMDL
MODEL 9
REMARK VINA RESULT:   -13.234      4.128      7.858
REMARK INTER + INTRA:         -16.293
REMARK INTER:                 -15.621
REMARK INTRA:                  -0.672
REMARK CONF_INDEPENDENT:        2.386
REMARK UNBOUND:                -0.672
REMARK  8 active torsions:
REMARK  status: ('A' for Active; 'I' for Inactive)
REMARK    1  A    between atoms: O1_2  and  C2_3 
REMARK    2  A    between atoms: C2_3  and  C3_5 
REMARK    3  A    between atoms: C3_5  and  C4_6 
REMARK    4  A    between atoms: C4_6  and  C5_7 
REMARK    5  A    between atoms: C8_10  and  N1_11 
REMARK       I    between atoms: N1_11  and  C9_12 
REMARK    6  A    between atoms: C10_14  and  C9_12 
REMARK    7  A    between atoms: C10_14  and  C12_16 
REMARK    8  A    between atoms: C12_16  and  S1_17 
ROOT
ATOM      1  C5  NON d   1     -42.934  18.295  -4.342  0.00  0.00    -0.058 A 
ATOM      2  C6  NON d   1     -42.653  17.549  -3.186  0.00  0.00     0.009 A 
ATOM      3  C7  NON d   1     -41.394  17.596  -2.569  0.00  0.00     0.030 A 
ATOM      4  C8  NON d   1     -40.365  18.377  -3.098  0.00  0.00     0.034 A 
ATOM      5  C14 NON d   1     -40.630  19.107  -4.263  0.00  0.00     0.030 A 
ATOM      6  C15 NON d   1     -41.903  19.080  -4.870  0.00  0.00     0.009 A 
ENDROOT
BRANCH   4   7
ATOM      7  N1  NON d   1     -39.050  18.399  -2.555  0.00  0.00    -0.327 N 
ATOM      8  C9  NON d   1     -37.873  18.376  -3.296  0.00  0.00     0.226 C 
ATOM      9  O3  NON d   1     -37.827  18.032  -4.475  0.00  0.00    -0.273 OA
ATOM     10  H10 NON d   1     -38.977  18.350  -1.549  0.00  0.00     0.169 HD
BRANCH   8  11
ATOM     11  C10 NON d   1     -36.613  18.926  -2.553  0.00  0.00     0.083 C 
ATOM     12  C11 NON d   1     -36.325  20.417  -2.811  0.00  0.00     0.020 C 
BRANCH  11  13
ATOM     13  C12 NON d   1     -36.509  18.255  -1.205  0.00  0.00     0.087 C 
BRANCH  13  14
ATOM     14  S1  NON d   1     -36.350  16.476  -1.530  0.00  0.00    -0.173 SA
ATOM     15  C13 NON d   1     -37.184  15.625  -0.556  0.00  0.00     0.089 C 
ENDBRANCH  13  14
ENDBRANCH  11  13
ENDBRANCH   8  11
ENDBRANCH   4   7
BRANCH   1  16
ATOM     16  C4  NON d   1     -44.319  18.161  -4.949  0.00  0.00     0.048 C 
BRANCH  16  17
ATOM     17  C3  NON d   1     -45.102  16.869  -4.689  0.00  0.00     0.115 C 
BRANCH  17  18
ATOM     18  C2  NON d   1     -46.338  16.798  -5.569  0.00  0.00     0.258 C 
ATOM     19  O2  NON d   1     -46.824  17.734  -6.185  0.00  0.00    -0.265 OA
BRANCH  18  20
ATOM     20  O1  NON d   1     -46.828  15.523  -5.560  0.00  0.00    -0.326 OA
ATOM     21  C1  NON d   1     -48.165  15.381  -5.062  0.00  0.00     0.213 C 
ENDBRANCH  18  20
ENDBRANCH  17  18
ENDBRANCH  16  17
ENDBRANCH   1  16
TORSDOF 8
ENDMDL
