MODEL 1
REMARK VINA RESULT:   -30.344      0.000      0.000
REMARK INTER + INTRA:         -33.629
REMARK INTER:                 -32.134
REMARK INTRA:                  -1.494
REMARK CONF_INDEPENDENT:        1.790
REMARK UNBOUND:                -1.494
REMARK  6 active torsions:
REMARK  status: ('A' for Active; 'I' for Inactive)
REMARK    1  A    between atoms: C2_2  and  C3_3 
REMARK    2  A    between atoms: C2_2  and  C15_21 
REMARK    3  A    between atoms: C3_3  and  C4_4 
REMARK       I    between atoms: C4_4  and  N1_6 
REMARK    4  A    between atoms: N1_6  and  N2_7 
REMARK       I    between atoms: N2_7  and  C5_8 
REMARK    5  A    between atoms: C5_8  and  C6_10 
REMARK    6  A    between atoms: C8_12  and  C9_13 
ROOT
ATOM      1  N2  NON d   1     -43.492  18.612  -5.410  0.00  0.00    -0.262 N 
ATOM      2  C5  NON d   1     -43.977  17.503  -4.721  0.00  0.00     0.288 C 
ATOM      3  O2  NON d   1     -43.214  16.830  -4.025  0.00  0.00    -0.264 OA
ATOM      4  H8  NON d   1     -44.028  19.205  -6.036  0.00  0.00     0.190 HD
ENDROOT
BRANCH   2   5
ATOM      5  C6  NON d   1     -45.386  17.178  -4.859  0.00  0.00     0.121 A 
ATOM      6  C7  NON d   1     -46.268  16.719  -3.887  0.00  0.00     0.071 A 
ATOM      7  C8  NON d   1     -47.535  16.536  -4.515  0.00  0.00     0.089 A 
ATOM      8  N3  NON d   1     -47.437  16.878  -5.810  0.00  0.00    -0.174 NA
ATOM      9  N4  NON d   1     -46.160  17.258  -5.980  0.00  0.00    -0.272 N 
ATOM     10  H15 NON d   1     -45.890  17.565  -6.907  0.00  0.00     0.189 HD
BRANCH   7  11
ATOM     11  C9  NON d   1     -48.804  16.052  -3.930  0.00  0.00    -0.006 A 
ATOM     12  C10 NON d   1     -49.623  16.887  -3.154  0.00  0.00     0.014 A 
ATOM     13  C11 NON d   1     -50.822  16.411  -2.600  0.00  0.00     0.001 A 
ATOM     14  C12 NON d   1     -51.222  15.095  -2.812  0.00  0.00     0.000 A 
ATOM     15  C13 NON d   1     -50.424  14.250  -3.579  0.00  0.00     0.001 A 
ATOM     16  C14 NON d   1     -49.229  14.726  -4.134  0.00  0.00     0.014 A 
ENDBRANCH   7  11
ENDBRANCH   2   5
BRANCH   1  17
ATOM     17  N1  NON d   1     -42.104  18.907  -5.325  0.00  0.00    -0.267 N 
ATOM     18  C4  NON d   1     -41.508  19.719  -6.283  0.00  0.00     0.236 C 
ATOM     19  O1  NON d   1     -42.127  20.142  -7.257  0.00  0.00    -0.272 OA
ATOM     20  H7  NON d   1     -41.629  18.583  -4.482  0.00  0.00     0.190 HD
BRANCH  18  21
ATOM     21  C3  NON d   1     -40.013  19.986  -6.035  0.00  0.00     0.109 C 
BRANCH  21  22
ATOM     22  C2  NON d   1     -39.242  20.833  -7.151  0.00  0.00    -0.006 C 
ATOM     23  C1  NON d   1     -38.970  22.330  -7.387  0.00  0.00     0.011 C 
BRANCH  22  24
ATOM     24  C15 NON d   1     -39.009  19.820  -8.287  0.00  0.00    -0.010 A 
ATOM     25  C16 NON d   1     -37.920  18.775  -8.253  0.00  0.00     0.005 A 
ATOM     26  C17 NON d   1     -39.349  18.379  -8.013  0.00  0.00     0.005 A 
ENDBRANCH  22  24
ENDBRANCH  21  22
ENDBRANCH  18  21
ENDBRANCH   1  17
TORSDOF 6
ENDMDL
MODEL 2
REMARK VINA RESULT:   -30.216      1.875      2.834
REMARK INTER + INTRA:         -33.170
REMARK INTER:                 -32.006
REMARK INTRA:                  -1.164
REMARK CONF_INDEPENDENT:        1.790
REMARK UNBOUND:                -1.164
REMARK  6 active torsions:
REMARK  status: ('A' for Active; 'I' for Inactive)
REMARK    1  A    between atoms: C2_2  and  C3_3 
REMARK    2  A    between atoms: C2_2  and  C15_21 
REMARK    3  A    between atoms: C3_3  and  C4_4 
REMARK       I    between atoms: C4_4  and  N1_6 
REMARK    4  A    between atoms: N1_6  and  N2_7 
REMARK       I    between atoms: N2_7  and  C5_8 
REMARK    5  A    between atoms: C5_8  and  C6_10 
REMARK    6  A    between atoms: C8_12  and  C9_13 
ROOT
ATOM      1  N2  NON d   1     -43.159  16.815  -3.890  0.00  0.00    -0.262 N 
ATOM      2  C5  NON d   1     -43.972  17.614  -4.691  0.00  0.00     0.288 C 
ATOM      3  O2  NON d   1     -43.501  18.612  -5.242  0.00  0.00    -0.264 OA
ATOM      4  H8  NON d   1     -43.458  15.999  -3.365  0.00  0.00     0.190 HD
ENDROOT
BRANCH   2   5
ATOM      5  C6  NON d   1     -45.365  17.235  -4.840  0.00  0.00     0.121 A 
ATOM      6  C7  NON d   1     -46.244  16.770  -3.867  0.00  0.00     0.071 A 
ATOM      7  C8  NON d   1     -47.495  16.525  -4.508  0.00  0.00     0.089 A 
ATOM      8  N3  NON d   1     -47.390  16.836  -5.810  0.00  0.00    -0.174 NA
ATOM      9  N4  NON d   1     -46.126  17.257  -5.973  0.00  0.00    -0.272 N 
ATOM     10  H15 NON d   1     -45.853  17.550  -6.904  0.00  0.00     0.189 HD
BRANCH   7  11
ATOM     11  C9  NON d   1     -48.754  16.011  -3.928  0.00  0.00    -0.006 A 
ATOM     12  C10 NON d   1     -49.244  14.734  -4.243  0.00  0.00     0.014 A 
ATOM     13  C11 NON d   1     -50.444  14.262  -3.689  0.00  0.00     0.001 A 
ATOM     14  C12 NON d   1     -51.175  15.058  -2.811  0.00  0.00     0.000 A 
ATOM     15  C13 NON d   1     -50.707  16.328  -2.484  0.00  0.00     0.001 A 
ATOM     16  C14 NON d   1     -49.507  16.796  -3.036  0.00  0.00     0.014 A 
ENDBRANCH   7  11
ENDBRANCH   2   5
BRANCH   1  17
ATOM     17  N1  NON d   1     -41.806  17.208  -3.693  0.00  0.00    -0.267 N 
ATOM     18  C4  NON d   1     -41.458  17.956  -2.575  0.00  0.00     0.236 C 
ATOM     19  O1  NON d   1     -42.296  18.358  -1.771  0.00  0.00    -0.272 OA
ATOM     20  H7  NON d   1     -41.129  16.818  -4.349  0.00  0.00     0.190 HD
BRANCH  18  21
ATOM     21  C3  NON d   1     -39.954  18.267  -2.474  0.00  0.00     0.109 C 
BRANCH  21  22
ATOM     22  C2  NON d   1     -39.475  19.682  -3.044  0.00  0.00    -0.006 C 
ATOM     23  C1  NON d   1     -38.730  20.896  -2.459  0.00  0.00     0.011 C 
BRANCH  22  24
ATOM     24  C15 NON d   1     -40.219  19.809  -4.387  0.00  0.00    -0.010 A 
ATOM     25  C16 NON d   1     -39.537  20.201  -5.676  0.00  0.00     0.005 A 
ATOM     26  C17 NON d   1     -39.932  18.771  -5.440  0.00  0.00     0.005 A 
ENDBRANCH  22  24
ENDBRANCH  21  22
ENDBRANCH  18  21
ENDBRANCH   1  17
TORSDOF 6
ENDMDL
MODEL 3
REMARK VINA RESULT:   -30.136      4.153     10.652
REMARK INTER + INTRA:         -32.881
REMARK INTER:                 -31.926
REMARK INTRA:                  -0.955
REMARK CONF_INDEPENDENT:        1.790
REMARK UNBOUND:                -0.955
REMARK  6 active torsions:
REMARK  status: ('A' for Active; 'I' for Inactive)
REMARK    1  A    between atoms: C2_2  and  C3_3 
REMARK    2  A    between atoms: C2_2  and  C15_21 
REMARK    3  A    between atoms: C3_3  and  C4_4 
REMARK       I    between atoms: C4_4  and  N1_6 
REMARK    4  A    between atoms: N1_6  and  N2_7 
REMARK       I    between atoms: N2_7  and  C5_8 
REMARK    5  A    between atoms: C5_8  and  C6_10 
REMARK    6  A    between atoms: C8_12  and  C9_13 
ROOT
ATOM      1  N2  NON d   1     -50.822  17.322  -3.176  0.00  0.00    -0.262 N 
ATOM      2  C5  NON d   1     -49.880  16.301  -3.069  0.00  0.00     0.288 C 
ATOM      3  O2  NON d   1     -50.134  15.300  -2.395  0.00  0.00    -0.264 OA
ATOM      4  H8  NON d   1     -50.695  18.199  -3.672  0.00  0.00     0.190 HD
ENDROOT
BRANCH   2   5
ATOM      5  C6  NON d   1     -48.615  16.466  -3.763  0.00  0.00     0.121 A 
ATOM      6  C7  NON d   1     -47.388  16.862  -3.242  0.00  0.00     0.071 A 
ATOM      7  C8  NON d   1     -46.456  16.882  -4.322  0.00  0.00     0.089 A 
ATOM      8  N3  NON d   1     -47.081  16.505  -5.449  0.00  0.00    -0.174 NA
ATOM      9  N4  NON d   1     -48.350  16.261  -5.086  0.00  0.00    -0.272 N 
ATOM     10  H15 NON d   1     -48.987  15.951  -5.811  0.00  0.00     0.189 HD
BRANCH   7  11
ATOM     11  C9  NON d   1     -45.023  17.246  -4.309  0.00  0.00    -0.006 A 
ATOM     12  C10 NON d   1     -44.085  16.522  -3.556  0.00  0.00     0.014 A 
ATOM     13  C11 NON d   1     -42.729  16.883  -3.549  0.00  0.00     0.001 A 
ATOM     14  C12 NON d   1     -42.287  17.974  -4.294  0.00  0.00     0.000 A 
ATOM     15  C13 NON d   1     -43.201  18.707  -5.047  0.00  0.00     0.001 A 
ATOM     16  C14 NON d   1     -44.553  18.343  -5.055  0.00  0.00     0.014 A 
ENDBRANCH   7  11
ENDBRANCH   2   5
BRANCH   1  17
ATOM     17  N1  NON d   1     -52.042  17.196  -2.456  0.00  0.00    -0.267 N 
ATOM     18  C4  NON d   1     -52.121  17.643  -1.142  0.00  0.00     0.236 C 
ATOM     19  O1  NON d   1     -51.143  18.087  -0.543  0.00  0.00    -0.272 OA
ATOM     20  H7  NON d   1     -52.846  16.871  -2.994  0.00  0.00     0.190 HD
BRANCH  18  21
ATOM     21  C3  NON d   1     -53.514  17.482  -0.509  0.00  0.00     0.109 C 
BRANCH  21  22
ATOM     22  C2  NON d   1     -54.686  18.385  -1.117  0.00  0.00    -0.006 C 
ATOM     23  C1  NON d   1     -55.481  18.394  -2.436  0.00  0.00     0.011 C 
BRANCH  22  24
ATOM     24  C15 NON d   1     -54.731  19.607  -0.182  0.00  0.00    -0.010 A 
ATOM     25  C16 NON d   1     -53.568  20.552   0.002  0.00  0.00     0.005 A 
ATOM     26  C17 NON d   1     -54.752  20.970  -0.822  0.00  0.00     0.005 A 
ENDBRANCH  22  24
ENDBRANCH  21  22
ENDBRANCH  18  21
ENDBRANCH   1  17
TORSDOF 6
ENDMDL
MODEL 4
REMARK VINA RESULT:   -29.915      4.148     10.643
REMARK INTER + INTRA:         -32.714
REMARK INTER:                 -31.705
REMARK INTRA:                  -1.008
REMARK CONF_INDEPENDENT:        1.790
REMARK UNBOUND:                -1.008
REMARK  6 active torsions:
REMARK  status: ('A' for Active; 'I' for Inactive)
REMARK    1  A    between atoms: C2_2  and  C3_3 
REMARK    2  A    between atoms: C2_2  and  C15_21 
REMARK    3  A    between atoms: C3_3  and  C4_4 
REMARK       I    between atoms: C4_4  and  N1_6 
REMARK    4  A    between atoms: N1_6  and  N2_7 
REMARK       I    between atoms: N2_7  and  C5_8 
REMARK    5  A    between atoms: C5_8  and  C6_10 
REMARK    6  A    between atoms: C8_12  and  C9_13 
ROOT
ATOM      1  N2  NON d   1     -50.828  17.381  -3.225  0.00  0.00    -0.262 N 
ATOM      2  C5  NON d   1     -49.883  16.369  -3.076  0.00  0.00     0.288 C 
ATOM      3  O2  NON d   1     -50.138  15.391  -2.369  0.00  0.00    -0.264 OA
ATOM      4  H8  NON d   1     -50.701  18.240  -3.751  0.00  0.00     0.190 HD
ENDROOT
BRANCH   2   5
ATOM      5  C6  NON d   1     -48.614  16.514  -3.766  0.00  0.00     0.121 A 
ATOM      6  C7  NON d   1     -47.390  16.924  -3.250  0.00  0.00     0.071 A 
ATOM      7  C8  NON d   1     -46.452  16.914  -4.324  0.00  0.00     0.089 A 
ATOM      8  N3  NON d   1     -47.070  16.505  -5.444  0.00  0.00    -0.174 NA
ATOM      9  N4  NON d   1     -48.341  16.271  -5.082  0.00  0.00    -0.272 N 
ATOM     10  H15 NON d   1     -48.973  15.940  -5.801  0.00  0.00     0.189 HD
BRANCH   7  11
ATOM     11  C9  NON d   1     -45.019  17.279  -4.313  0.00  0.00    -0.006 A 
ATOM     12  C10 NON d   1     -44.528  18.362  -5.059  0.00  0.00     0.014 A 
ATOM     13  C11 NON d   1     -43.164  18.693  -5.043  0.00  0.00     0.001 A 
ATOM     14  C12 NON d   1     -42.267  17.946  -4.282  0.00  0.00     0.000 A 
ATOM     15  C13 NON d   1     -42.733  16.867  -3.535  0.00  0.00     0.001 A 
ATOM     16  C14 NON d   1     -44.095  16.541  -3.549  0.00  0.00     0.014 A 
ENDBRANCH   7  11
ENDBRANCH   2   5
BRANCH   1  17
ATOM     17  N1  NON d   1     -52.052  17.276  -2.510  0.00  0.00    -0.267 N 
ATOM     18  C4  NON d   1     -52.109  17.653  -1.173  0.00  0.00     0.236 C 
ATOM     19  O1  NON d   1     -51.110  18.015  -0.554  0.00  0.00    -0.272 OA
ATOM     20  H7  NON d   1     -52.871  17.021  -3.062  0.00  0.00     0.190 HD
BRANCH  18  21
ATOM     21  C3  NON d   1     -53.508  17.526  -0.546  0.00  0.00     0.109 C 
BRANCH  21  22
ATOM     22  C2  NON d   1     -54.473  18.793  -0.684  0.00  0.00    -0.006 C 
ATOM     23  C1  NON d   1     -54.631  20.129   0.068  0.00  0.00     0.011 C 
BRANCH  22  24
ATOM     24  C15 NON d   1     -55.582  18.310  -1.636  0.00  0.00    -0.010 A 
ATOM     25  C16 NON d   1     -55.674  18.735  -3.082  0.00  0.00     0.005 A 
ATOM     26  C17 NON d   1     -55.189  17.357  -2.733  0.00  0.00     0.005 A 
ENDBRANCH  22  24
ENDBRANCH  21  22
ENDBRANCH  18  21
ENDBRANCH   1  17
TORSDOF 6
ENDMDL
MODEL 5
REMARK VINA RESULT:   -29.829      1.498      2.147
REMARK INTER + INTRA:         -33.300
REMARK INTER:                 -31.619
REMARK INTRA:                  -1.682
REMARK CONF_INDEPENDENT:        1.790
REMARK UNBOUND:                -1.682
REMARK  6 active torsions:
REMARK  status: ('A' for Active; 'I' for Inactive)
REMARK    1  A    between atoms: C2_2  and  C3_3 
REMARK    2  A    between atoms: C2_2  and  C15_21 
REMARK    3  A    between atoms: C3_3  and  C4_4 
REMARK       I    between atoms: C4_4  and  N1_6 
REMARK    4  A    between atoms: N1_6  and  N2_7 
REMARK       I    between atoms: N2_7  and  C5_8 
REMARK    5  A    between atoms: C5_8  and  C6_10 
REMARK    6  A    between atoms: C8_12  and  C9_13 
ROOT
ATOM      1  N2  NON d   1     -43.362  18.403  -5.395  0.00  0.00    -0.262 N 
ATOM      2  C5  NON d   1     -43.891  17.287  -4.750  0.00  0.00     0.288 C 
ATOM      3  O2  NON d   1     -43.151  16.546  -4.099  0.00  0.00    -0.264 OA
ATOM      4  H8  NON d   1     -43.877  19.050  -5.983  0.00  0.00     0.190 HD
ENDROOT
BRANCH   2   5
ATOM      5  C6  NON d   1     -45.315  17.037  -4.880  0.00  0.00     0.121 A 
ATOM      6  C7  NON d   1     -46.205  16.579  -3.914  0.00  0.00     0.071 A 
ATOM      7  C8  NON d   1     -47.488  16.486  -4.530  0.00  0.00     0.089 A 
ATOM      8  N3  NON d   1     -47.391  16.880  -5.810  0.00  0.00    -0.174 NA
ATOM      9  N4  NON d   1     -46.100  17.204  -5.984  0.00  0.00    -0.272 N 
ATOM     10  H15 NON d   1     -45.828  17.538  -6.901  0.00  0.00     0.189 HD
BRANCH   7  11
ATOM     11  C9  NON d   1     -48.771  16.038  -3.946  0.00  0.00    -0.006 A 
ATOM     12  C10 NON d   1     -49.570  16.898  -3.176  0.00  0.00     0.014 A 
ATOM     13  C11 NON d   1     -50.782  16.457  -2.623  0.00  0.00     0.001 A 
ATOM     14  C12 NON d   1     -51.218  15.151  -2.831  0.00  0.00     0.000 A 
ATOM     15  C13 NON d   1     -50.440  14.282  -3.593  0.00  0.00     0.001 A 
ATOM     16  C14 NON d   1     -49.232  14.724  -4.146  0.00  0.00     0.014 A 
ENDBRANCH   7  11
ENDBRANCH   2   5
BRANCH   1  17
ATOM     17  N1  NON d   1     -41.959  18.627  -5.319  0.00  0.00    -0.267 N 
ATOM     18  C4  NON d   1     -41.358  19.547  -6.169  0.00  0.00     0.236 C 
ATOM     19  O1  NON d   1     -41.988  20.135  -7.046  0.00  0.00    -0.272 OA
ATOM     20  H7  NON d   1     -41.474  18.163  -4.551  0.00  0.00     0.190 HD
BRANCH  18  21
ATOM     21  C3  NON d   1     -39.845  19.715  -5.941  0.00  0.00     0.109 C 
BRANCH  21  22
ATOM     22  C2  NON d   1     -39.366  19.900  -4.427  0.00  0.00    -0.006 C 
ATOM     23  C1  NON d   1     -38.909  21.094  -3.568  0.00  0.00     0.011 C 
BRANCH  22  24
ATOM     24  C15 NON d   1     -39.112  18.461  -3.942  0.00  0.00    -0.010 A 
ATOM     25  C16 NON d   1     -38.530  18.135  -2.587  0.00  0.00     0.005 A 
ATOM     26  C17 NON d   1     -39.996  17.932  -2.843  0.00  0.00     0.005 A 
ENDBRANCH  22  24
ENDBRANCH  21  22
ENDBRANCH  18  21
ENDBRANCH   1  17
TORSDOF 6
ENDMDL
