MODEL 1
REMARK VINA RESULT:    -7.749      0.000      0.000
REMARK INTER + INTRA:         -11.593
REMARK INTER:                  -9.837
REMARK INTRA:                  -1.755
REMARK CONF_INDEPENDENT:        2.088
REMARK UNBOUND:                -1.755
REMARK  7 active torsions:
REMARK  status: ('A' for Active; 'I' for Inactive)
REMARK    1  A    between atoms: C2_2  and  C3_3 
REMARK    2  A    between atoms: C3_3  and  C4_4 
REMARK    3  A    between atoms: C4_4  and  C5_5 
REMARK    4  A    between atoms: C5_5  and  N1_6 
REMARK    5  A    between atoms: N2_9  and  C7_10 
REMARK    6  A    between atoms: C14_17  and  N3_18 
REMARK       I    between atoms: N3_18  and  C15_20 
REMARK       I    between atoms: C15_20  and  N4_22 
REMARK    7  A    between atoms: N4_22  and  C16_23 
ROOT
ATOM      1  N1  NON d   1     -39.809  20.945  -7.993  0.00  0.00    -0.321 N 
ATOM      2  C6  NON d   1     -40.167  19.810  -7.272  0.00  0.00     0.327 C 
ATOM      3  O1  NON d   1     -40.149  18.680  -7.746  0.00  0.00    -0.247 OA
ATOM      4  N2  NON d   1     -40.534  20.186  -5.963  0.00  0.00    -0.273 N 
ATOM      5  C14 NON d   1     -39.796  21.423  -5.631  0.00  0.00     0.260 C 
ATOM      6  C23 NON d   1     -39.460  22.053  -7.063  0.00  0.00     0.071 C 
ATOM      7  C24 NON d   1     -37.948  22.365  -7.192  0.00  0.00     0.042 C 
ATOM      8  C25 NON d   1     -40.262  23.310  -7.424  0.00  0.00     0.042 C 
ENDROOT
BRANCH   5   9
ATOM      9  N3  NON d   1     -40.177  22.332  -4.533  0.00  0.00    -0.146 N 
ATOM     10  O2  NON d   1     -41.440  22.933  -4.685  0.00  0.00    -0.079 OA
ATOM     11  C15 NON d   1     -39.202  23.090  -3.883  0.00  0.00     0.351 C 
ATOM     12  O3  NON d   1     -38.030  23.170  -4.263  0.00  0.00    -0.244 OA
ATOM     13  N4  NON d   1     -39.550  23.796  -2.756  0.00  0.00    -0.307 N 
ATOM     14  H20 NON d   1     -39.019  24.651  -2.681  0.00  0.00     0.170 HD
BRANCH  13  15
ATOM     15  C16 NON d   1     -39.857  23.203  -1.504  0.00  0.00     0.036 A 
ATOM     16  C17 NON d   1     -39.628  21.858  -1.228  0.00  0.00     0.029 A 
ATOM     17  C18 NON d   1     -39.935  21.315   0.021  0.00  0.00     0.003 A 
ATOM     18  C19 NON d   1     -40.432  22.130   1.032  0.00  0.00     0.007 A 
ATOM     19  C20 NON d   1     -40.613  23.498   0.802  0.00  0.00    -0.060 A 
ATOM     20  C21 NON d   1     -41.065  24.380   1.927  0.00  0.00     0.048 C 
ATOM     21  C22 NON d   1     -40.336  24.024  -0.474  0.00  0.00     0.036 A 
ENDBRANCH  13  15
ENDBRANCH   5   9
BRANCH   4  22
ATOM     22  C7  NON d   1     -41.249  19.299  -5.088  0.00  0.00     0.041 A 
ATOM     23  C8  NON d   1     -40.609  18.708  -3.982  0.00  0.00     0.030 A 
ATOM     24  C9  NON d   1     -41.267  17.852  -3.095  0.00  0.00     0.003 A 
ATOM     25  C10 NON d   1     -42.600  17.529  -3.301  0.00  0.00     0.007 A 
ATOM     26  C11 NON d   1     -43.256  18.036  -4.425  0.00  0.00    -0.060 A 
ATOM     27  C12 NON d   1     -44.682  17.659  -4.685  0.00  0.00     0.048 C 
ATOM     28  C13 NON d   1     -42.574  18.914  -5.294  0.00  0.00     0.036 A 
ENDBRANCH   4  22
BRANCH   1  29
ATOM     29  C5  NON d   1     -39.573  20.995  -9.433  0.00  0.00     0.129 C 
BRANCH  29  30
ATOM     30  C4  NON d   1     -39.228  22.338 -10.101  0.00  0.00     0.020 C 
BRANCH  30  31
ATOM     31  C3  NON d   1     -38.673  22.304 -11.533  0.00  0.00     0.001 C 
BRANCH  31  32
ATOM     32  C2  NON d   1     -39.692  22.529 -12.646  0.00  0.00    -0.004 C 
ATOM     33  C1  NON d   1     -40.359  23.893 -12.538  0.00  0.00     0.005 C 
ENDBRANCH  31  32
ENDBRANCH  30  31
ENDBRANCH  29  30
ENDBRANCH   1  29
TORSDOF 7
ENDMDL
MODEL 2
REMARK VINA RESULT:    -7.617      1.328      2.257
REMARK INTER + INTRA:         -12.017
REMARK INTER:                  -9.705
REMARK INTRA:                  -2.312
REMARK CONF_INDEPENDENT:        2.088
REMARK UNBOUND:                -2.312
REMARK  7 active torsions:
REMARK  status: ('A' for Active; 'I' for Inactive)
REMARK    1  A    between atoms: C2_2  and  C3_3 
REMARK    2  A    between atoms: C3_3  and  C4_4 
REMARK    3  A    between atoms: C4_4  and  C5_5 
REMARK    4  A    between atoms: C5_5  and  N1_6 
REMARK    5  A    between atoms: N2_9  and  C7_10 
REMARK    6  A    between atoms: C14_17  and  N3_18 
REMARK       I    between atoms: N3_18  and  C15_20 
REMARK       I    between atoms: C15_20  and  N4_22 
REMARK    7  A    between atoms: N4_22  and  C16_23 
ROOT
ATOM      1  N1  NON d   1     -39.516  20.665  -7.660  0.00  0.00    -0.321 N 
ATOM      2  C6  NON d   1     -39.966  19.552  -6.958  0.00  0.00     0.327 C 
ATOM      3  O1  NON d   1     -39.938  18.415  -7.414  0.00  0.00    -0.247 OA
ATOM      4  N2  NON d   1     -40.434  19.959  -5.692  0.00  0.00    -0.273 N 
ATOM      5  C14 NON d   1     -39.694  21.181  -5.313  0.00  0.00     0.260 C 
ATOM      6  C23 NON d   1     -39.218  21.779  -6.719  0.00  0.00     0.071 C 
ATOM      7  C24 NON d   1     -37.692  22.048  -6.720  0.00  0.00     0.042 C 
ATOM      8  C25 NON d   1     -39.950  23.050  -7.165  0.00  0.00     0.042 C 
ENDROOT
BRANCH   5   9
ATOM      9  N3  NON d   1     -40.143  22.117  -4.265  0.00  0.00    -0.146 N 
ATOM     10  O2  NON d   1     -41.440  22.625  -4.454  0.00  0.00    -0.079 OA
ATOM     11  C15 NON d   1     -39.225  22.969  -3.649  0.00  0.00     0.351 C 
ATOM     12  O3  NON d   1     -38.057  23.105  -4.026  0.00  0.00    -0.244 OA
ATOM     13  N4  NON d   1     -39.628  23.706  -2.561  0.00  0.00    -0.307 N 
ATOM     14  H20 NON d   1     -39.155  24.597  -2.526  0.00  0.00     0.170 HD
BRANCH  13  15
ATOM     15  C16 NON d   1     -39.907  23.157  -1.283  0.00  0.00     0.036 A 
ATOM     16  C17 NON d   1     -39.660  21.826  -0.960  0.00  0.00     0.029 A 
ATOM     17  C18 NON d   1     -39.940  21.328   0.314  0.00  0.00     0.003 A 
ATOM     18  C19 NON d   1     -40.427  22.176   1.302  0.00  0.00     0.007 A 
ATOM     19  C20 NON d   1     -40.625  23.533   1.025  0.00  0.00    -0.060 A 
ATOM     20  C21 NON d   1     -41.065  24.452   2.124  0.00  0.00     0.048 C 
ATOM     21  C22 NON d   1     -40.376  24.012  -0.275  0.00  0.00     0.036 A 
ENDBRANCH  13  15
ENDBRANCH   5   9
BRANCH   4  22
ATOM     22  C7  NON d   1     -41.247  19.105  -4.870  0.00  0.00     0.041 A 
ATOM     23  C8  NON d   1     -40.710  18.480  -3.729  0.00  0.00     0.030 A 
ATOM     24  C9  NON d   1     -41.464  17.654  -2.891  0.00  0.00     0.003 A 
ATOM     25  C10 NON d   1     -42.796  17.398  -3.185  0.00  0.00     0.007 A 
ATOM     26  C11 NON d   1     -43.352  17.940  -4.346  0.00  0.00    -0.060 A 
ATOM     27  C12 NON d   1     -44.775  17.634  -4.701  0.00  0.00     0.048 C 
ATOM     28  C13 NON d   1     -42.572  18.786  -5.164  0.00  0.00     0.036 A 
ENDBRANCH   4  22
BRANCH   1  29
ATOM     29  C5  NON d   1     -39.154  20.686  -9.075  0.00  0.00     0.129 C 
BRANCH  29  30
ATOM     30  C4  NON d   1     -37.753  20.215  -9.510  0.00  0.00     0.020 C 
BRANCH  30  31
ATOM     31  C3  NON d   1     -37.201  18.931  -8.874  0.00  0.00     0.001 C 
BRANCH  31  32
ATOM     32  C2  NON d   1     -36.314  19.126  -7.647  0.00  0.00    -0.004 C 
ATOM     33  C1  NON d   1     -36.564  18.061  -6.589  0.00  0.00     0.005 C 
ENDBRANCH  31  32
ENDBRANCH  30  31
ENDBRANCH  29  30
ENDBRANCH   1  29
TORSDOF 7
ENDMDL
MODEL 3
REMARK VINA RESULT:    -7.461      1.927      7.089
REMARK INTER + INTRA:         -11.555
REMARK INTER:                  -9.549
REMARK INTRA:                  -2.006
REMARK CONF_INDEPENDENT:        2.088
REMARK UNBOUND:                -2.006
REMARK  7 active torsions:
REMARK  status: ('A' for Active; 'I' for Inactive)
REMARK    1  A    between atoms: C2_2  and  C3_3 
REMARK    2  A    between atoms: C3_3  and  C4_4 
REMARK    3  A    between atoms: C4_4  and  C5_5 
REMARK    4  A    between atoms: C5_5  and  N1_6 
REMARK    5  A    between atoms: N2_9  and  C7_10 
REMARK    6  A    between atoms: C14_17  and  N3_18 
REMARK       I    between atoms: N3_18  and  C15_20 
REMARK       I    between atoms: C15_20  and  N4_22 
REMARK    7  A    between atoms: N4_22  and  C16_23 
ROOT
ATOM      1  N1  NON d   1     -41.633  18.332  -4.328  0.00  0.00    -0.321 N 
ATOM      2  C6  NON d   1     -40.950  18.524  -3.132  0.00  0.00     0.327 C 
ATOM      3  O1  NON d   1     -41.074  17.786  -2.162  0.00  0.00    -0.247 OA
ATOM      4  N2  NON d   1     -40.133  19.668  -3.241  0.00  0.00    -0.273 N 
ATOM      5  C14 NON d   1     -39.771  19.824  -4.665  0.00  0.00     0.260 C 
ATOM      6  C23 NON d   1     -40.940  19.048  -5.434  0.00  0.00     0.071 C 
ATOM      7  C24 NON d   1     -40.358  18.007  -6.424  0.00  0.00     0.042 C 
ATOM      8  C25 NON d   1     -41.935  19.945  -6.180  0.00  0.00     0.042 C 
ENDROOT
BRANCH   5   9
ATOM      9  N3  NON d   1     -39.259  21.080  -5.246  0.00  0.00    -0.146 N 
ATOM     10  O2  NON d   1     -37.857  21.178  -5.281  0.00  0.00    -0.079 OA
ATOM     11  C15 NON d   1     -39.961  22.272  -5.062  0.00  0.00     0.351 C 
ATOM     12  O3  NON d   1     -40.931  22.387  -4.306  0.00  0.00    -0.244 OA
ATOM     13  N4  NON d   1     -39.562  23.392  -5.752  0.00  0.00    -0.307 N 
ATOM     14  H20 NON d   1     -39.727  24.231  -5.215  0.00  0.00     0.170 HD
BRANCH  13  15
ATOM     15  C16 NON d   1     -39.721  23.569  -7.151  0.00  0.00     0.036 A 
ATOM     16  C17 NON d   1     -40.062  24.791  -7.725  0.00  0.00     0.029 A 
ATOM     17  C18 NON d   1     -40.199  24.925  -9.108  0.00  0.00     0.003 A 
ATOM     18  C19 NON d   1     -39.946  23.841  -9.942  0.00  0.00     0.007 A 
ATOM     19  C20 NON d   1     -39.541  22.619  -9.396  0.00  0.00    -0.060 A 
ATOM     20  C21 NON d   1     -39.185  21.486 -10.312  0.00  0.00     0.048 C 
ATOM     21  C22 NON d   1     -39.444  22.487  -7.999  0.00  0.00     0.036 A 
ENDBRANCH  13  15
ENDBRANCH   5   9
BRANCH   4  22
ATOM     22  C7  NON d   1     -39.559  20.307  -2.089  0.00  0.00     0.041 A 
ATOM     23  C8  NON d   1     -38.169  20.280  -1.869  0.00  0.00     0.030 A 
ATOM     24  C9  NON d   1     -37.563  20.900  -0.772  0.00  0.00     0.003 A 
ATOM     25  C10 NON d   1     -38.341  21.554   0.173  0.00  0.00     0.007 A 
ATOM     26  C11 NON d   1     -39.730  21.546   0.032  0.00  0.00    -0.060 A 
ATOM     27  C12 NON d   1     -40.585  22.208   1.069  0.00  0.00     0.048 C 
ATOM     28  C13 NON d   1     -40.315  20.929  -1.095  0.00  0.00     0.036 A 
ENDBRANCH   4  22
BRANCH   1  29
ATOM     29  C5  NON d   1     -42.724  17.385  -4.539  0.00  0.00     0.129 C 
BRANCH  29  30
ATOM     30  C4  NON d   1     -44.168  17.904  -4.667  0.00  0.00     0.020 C 
BRANCH  30  31
ATOM     31  C3  NON d   1     -45.308  16.958  -4.261  0.00  0.00     0.001 C 
BRANCH  31  32
ATOM     32  C2  NON d   1     -46.289  16.587  -5.369  0.00  0.00    -0.004 C 
ATOM     33  C1  NON d   1     -47.481  15.806  -4.835  0.00  0.00     0.005 C 
ENDBRANCH  31  32
ENDBRANCH  30  31
ENDBRANCH  29  30
ENDBRANCH   1  29
TORSDOF 7
ENDMDL
MODEL 4
REMARK VINA RESULT:    -7.436      3.095      6.131
REMARK INTER + INTRA:         -11.704
REMARK INTER:                  -9.524
REMARK INTRA:                  -2.181
REMARK CONF_INDEPENDENT:        2.088
REMARK UNBOUND:                -2.181
REMARK  7 active torsions:
REMARK  status: ('A' for Active; 'I' for Inactive)
REMARK    1  A    between atoms: C2_2  and  C3_3 
REMARK    2  A    between atoms: C3_3  and  C4_4 
REMARK    3  A    between atoms: C4_4  and  C5_5 
REMARK    4  A    between atoms: C5_5  and  N1_6 
REMARK    5  A    between atoms: N2_9  and  C7_10 
REMARK    6  A    between atoms: C14_17  and  N3_18 
REMARK       I    between atoms: N3_18  and  C15_20 
REMARK       I    between atoms: C15_20  and  N4_22 
REMARK    7  A    between atoms: N4_22  and  C16_23 
ROOT
ATOM      1  N1  NON d   1     -41.839  18.009  -3.612  0.00  0.00    -0.321 N 
ATOM      2  C6  NON d   1     -40.937  18.309  -2.598  0.00  0.00     0.327 C 
ATOM      3  O1  NON d   1     -40.690  17.547  -1.671  0.00  0.00    -0.247 OA
ATOM      4  N2  NON d   1     -40.390  19.590  -2.825  0.00  0.00    -0.273 N 
ATOM      5  C14 NON d   1     -40.414  19.833  -4.283  0.00  0.00     0.260 C 
ATOM      6  C23 NON d   1     -41.572  18.860  -4.804  0.00  0.00     0.071 C 
ATOM      7  C24 NON d   1     -41.065  17.963  -5.962  0.00  0.00     0.042 C 
ATOM      8  C25 NON d   1     -42.862  19.562  -5.244  0.00  0.00     0.042 C 
ENDROOT
BRANCH   5   9
ATOM      9  N3  NON d   1     -40.292  21.171  -4.890  0.00  0.00    -0.146 N 
ATOM     10  O2  NON d   1     -40.962  21.317  -6.119  0.00  0.00    -0.079 OA
ATOM     11  C15 NON d   1     -39.117  21.907  -4.732  0.00  0.00     0.351 C 
ATOM     12  O3  NON d   1     -38.086  21.450  -4.229  0.00  0.00    -0.244 OA
ATOM     13  N4  NON d   1     -39.088  23.214  -5.156  0.00  0.00    -0.307 N 
ATOM     14  H20 NON d   1     -38.170  23.471  -5.490  0.00  0.00     0.170 HD
BRANCH  13  15
ATOM     15  C16 NON d   1     -39.783  24.276  -4.522  0.00  0.00     0.036 A 
ATOM     16  C17 NON d   1     -40.309  25.360  -5.221  0.00  0.00     0.029 A 
ATOM     17  C18 NON d   1     -40.995  26.380  -4.560  0.00  0.00     0.003 A 
ATOM     18  C19 NON d   1     -41.209  26.302  -3.188  0.00  0.00     0.007 A 
ATOM     19  C20 NON d   1     -40.747  25.193  -2.471  0.00  0.00    -0.060 A 
ATOM     20  C21 NON d   1     -41.062  25.079  -1.010  0.00  0.00     0.048 C 
ATOM     21  C22 NON d   1     -40.023  24.192  -3.144  0.00  0.00     0.036 A 
ENDBRANCH  13  15
ENDBRANCH   5   9
BRANCH   4  22
ATOM     22  C7  NON d   1     -39.684  20.309  -1.802  0.00  0.00     0.041 A 
ATOM     23  C8  NON d   1     -38.281  20.233  -1.707  0.00  0.00     0.030 A 
ATOM     24  C9  NON d   1     -37.549  20.926  -0.738  0.00  0.00     0.003 A 
ATOM     25  C10 NON d   1     -38.205  21.709   0.200  0.00  0.00     0.007 A 
ATOM     26  C11 NON d   1     -39.601  21.758   0.188  0.00  0.00    -0.060 A 
ATOM     27  C12 NON d   1     -40.325  22.562   1.224  0.00  0.00     0.048 C 
ATOM     28  C13 NON d   1     -40.315  21.063  -0.812  0.00  0.00     0.036 A 
ENDBRANCH   4  22
BRANCH   1  29
ATOM     29  C5  NON d   1     -42.759  16.874  -3.620  0.00  0.00     0.129 C 
BRANCH  29  30
ATOM     30  C4  NON d   1     -44.277  17.125  -3.560  0.00  0.00     0.020 C 
BRANCH  30  31
ATOM     31  C3  NON d   1     -45.032  17.268  -4.890  0.00  0.00     0.001 C 
BRANCH  31  32
ATOM     32  C2  NON d   1     -46.325  16.467  -5.008  0.00  0.00    -0.004 C 
ATOM     33  C1  NON d   1     -47.062  16.377  -3.680  0.00  0.00     0.005 C 
ENDBRANCH  31  32
ENDBRANCH  30  31
ENDBRANCH  29  30
ENDBRANCH   1  29
TORSDOF 7
ENDMDL
MODEL 5
REMARK VINA RESULT:    -7.212      2.329      5.447
REMARK INTER + INTRA:         -11.429
REMARK INTER:                  -9.300
REMARK INTRA:                  -2.129
REMARK CONF_INDEPENDENT:        2.088
REMARK UNBOUND:                -2.129
REMARK  7 active torsions:
REMARK  status: ('A' for Active; 'I' for Inactive)
REMARK    1  A    between atoms: C2_2  and  C3_3 
REMARK    2  A    between atoms: C3_3  and  C4_4 
REMARK    3  A    between atoms: C4_4  and  C5_5 
REMARK    4  A    between atoms: C5_5  and  N1_6 
REMARK    5  A    between atoms: N2_9  and  C7_10 
REMARK    6  A    between atoms: C14_17  and  N3_18 
REMARK       I    between atoms: N3_18  and  C15_20 
REMARK       I    between atoms: C15_20  and  N4_22 
REMARK    7  A    between atoms: N4_22  and  C16_23 
ROOT
ATOM      1  N1  NON d   1     -38.602  23.731  -8.867  0.00  0.00    -0.321 N 
ATOM      2  C6  NON d   1     -39.367  24.281  -7.843  0.00  0.00     0.327 C 
ATOM      3  O1  NON d   1     -39.734  25.450  -7.834  0.00  0.00    -0.247 OA
ATOM      4  N2  NON d   1     -39.624  23.292  -6.871  0.00  0.00    -0.273 N 
ATOM      5  C14 NON d   1     -39.615  21.982  -7.555  0.00  0.00     0.260 C 
ATOM      6  C23 NON d   1     -38.729  22.247  -8.860  0.00  0.00     0.071 C 
ATOM      7  C24 NON d   1     -39.476  21.798 -10.140  0.00  0.00     0.042 C 
ATOM      8  C25 NON d   1     -37.336  21.605  -8.842  0.00  0.00     0.042 C 
ENDROOT
BRANCH   5   9
ATOM      9  N3  NON d   1     -39.464  20.694  -6.851  0.00  0.00    -0.146 N 
ATOM     10  O2  NON d   1     -38.206  20.499  -6.254  0.00  0.00    -0.079 OA
ATOM     11  C15 NON d   1     -40.105  19.553  -7.336  0.00  0.00     0.351 C 
ATOM     12  O3  NON d   1     -40.690  19.505  -8.423  0.00  0.00    -0.244 OA
ATOM     13  N4  NON d   1     -40.093  18.409  -6.574  0.00  0.00    -0.307 N 
ATOM     14  H20 NON d   1     -40.079  17.583  -7.154  0.00  0.00     0.170 HD
BRANCH  13  15
ATOM     15  C16 NON d   1     -40.817  18.245  -5.365  0.00  0.00     0.036 A 
ATOM     16  C17 NON d   1     -40.295  18.581  -4.119  0.00  0.00     0.029 A 
ATOM     17  C18 NON d   1     -41.045  18.414  -2.954  0.00  0.00     0.003 A 
ATOM     18  C19 NON d   1     -42.355  17.952  -3.027  0.00  0.00     0.007 A 
ATOM     19  C20 NON d   1     -42.926  17.667  -4.272  0.00  0.00    -0.060 A 
ATOM     20  C21 NON d   1     -44.366  17.256  -4.343  0.00  0.00     0.048 C 
ATOM     21  C22 NON d   1     -42.146  17.803  -5.435  0.00  0.00     0.036 A 
ENDBRANCH  13  15
ENDBRANCH   5   9
BRANCH   4  22
ATOM     22  C7  NON d   1     -40.105  23.622  -5.558  0.00  0.00     0.041 A 
ATOM     23  C8  NON d   1     -40.588  22.619  -4.696  0.00  0.00     0.030 A 
ATOM     24  C9  NON d   1     -41.051  22.889  -3.405  0.00  0.00     0.003 A 
ATOM     25  C10 NON d   1     -41.074  24.194  -2.934  0.00  0.00     0.007 A 
ATOM     26  C11 NON d   1     -40.670  25.229  -3.780  0.00  0.00    -0.060 A 
ATOM     27  C12 NON d   1     -40.734  26.647  -3.301  0.00  0.00     0.048 C 
ATOM     28  C13 NON d   1     -40.189  24.927  -5.072  0.00  0.00     0.036 A 
ENDBRANCH   4  22
BRANCH   1  29
ATOM     29  C5  NON d   1     -37.959  24.481  -9.943  0.00  0.00     0.129 C 
BRANCH  29  30
ATOM     30  C4  NON d   1     -38.801  24.978 -11.132  0.00  0.00     0.020 C 
BRANCH  30  31
ATOM     31  C3  NON d   1     -40.318  24.740 -11.085  0.00  0.00     0.001 C 
BRANCH  31  32
ATOM     32  C2  NON d   1     -40.981  24.419 -12.421  0.00  0.00    -0.004 C 
ATOM     33  C1  NON d   1     -40.313  23.244 -13.120  0.00  0.00     0.005 C 
ENDBRANCH  31  32
ENDBRANCH  30  31
ENDBRANCH  29  30
ENDBRANCH   1  29
TORSDOF 7
ENDMDL
MODEL 6
REMARK VINA RESULT:    -6.993      3.179      6.174
REMARK INTER + INTRA:         -11.249
REMARK INTER:                  -9.081
REMARK INTRA:                  -2.168
REMARK CONF_INDEPENDENT:        2.088
REMARK UNBOUND:                -2.168
REMARK  7 active torsions:
REMARK  status: ('A' for Active; 'I' for Inactive)
REMARK    1  A    between atoms: C2_2  and  C3_3 
REMARK    2  A    between atoms: C3_3  and  C4_4 
REMARK    3  A    between atoms: C4_4  and  C5_5 
REMARK    4  A    between atoms: C5_5  and  N1_6 
REMARK    5  A    between atoms: N2_9  and  C7_10 
REMARK    6  A    between atoms: C14_17  and  N3_18 
REMARK       I    between atoms: N3_18  and  C15_20 
REMARK       I    between atoms: C15_20  and  N4_22 
REMARK    7  A    between atoms: N4_22  and  C16_23 
ROOT
ATOM      1  N1  NON d   1     -39.811  20.333  -3.850  0.00  0.00    -0.321 N 
ATOM      2  C6  NON d   1     -40.383  21.476  -4.399  0.00  0.00     0.327 C 
ATOM      3  O1  NON d   1     -40.891  21.504  -5.513  0.00  0.00    -0.247 OA
ATOM      4  N2  NON d   1     -40.272  22.540  -3.478  0.00  0.00    -0.273 N 
ATOM      5  C14 NON d   1     -40.246  21.954  -2.121  0.00  0.00     0.260 C 
ATOM      6  C23 NON d   1     -39.733  20.460  -2.369  0.00  0.00     0.071 C 
ATOM      7  C24 NON d   1     -40.691  19.428  -1.721  0.00  0.00     0.042 C 
ATOM      8  C25 NON d   1     -38.301  20.178  -1.896  0.00  0.00     0.042 C 
ENDROOT
BRANCH   5   9
ATOM      9  N3  NON d   1     -39.764  22.677  -0.929  0.00  0.00    -0.146 N 
ATOM     10  O2  NON d   1     -38.484  23.242  -1.067  0.00  0.00    -0.079 OA
ATOM     11  C15 NON d   1     -40.111  22.230   0.347  0.00  0.00     0.351 C 
ATOM     12  O3  NON d   1     -40.689  21.160   0.565  0.00  0.00    -0.244 OA
ATOM     13  N4  NON d   1     -39.798  23.011   1.433  0.00  0.00    -0.307 N 
ATOM     14  H20 NON d   1     -39.591  22.446   2.244  0.00  0.00     0.170 HD
BRANCH  13  15
ATOM     15  C16 NON d   1     -40.432  24.242   1.743  0.00  0.00     0.036 A 
ATOM     16  C17 NON d   1     -40.809  25.164   0.770  0.00  0.00     0.029 A 
ATOM     17  C18 NON d   1     -41.441  26.360   1.116  0.00  0.00     0.003 A 
ATOM     18  C19 NON d   1     -41.749  26.627   2.446  0.00  0.00     0.007 A 
ATOM     19  C20 NON d   1     -41.439  25.690   3.437  0.00  0.00    -0.060 A 
ATOM     20  C21 NON d   1     -41.858  25.950   4.853  0.00  0.00     0.048 C 
ATOM     21  C22 NON d   1     -40.768  24.506   3.078  0.00  0.00     0.036 A 
ENDBRANCH  13  15
ENDBRANCH   5   9
BRANCH   4  22
ATOM     22  C7  NON d   1     -40.472  23.908  -3.868  0.00  0.00     0.041 A 
ATOM     23  C8  NON d   1     -40.129  24.346  -5.161  0.00  0.00     0.030 A 
ATOM     24  C9  NON d   1     -40.319  25.663  -5.590  0.00  0.00     0.003 A 
ATOM     25  C10 NON d   1     -40.842  26.608  -4.719  0.00  0.00     0.007 A 
ATOM     26  C11 NON d   1     -41.131  26.235  -3.405  0.00  0.00    -0.060 A 
ATOM     27  C12 NON d   1     -41.652  27.256  -2.441  0.00  0.00     0.048 C 
ATOM     28  C13 NON d   1     -40.947  24.894  -3.003  0.00  0.00     0.036 A 
ENDBRANCH   4  22
BRANCH   1  29
ATOM     29  C5  NON d   1     -39.543  19.090  -4.569  0.00  0.00     0.129 C 
BRANCH  29  30
ATOM     30  C4  NON d   1     -40.638  18.011  -4.657  0.00  0.00     0.020 C 
BRANCH  30  31
ATOM     31  C3  NON d   1     -42.077  18.473  -4.932  0.00  0.00     0.001 C 
BRANCH  31  32
ATOM     32  C2  NON d   1     -43.135  17.963  -3.957  0.00  0.00    -0.004 C 
ATOM     33  C1  NON d   1     -44.253  17.216  -4.670  0.00  0.00     0.005 C 
ENDBRANCH  31  32
ENDBRANCH  30  31
ENDBRANCH  29  30
ENDBRANCH   1  29
TORSDOF 7
ENDMDL
MODEL 7
REMARK VINA RESULT:    -6.947      2.649      8.055
REMARK INTER + INTRA:         -10.944
REMARK INTER:                  -9.035
REMARK INTRA:                  -1.909
REMARK CONF_INDEPENDENT:        2.088
REMARK UNBOUND:                -1.909
REMARK  7 active torsions:
REMARK  status: ('A' for Active; 'I' for Inactive)
REMARK    1  A    between atoms: C2_2  and  C3_3 
REMARK    2  A    between atoms: C3_3  and  C4_4 
REMARK    3  A    between atoms: C4_4  and  C5_5 
REMARK    4  A    between atoms: C5_5  and  N1_6 
REMARK    5  A    between atoms: N2_9  and  C7_10 
REMARK    6  A    between atoms: C14_17  and  N3_18 
REMARK       I    between atoms: N3_18  and  C15_20 
REMARK       I    between atoms: C15_20  and  N4_22 
REMARK    7  A    between atoms: N4_22  and  C16_23 
ROOT
ATOM      1  N1  NON d   1     -41.029  19.917  -5.947  0.00  0.00    -0.321 N 
ATOM      2  C6  NON d   1     -40.602  20.816  -4.976  0.00  0.00     0.327 C 
ATOM      3  O1  NON d   1     -40.819  20.666  -3.780  0.00  0.00    -0.247 OA
ATOM      4  N2  NON d   1     -39.910  21.877  -5.597  0.00  0.00    -0.273 N 
ATOM      5  C14 NON d   1     -39.313  21.353  -6.843  0.00  0.00     0.260 C 
ATOM      6  C23 NON d   1     -40.228  20.087  -7.191  0.00  0.00     0.071 C 
ATOM      7  C24 NON d   1     -39.364  18.821  -7.414  0.00  0.00     0.042 C 
ATOM      8  C25 NON d   1     -41.164  20.272  -8.393  0.00  0.00     0.042 C 
ENDROOT
BRANCH   5   9
ATOM      9  N3  NON d   1     -38.846  22.209  -7.950  0.00  0.00    -0.146 N 
ATOM     10  O2  NON d   1     -37.461  22.154  -8.185  0.00  0.00    -0.079 OA
ATOM     11  C15 NON d   1     -39.470  23.433  -8.198  0.00  0.00     0.351 C 
ATOM     12  O3  NON d   1     -40.315  23.935  -7.451  0.00  0.00    -0.244 OA
ATOM     13  N4  NON d   1     -39.135  24.131  -9.333  0.00  0.00    -0.307 N 
ATOM     14  H20 NON d   1     -39.190  25.128  -9.179  0.00  0.00     0.170 HD
BRANCH  13  15
ATOM     15  C16 NON d   1     -39.489  23.737 -10.649  0.00  0.00     0.036 A 
ATOM     16  C17 NON d   1     -39.189  22.480 -11.168  0.00  0.00     0.029 A 
ATOM     17  C18 NON d   1     -39.565  22.127 -12.466  0.00  0.00     0.003 A 
ATOM     18  C19 NON d   1     -40.294  23.017 -13.247  0.00  0.00     0.007 A 
ATOM     19  C20 NON d   1     -40.665  24.262 -12.728  0.00  0.00    -0.060 A 
ATOM     20  C21 NON d   1     -41.527  25.174 -13.547  0.00  0.00     0.048 C 
ATOM     21  C22 NON d   1     -40.246  24.619 -11.433  0.00  0.00     0.036 A 
ENDBRANCH  13  15
ENDBRANCH   5   9
BRANCH   4  22
ATOM     22  C7  NON d   1     -39.631  23.109  -4.912  0.00  0.00     0.041 A 
ATOM     23  C8  NON d   1     -38.305  23.499  -4.643  0.00  0.00     0.030 A 
ATOM     24  C9  NON d   1     -37.984  24.694  -3.993  0.00  0.00     0.003 A 
ATOM     25  C10 NON d   1     -38.993  25.540  -3.558  0.00  0.00     0.007 A 
ATOM     26  C11 NON d   1     -40.324  25.160  -3.739  0.00  0.00    -0.060 A 
ATOM     27  C12 NON d   1     -41.424  26.042  -3.232  0.00  0.00     0.048 C 
ATOM     28  C13 NON d   1     -40.621  23.957  -4.415  0.00  0.00     0.036 A 
ENDBRANCH   4  22
BRANCH   1  29
ATOM     29  C5  NON d   1     -41.952  18.806  -5.727  0.00  0.00     0.129 C 
BRANCH  29  30
ATOM     30  C4  NON d   1     -41.807  17.935  -4.466  0.00  0.00     0.020 C 
BRANCH  30  31
ATOM     31  C3  NON d   1     -43.075  17.277  -3.902  0.00  0.00     0.001 C 
BRANCH  31  32
ATOM     32  C2  NON d   1     -44.361  17.538  -4.681  0.00  0.00    -0.004 C 
ATOM     33  C1  NON d   1     -45.566  16.880  -4.025  0.00  0.00     0.005 C 
ENDBRANCH  31  32
ENDBRANCH  30  31
ENDBRANCH  29  30
ENDBRANCH   1  29
TORSDOF 7
ENDMDL
MODEL 8
REMARK VINA RESULT:    -6.612      2.089      4.661
REMARK INTER + INTRA:         -11.226
REMARK INTER:                  -8.700
REMARK INTRA:                  -2.526
REMARK CONF_INDEPENDENT:        2.088
REMARK UNBOUND:                -2.526
REMARK  7 active torsions:
REMARK  status: ('A' for Active; 'I' for Inactive)
REMARK    1  A    between atoms: C2_2  and  C3_3 
REMARK    2  A    between atoms: C3_3  and  C4_4 
REMARK    3  A    between atoms: C4_4  and  C5_5 
REMARK    4  A    between atoms: C5_5  and  N1_6 
REMARK    5  A    between atoms: N2_9  and  C7_10 
REMARK    6  A    between atoms: C14_17  and  N3_18 
REMARK       I    between atoms: N3_18  and  C15_20 
REMARK       I    between atoms: C15_20  and  N4_22 
REMARK    7  A    between atoms: N4_22  and  C16_23 
ROOT
ATOM      1  N1  NON d   1     -40.045  19.477  -6.380  0.00  0.00    -0.321 N 
ATOM      2  C6  NON d   1     -40.463  20.769  -6.684  0.00  0.00     0.327 C 
ATOM      3  O1  NON d   1     -40.963  21.076  -7.759  0.00  0.00    -0.247 OA
ATOM      4  N2  NON d   1     -40.215  21.610  -5.580  0.00  0.00    -0.273 N 
ATOM      5  C14 NON d   1     -40.267  20.774  -4.361  0.00  0.00     0.260 C 
ATOM      6  C23 NON d   1     -39.951  19.303  -4.905  0.00  0.00     0.071 C 
ATOM      7  C24 NON d   1     -41.035  18.296  -4.444  0.00  0.00     0.042 C 
ATOM      8  C25 NON d   1     -38.568  18.755  -4.530  0.00  0.00     0.042 C 
ENDROOT
BRANCH   5   9
ATOM      9  N3  NON d   1     -39.696  21.184  -3.064  0.00  0.00    -0.146 N 
ATOM     10  O2  NON d   1     -38.381  21.678  -3.136  0.00  0.00    -0.079 OA
ATOM     11  C15 NON d   1     -40.038  20.495  -1.901  0.00  0.00     0.351 C 
ATOM     12  O3  NON d   1     -40.690  19.445  -1.892  0.00  0.00    -0.244 OA
ATOM     13  N4  NON d   1     -39.634  20.997  -0.687  0.00  0.00    -0.307 N 
ATOM     14  H20 NON d   1     -39.447  20.255  -0.027  0.00  0.00     0.170 HD
BRANCH  13  15
ATOM     15  C16 NON d   1     -40.163  22.171  -0.091  0.00  0.00     0.036 A 
ATOM     16  C17 NON d   1     -40.433  22.271   1.271  0.00  0.00     0.029 A 
ATOM     17  C18 NON d   1     -40.944  23.449   1.820  0.00  0.00     0.003 A 
ATOM     18  C19 NON d   1     -41.144  24.565   1.015  0.00  0.00     0.007 A 
ATOM     19  C20 NON d   1     -40.821  24.512  -0.345  0.00  0.00    -0.060 A 
ATOM     20  C21 NON d   1     -40.957  25.747  -1.183  0.00  0.00     0.048 C 
ATOM     21  C22 NON d   1     -40.344  23.306  -0.893  0.00  0.00     0.036 A 
ENDBRANCH  13  15
ENDBRANCH   5   9
BRANCH   4  22
ATOM     22  C7  NON d   1     -40.237  23.042  -5.693  0.00  0.00     0.041 A 
ATOM     23  C8  NON d   1     -40.667  23.843  -4.618  0.00  0.00     0.030 A 
ATOM     24  C9  NON d   1     -40.691  25.239  -4.676  0.00  0.00     0.003 A 
ATOM     25  C10 NON d   1     -40.307  25.893  -5.838  0.00  0.00     0.007 A 
ATOM     26  C11 NON d   1     -39.940  25.137  -6.953  0.00  0.00    -0.060 A 
ATOM     27  C12 NON d   1     -39.567  25.828  -8.229  0.00  0.00     0.048 C 
ATOM     28  C13 NON d   1     -39.906  23.729  -6.862  0.00  0.00     0.036 A 
ENDBRANCH   4  22
BRANCH   1  29
ATOM     29  C5  NON d   1     -39.940  18.374  -7.331  0.00  0.00     0.129 C 
BRANCH  29  30
ATOM     30  C4  NON d   1     -38.866  18.419  -8.434  0.00  0.00     0.020 C 
BRANCH  30  31
ATOM     31  C3  NON d   1     -37.477  18.957  -8.058  0.00  0.00     0.001 C 
BRANCH  31  32
ATOM     32  C2  NON d   1     -37.180  20.389  -8.493  0.00  0.00    -0.004 C 
ATOM     33  C1  NON d   1     -38.313  20.979  -9.321  0.00  0.00     0.005 C 
ENDBRANCH  31  32
ENDBRANCH  30  31
ENDBRANCH  29  30
ENDBRANCH   1  29
TORSDOF 7
ENDMDL
MODEL 9
REMARK VINA RESULT:    -6.443      2.772      6.678
REMARK INTER + INTRA:         -11.345
REMARK INTER:                  -8.531
REMARK INTRA:                  -2.815
REMARK CONF_INDEPENDENT:        2.088
REMARK UNBOUND:                -2.815
REMARK  7 active torsions:
REMARK  status: ('A' for Active; 'I' for Inactive)
REMARK    1  A    between atoms: C2_2  and  C3_3 
REMARK    2  A    between atoms: C3_3  and  C4_4 
REMARK    3  A    between atoms: C4_4  and  C5_5 
REMARK    4  A    between atoms: C5_5  and  N1_6 
REMARK    5  A    between atoms: N2_9  and  C7_10 
REMARK    6  A    between atoms: C14_17  and  N3_18 
REMARK       I    between atoms: N3_18  and  C15_20 
REMARK       I    between atoms: C15_20  and  N4_22 
REMARK    7  A    between atoms: N4_22  and  C16_23 
ROOT
ATOM      1  N1  NON d   1     -38.073  22.435  -2.060  0.00  0.00    -0.321 N 
ATOM      2  C6  NON d   1     -37.673  21.887  -3.274  0.00  0.00     0.327 C 
ATOM      3  O1  NON d   1     -36.726  22.312  -3.924  0.00  0.00    -0.247 OA
ATOM      4  N2  NON d   1     -38.520  20.806  -3.598  0.00  0.00    -0.273 N 
ATOM      5  C14 NON d   1     -39.022  20.237  -2.330  0.00  0.00     0.260 C 
ATOM      6  C23 NON d   1     -38.887  21.450  -1.296  0.00  0.00     0.071 C 
ATOM      7  C24 NON d   1     -38.104  21.019  -0.031  0.00  0.00     0.042 C 
ATOM      8  C25 NON d   1     -40.214  22.090  -0.869  0.00  0.00     0.042 C 
ENDROOT
BRANCH   5   9
ATOM      9  N3  NON d   1     -40.206  19.361  -2.238  0.00  0.00    -0.146 N 
ATOM     10  O2  NON d   1     -40.878  19.416  -1.004  0.00  0.00    -0.079 OA
ATOM     11  C15 NON d   1     -40.220  18.133  -2.900  0.00  0.00     0.351 C 
ATOM     12  O3  NON d   1     -39.232  17.642  -3.454  0.00  0.00    -0.244 OA
ATOM     13  N4  NON d   1     -41.391  17.415  -2.944  0.00  0.00    -0.307 N 
ATOM     14  H20 NON d   1     -41.212  16.421  -2.939  0.00  0.00     0.170 HD
BRANCH  13  15
ATOM     15  C16 NON d   1     -42.528  17.786  -3.707  0.00  0.00     0.036 A 
ATOM     16  C17 NON d   1     -42.503  18.805  -4.656  0.00  0.00     0.029 A 
ATOM     17  C18 NON d   1     -43.642  19.132  -5.393  0.00  0.00     0.003 A 
ATOM     18  C19 NON d   1     -44.815  18.405  -5.225  0.00  0.00     0.007 A 
ATOM     19  C20 NON d   1     -44.851  17.334  -4.325  0.00  0.00    -0.060 A 
ATOM     20  C21 NON d   1     -46.093  16.503  -4.219  0.00  0.00     0.048 C 
ATOM     21  C22 NON d   1     -43.707  17.041  -3.560  0.00  0.00     0.036 A 
ENDBRANCH  13  15
ENDBRANCH   5   9
BRANCH   4  22
ATOM     22  C7  NON d   1     -38.570  20.247  -4.920  0.00  0.00     0.041 A 
ATOM     23  C8  NON d   1     -37.524  19.435  -5.398  0.00  0.00     0.030 A 
ATOM     24  C9  NON d   1     -37.534  18.856  -6.670  0.00  0.00     0.003 A 
ATOM     25  C10 NON d   1     -38.593  19.096  -7.533  0.00  0.00     0.007 A 
ATOM     26  C11 NON d   1     -39.619  19.953  -7.128  0.00  0.00    -0.060 A 
ATOM     27  C12 NON d   1     -40.745  20.259  -8.068  0.00  0.00     0.048 C 
ATOM     28  C13 NON d   1     -39.593  20.509  -5.831  0.00  0.00     0.036 A 
ENDBRANCH   4  22
BRANCH   1  29
ATOM     29  C5  NON d   1     -37.583  23.689  -1.494  0.00  0.00     0.129 C 
BRANCH  29  30
ATOM     30  C4  NON d   1     -38.228  25.020  -1.920  0.00  0.00     0.020 C 
BRANCH  30  31
ATOM     31  C3  NON d   1     -39.700  24.993  -2.359  0.00  0.00     0.001 C 
BRANCH  31  32
ATOM     32  C2  NON d   1     -39.960  24.502  -3.781  0.00  0.00    -0.004 C 
ATOM     33  C1  NON d   1     -41.083  23.477  -3.832  0.00  0.00     0.005 C 
ENDBRANCH  31  32
ENDBRANCH  30  31
ENDBRANCH  29  30
ENDBRANCH   1  29
TORSDOF 7
ENDMDL
