MODEL 1
REMARK VINA RESULT:   -28.451      0.000      0.000
REMARK INTER + INTRA:         -30.668
REMARK INTER:                 -29.942
REMARK INTRA:                  -0.726
REMARK CONF_INDEPENDENT:        1.492
REMARK UNBOUND:                -0.726
REMARK  5 active torsions:
REMARK  status: ('A' for Active; 'I' for Inactive)
REMARK    1  A    between atoms: C6_6  and  C7_7 
REMARK       I    between atoms: C7_7  and  N1_9 
REMARK    2  A    between atoms: N1_9  and  C8_10 
REMARK    3  A    between atoms: C11_13  and  C12_14 
REMARK       I    between atoms: C12_14  and  N2_16 
REMARK    4  A    between atoms: N2_16  and  N3_17 
REMARK       I    between atoms: N3_17  and  C13_18 
REMARK    5  A    between atoms: C13_18  and  C14_20 
ROOT
ATOM      1  C8  NON d   1     -41.243  19.595  -4.949  0.00  0.00     0.035 A 
ATOM      2  C9  NON d   1     -42.366  19.915  -5.729  0.00  0.00     0.030 A 
ATOM      3  C10 NON d   1     -43.555  19.157  -5.655  0.00  0.00     0.019 A 
ATOM      4  C11 NON d   1     -43.642  18.060  -4.793  0.00  0.00     0.033 A 
ATOM      5  C18 NON d   1     -42.518  17.747  -4.015  0.00  0.00     0.019 A 
ATOM      6  C19 NON d   1     -41.336  18.501  -4.091  0.00  0.00     0.030 A 
ENDROOT
BRANCH   4   7
ATOM      7  C12 NON d   1     -44.856  17.186  -4.635  0.00  0.00     0.271 C 
ATOM      8  O2  NON d   1     -44.868  16.385  -3.701  0.00  0.00    -0.266 OA
ATOM      9  N2  NON d   1     -45.882  17.338  -5.549  0.00  0.00    -0.239 N 
ATOM     10  H10 NON d   1     -45.909  17.983  -6.331  0.00  0.00     0.192 HD
BRANCH   9  11
ATOM     11  N3  NON d   1     -47.081  16.505  -5.435  0.00  0.00    -0.127 NA
ATOM     12  C13 NON d   1     -47.625  16.518  -4.208  0.00  0.00     0.317 C 
ATOM     13  O3  NON d   1     -47.198  17.146  -3.235  0.00  0.00    -0.262 OA
BRANCH  12  14
ATOM     14  C14 NON d   1     -48.820  15.681  -4.125  0.00  0.00     0.146 A 
ATOM     15  C15 NON d   1     -49.803  15.633  -3.149  0.00  0.00     0.045 A 
ATOM     16  C16 NON d   1     -50.745  14.652  -3.544  0.00  0.00     0.027 A 
ATOM     17  C17 NON d   1     -50.289  14.153  -4.739  0.00  0.00     0.143 A 
ATOM     18  O4  NON d   1     -49.133  14.762  -5.101  0.00  0.00    -0.317 OA
ENDBRANCH  12  14
ENDBRANCH   9  11
ENDBRANCH   4   7
BRANCH   1  19
ATOM     19  N1  NON d   1     -40.079  20.406  -5.080  0.00  0.00    -0.323 N 
ATOM     20  C7  NON d   1     -40.017  21.795  -5.014  0.00  0.00     0.256 C 
ATOM     21  O1  NON d   1     -40.978  22.535  -4.823  0.00  0.00    -0.267 OA
ATOM     22  H7  NON d   1     -39.229  19.892  -5.240  0.00  0.00     0.169 HD
BRANCH  20  23
ATOM     23  C6  NON d   1     -38.673  22.459  -5.192  0.00  0.00     0.032 A 
ATOM     24  C5  NON d   1     -37.708  22.059  -6.121  0.00  0.00     0.017 A 
ATOM     25  C4  NON d   1     -36.484  22.741  -6.205  0.00  0.00     0.002 A 
ATOM     26  C3  NON d   1     -36.207  23.835  -5.376  0.00  0.00     0.007 A 
ATOM     27  C2  NON d   1     -37.158  24.276  -4.456  0.00  0.00    -0.061 A 
ATOM     28  C1  NON d   1     -36.910  25.461  -3.503  0.00  0.00     0.048 C 
ATOM     29  C20 NON d   1     -38.374  23.564  -4.362  0.00  0.00     0.023 A 
ENDBRANCH  20  23
ENDBRANCH   1  19
TORSDOF 5
ENDMDL
MODEL 2
REMARK VINA RESULT:   -28.250      1.073      1.275
REMARK INTER + INTRA:         -30.396
REMARK INTER:                 -29.742
REMARK INTRA:                  -0.654
REMARK CONF_INDEPENDENT:        1.492
REMARK UNBOUND:                -0.654
REMARK  5 active torsions:
REMARK  status: ('A' for Active; 'I' for Inactive)
REMARK    1  A    between atoms: C6_6  and  C7_7 
REMARK       I    between atoms: C7_7  and  N1_9 
REMARK    2  A    between atoms: N1_9  and  C8_10 
REMARK    3  A    between atoms: C11_13  and  C12_14 
REMARK       I    between atoms: C12_14  and  N2_16 
REMARK    4  A    between atoms: N2_16  and  N3_17 
REMARK       I    between atoms: N3_17  and  C13_18 
REMARK    5  A    between atoms: C13_18  and  C14_20 
ROOT
ATOM      1  C8  NON d   1     -41.275  19.657  -4.970  0.00  0.00     0.035 A 
ATOM      2  C9  NON d   1     -42.358  19.889  -5.834  0.00  0.00     0.030 A 
ATOM      3  C10 NON d   1     -43.532  19.107  -5.769  0.00  0.00     0.019 A 
ATOM      4  C11 NON d   1     -43.644  18.075  -4.833  0.00  0.00     0.033 A 
ATOM      5  C18 NON d   1     -42.560  17.850  -3.973  0.00  0.00     0.019 A 
ATOM      6  C19 NON d   1     -41.393  18.627  -4.039  0.00  0.00     0.030 A 
ENDROOT
BRANCH   4   7
ATOM      7  C12 NON d   1     -44.845  17.183  -4.679  0.00  0.00     0.271 C 
ATOM      8  O2  NON d   1     -44.828  16.352  -3.772  0.00  0.00    -0.266 OA
ATOM      9  N2  NON d   1     -45.893  17.354  -5.566  0.00  0.00    -0.239 N 
ATOM     10  H10 NON d   1     -45.943  18.024  -6.324  0.00  0.00     0.192 HD
BRANCH   9  11
ATOM     11  N3  NON d   1     -47.080  16.504  -5.453  0.00  0.00    -0.127 NA
ATOM     12  C13 NON d   1     -47.601  16.476  -4.217  0.00  0.00     0.317 C 
ATOM     13  O3  NON d   1     -47.162  17.080  -3.234  0.00  0.00    -0.262 OA
BRANCH  12  14
ATOM     14  C14 NON d   1     -48.785  15.624  -4.137  0.00  0.00     0.146 A 
ATOM     15  C15 NON d   1     -49.748  15.534  -3.142  0.00  0.00     0.045 A 
ATOM     16  C16 NON d   1     -50.687  14.555  -3.549  0.00  0.00     0.027 A 
ATOM     17  C17 NON d   1     -50.251  14.099  -4.768  0.00  0.00     0.143 A 
ATOM     18  O4  NON d   1     -49.108  14.732  -5.134  0.00  0.00    -0.317 OA
ENDBRANCH  12  14
ENDBRANCH   9  11
ENDBRANCH   4   7
BRANCH   1  19
ATOM     19  N1  NON d   1     -40.124  20.487  -5.096  0.00  0.00    -0.323 N 
ATOM     20  C7  NON d   1     -39.805  21.317  -6.168  0.00  0.00     0.256 C 
ATOM     21  O1  NON d   1     -40.490  21.457  -7.178  0.00  0.00    -0.267 OA
ATOM     22  H7  NON d   1     -39.493  20.446  -4.314  0.00  0.00     0.169 HD
BRANCH  20  23
ATOM     23  C6  NON d   1     -38.521  22.108  -6.102  0.00  0.00     0.032 A 
ATOM     24  C5  NON d   1     -37.427  21.778  -5.296  0.00  0.00     0.017 A 
ATOM     25  C4  NON d   1     -36.278  22.583  -5.302  0.00  0.00     0.002 A 
ATOM     26  C3  NON d   1     -36.195  23.720  -6.116  0.00  0.00     0.007 A 
ATOM     27  C2  NON d   1     -37.259  24.063  -6.951  0.00  0.00    -0.061 A 
ATOM     28  C1  NON d   1     -37.240  25.309  -7.856  0.00  0.00     0.048 C 
ATOM     29  C20 NON d   1     -38.420  23.260  -6.914  0.00  0.00     0.023 A 
ENDBRANCH  20  23
ENDBRANCH   1  19
TORSDOF 5
ENDMDL
