MODEL 1
REMARK VINA RESULT:   -35.170      0.000      0.000
REMARK INTER + INTRA:         -38.559
REMARK INTER:                 -37.258
REMARK INTRA:                  -1.301
REMARK CONF_INDEPENDENT:        2.088
REMARK UNBOUND:                -1.301
REMARK  7 active torsions:
REMARK  status: ('A' for Active; 'I' for Inactive)
REMARK    1  A    between atoms: C1_2  and  C2_3 
REMARK       I    between atoms: C1_2  and  N3_17 
REMARK    2  A    between atoms: C2_3  and  C3_4 
REMARK    3  A    between atoms: C3_4  and  N1_5 
REMARK       I    between atoms: N1_5  and  C4_6 
REMARK       I    between atoms: C4_6  and  N2_8 
REMARK    4  A    between atoms: N2_8  and  O3_9 
REMARK    5  A    between atoms: O3_9  and  C5_10 
REMARK    6  A    between atoms: C5_10  and  C6_11 
REMARK    7  A    between atoms: N3_17  and  C12_18 
ROOT
ATOM      1  N1  NON d   1     -48.937  15.529  -5.170  0.00  0.00    -0.346 N 
ATOM      2  C4  NON d   1     -47.575  15.610  -5.408  0.00  0.00     0.317 C 
ATOM      3  O2  NON d   1     -46.817  14.653  -5.282  0.00  0.00    -0.252 OA
ATOM      4  N2  NON d   1     -47.203  16.880  -5.810  0.00  0.00    -0.119 NA
ATOM      5  H5  NON d   1     -49.429  16.400  -5.009  0.00  0.00     0.163 HD
ATOM      6  H6  NON d   1     -47.708  17.631  -5.359  0.00  0.00     0.165 HD
ENDROOT
BRANCH   1   7
ATOM      7  C3  NON d   1     -49.484  14.380  -4.472  0.00  0.00     0.133 C 
BRANCH   7   8
ATOM      8  C2  NON d   1     -49.822  14.656  -3.010  0.00  0.00     0.122 C 
BRANCH   8   9
ATOM      9  C1  NON d   1     -50.523  15.988  -2.814  0.00  0.00     0.219 C 
ATOM     10  O1  NON d   1     -49.966  17.061  -3.027  0.00  0.00    -0.274 OA
ATOM     11  N3  NON d   1     -51.843  15.865  -2.432  0.00  0.00    -0.356 N 
ATOM     12  H14 NON d   1     -52.267  14.948  -2.507  0.00  0.00     0.162 HD
BRANCH  11  13
ATOM     13  C12 NON d   1     -52.740  17.002  -2.348  0.00  0.00     0.084 C 
ATOM     14  C13 NON d   1     -54.190  16.605  -2.621  0.00  0.00     0.025 C 
ATOM     15  C14 NON d   1     -54.999  17.781  -2.097  0.00  0.00     0.002 C 
ATOM     16  C15 NON d   1     -54.174  18.372  -0.953  0.00  0.00     0.002 C 
ATOM     17  C16 NON d   1     -52.838  17.631  -0.958  0.00  0.00     0.025 C 
ENDBRANCH  11  13
ENDBRANCH   8   9
ENDBRANCH   7   8
ENDBRANCH   1   7
BRANCH   4  18
ATOM     18  O3  NON d   1     -45.791  17.070  -5.811  0.00  0.00    -0.293 OA
BRANCH  18  19
ATOM     19  C5  NON d   1     -45.337  17.145  -4.456  0.00  0.00     0.233 C 
BRANCH  19  20
ATOM     20  C6  NON d   1     -43.941  17.718  -4.341  0.00  0.00    -0.033 A 
ATOM     21  C7  NON d   1     -42.939  17.110  -3.574  0.00  0.00     0.009 A 
ATOM     22  C8  NON d   1     -41.652  17.653  -3.524  0.00  0.00     0.001 A 
ATOM     23  C9  NON d   1     -41.348  18.805  -4.247  0.00  0.00     0.000 A 
ATOM     24  C10 NON d   1     -42.329  19.415  -5.023  0.00  0.00     0.001 A 
ATOM     25  C11 NON d   1     -43.616  18.874  -5.072  0.00  0.00     0.009 A 
ENDBRANCH  19  20
ENDBRANCH  18  19
ENDBRANCH   4  18
TORSDOF 7
ENDMDL
MODEL 2
REMARK VINA RESULT:   -34.945      2.774      9.485
REMARK INTER + INTRA:         -37.371
REMARK INTER:                 -37.033
REMARK INTRA:                  -0.338
REMARK CONF_INDEPENDENT:        2.088
REMARK UNBOUND:                -0.338
REMARK  7 active torsions:
REMARK  status: ('A' for Active; 'I' for Inactive)
REMARK    1  A    between atoms: C1_2  and  C2_3 
REMARK       I    between atoms: C1_2  and  N3_17 
REMARK    2  A    between atoms: C2_3  and  C3_4 
REMARK    3  A    between atoms: C3_4  and  N1_5 
REMARK       I    between atoms: N1_5  and  C4_6 
REMARK       I    between atoms: C4_6  and  N2_8 
REMARK    4  A    between atoms: N2_8  and  O3_9 
REMARK    5  A    between atoms: O3_9  and  C5_10 
REMARK    6  A    between atoms: C5_10  and  C6_11 
REMARK    7  A    between atoms: N3_17  and  C12_18 
ROOT
ATOM      1  N1  NON d   1     -45.472  18.339  -5.498  0.00  0.00    -0.346 N 
ATOM      2  C4  NON d   1     -45.765  16.986  -5.436  0.00  0.00     0.317 C 
ATOM      3  O2  NON d   1     -44.950  16.143  -5.076  0.00  0.00    -0.252 OA
ATOM      4  N2  NON d   1     -47.072  16.731  -5.810  0.00  0.00    -0.119 NA
ATOM      5  H5  NON d   1     -46.078  18.915  -6.071  0.00  0.00     0.163 HD
ATOM      6  H6  NON d   1     -47.418  17.314  -6.560  0.00  0.00     0.165 HD
ENDROOT
BRANCH   1   7
ATOM      7  C3  NON d   1     -44.093  18.786  -5.426  0.00  0.00     0.133 C 
BRANCH   7   8
ATOM      8  C2  NON d   1     -43.290  18.117  -4.314  0.00  0.00     0.122 C 
BRANCH   8   9
ATOM      9  C1  NON d   1     -41.792  18.278  -4.498  0.00  0.00     0.219 C 
ATOM     10  O1  NON d   1     -40.990  18.034  -3.601  0.00  0.00    -0.274 OA
ATOM     11  N3  NON d   1     -41.432  18.666  -5.772  0.00  0.00    -0.356 N 
ATOM     12  H14 NON d   1     -42.142  18.618  -6.493  0.00  0.00     0.162 HD
BRANCH  11  13
ATOM     13  C12 NON d   1     -40.050  18.721  -6.210  0.00  0.00     0.084 C 
ATOM     14  C13 NON d   1     -39.911  18.407  -7.698  0.00  0.00     0.025 C 
ATOM     15  C14 NON d   1     -38.518  18.904  -8.052  0.00  0.00     0.002 C 
ATOM     16  C15 NON d   1     -38.242  20.069  -7.101  0.00  0.00     0.002 C 
ATOM     17  C16 NON d   1     -39.408  20.105  -6.115  0.00  0.00     0.025 C 
ENDBRANCH  11  13
ENDBRANCH   8   9
ENDBRANCH   7   8
ENDBRANCH   1   7
BRANCH   4  18
ATOM     18  O3  NON d   1     -47.330  15.343  -6.008  0.00  0.00    -0.293 OA
BRANCH  18  19
ATOM     19  C5  NON d   1     -48.597  15.024  -5.423  0.00  0.00     0.233 C 
BRANCH  19  20
ATOM     20  C6  NON d   1     -48.738  15.562  -4.015  0.00  0.00    -0.033 A 
ATOM     21  C7  NON d   1     -47.638  15.983  -3.257  0.00  0.00     0.009 A 
ATOM     22  C8  NON d   1     -47.816  16.508  -1.973  0.00  0.00     0.001 A 
ATOM     23  C9  NON d   1     -49.097  16.627  -1.436  0.00  0.00     0.000 A 
ATOM     24  C10 NON d   1     -50.201  16.224  -2.181  0.00  0.00     0.001 A 
ATOM     25  C11 NON d   1     -50.024  15.698  -3.463  0.00  0.00     0.009 A 
ENDBRANCH  19  20
ENDBRANCH  18  19
ENDBRANCH   4  18
TORSDOF 7
ENDMDL
MODEL 3
REMARK VINA RESULT:   -34.436      2.596      9.265
REMARK INTER + INTRA:         -36.956
REMARK INTER:                 -36.524
REMARK INTRA:                  -0.433
REMARK CONF_INDEPENDENT:        2.088
REMARK UNBOUND:                -0.433
REMARK  7 active torsions:
REMARK  status: ('A' for Active; 'I' for Inactive)
REMARK    1  A    between atoms: C1_2  and  C2_3 
REMARK       I    between atoms: C1_2  and  N3_17 
REMARK    2  A    between atoms: C2_3  and  C3_4 
REMARK    3  A    between atoms: C3_4  and  N1_5 
REMARK       I    between atoms: N1_5  and  C4_6 
REMARK       I    between atoms: C4_6  and  N2_8 
REMARK    4  A    between atoms: N2_8  and  O3_9 
REMARK    5  A    between atoms: O3_9  and  C5_10 
REMARK    6  A    between atoms: C5_10  and  C6_11 
REMARK    7  A    between atoms: N3_17  and  C12_18 
ROOT
ATOM      1  N1  NON d   1     -45.431  18.341  -5.512  0.00  0.00    -0.346 N 
ATOM      2  C4  NON d   1     -45.861  17.031  -5.380  0.00  0.00     0.317 C 
ATOM      3  O2  NON d   1     -45.153  16.139  -4.923  0.00  0.00    -0.252 OA
ATOM      4  N2  NON d   1     -47.167  16.878  -5.810  0.00  0.00    -0.119 NA
ATOM      5  H5  NON d   1     -45.948  18.933  -6.152  0.00  0.00     0.163 HD
ATOM      6  H6  NON d   1     -47.416  17.439  -6.613  0.00  0.00     0.165 HD
ENDROOT
BRANCH   1   7
ATOM      7  C3  NON d   1     -44.020  18.657  -5.391  0.00  0.00     0.133 C 
BRANCH   7   8
ATOM      8  C2  NON d   1     -43.360  18.050  -4.157  0.00  0.00     0.122 C 
BRANCH   8   9
ATOM      9  C1  NON d   1     -41.892  18.418  -4.039  0.00  0.00     0.219 C 
ATOM     10  O1  NON d   1     -41.295  19.029  -4.920  0.00  0.00    -0.274 OA
ATOM     11  N3  NON d   1     -41.327  18.048  -2.836  0.00  0.00    -0.356 N 
ATOM     12  H14 NON d   1     -41.954  17.760  -2.095  0.00  0.00     0.162 HD
BRANCH  11  13
ATOM     13  C12 NON d   1     -39.986  18.445  -2.449  0.00  0.00     0.084 C 
ATOM     14  C13 NON d   1     -38.993  18.300  -3.600  0.00  0.00     0.025 C 
ATOM     15  C14 NON d   1     -37.793  19.122  -3.158  0.00  0.00     0.002 C 
ATOM     16  C15 NON d   1     -38.357  20.233  -2.272  0.00  0.00     0.002 C 
ATOM     17  C16 NON d   1     -39.842  19.924  -2.088  0.00  0.00     0.025 C 
ENDBRANCH  11  13
ENDBRANCH   8   9
ENDBRANCH   7   8
ENDBRANCH   1   7
BRANCH   4  18
ATOM     18  O3  NON d   1     -47.552  15.511  -5.935  0.00  0.00    -0.293 OA
BRANCH  18  19
ATOM     19  C5  NON d   1     -47.403  14.874  -4.662  0.00  0.00     0.233 C 
BRANCH  19  20
ATOM     20  C6  NON d   1     -48.306  15.470  -3.604  0.00  0.00    -0.033 A 
ATOM     21  C7  NON d   1     -47.835  16.352  -2.623  0.00  0.00     0.009 A 
ATOM     22  C8  NON d   1     -48.710  16.908  -1.685  0.00  0.00     0.001 A 
ATOM     23  C9  NON d   1     -50.068  16.598  -1.723  0.00  0.00     0.000 A 
ATOM     24  C10 NON d   1     -50.554  15.732  -2.699  0.00  0.00     0.001 A 
ATOM     25  C11 NON d   1     -49.681  15.174  -3.635  0.00  0.00     0.009 A 
ENDBRANCH  19  20
ENDBRANCH  18  19
ENDBRANCH   4  18
TORSDOF 7
ENDMDL
MODEL 4
REMARK VINA RESULT:   -34.400      2.634      9.312
REMARK INTER + INTRA:         -37.119
REMARK INTER:                 -36.489
REMARK INTRA:                  -0.631
REMARK CONF_INDEPENDENT:        2.088
REMARK UNBOUND:                -0.631
REMARK  7 active torsions:
REMARK  status: ('A' for Active; 'I' for Inactive)
REMARK    1  A    between atoms: C1_2  and  C2_3 
REMARK       I    between atoms: C1_2  and  N3_17 
REMARK    2  A    between atoms: C2_3  and  C3_4 
REMARK    3  A    between atoms: C3_4  and  N1_5 
REMARK       I    between atoms: N1_5  and  C4_6 
REMARK       I    between atoms: C4_6  and  N2_8 
REMARK    4  A    between atoms: N2_8  and  O3_9 
REMARK    5  A    between atoms: O3_9  and  C5_10 
REMARK    6  A    between atoms: C5_10  and  C6_11 
REMARK    7  A    between atoms: N3_17  and  C12_18 
ROOT
ATOM      1  N1  NON d   1     -45.375  18.354  -5.501  0.00  0.00    -0.346 N 
ATOM      2  C4  NON d   1     -45.783  17.033  -5.414  0.00  0.00     0.317 C 
ATOM      3  O2  NON d   1     -45.050  16.133  -5.019  0.00  0.00    -0.252 OA
ATOM      4  N2  NON d   1     -47.100  16.880  -5.810  0.00  0.00    -0.119 NA
ATOM      5  H5  NON d   1     -45.920  18.966  -6.098  0.00  0.00     0.163 HD
ATOM      6  H6  NON d   1     -47.381  17.472  -6.580  0.00  0.00     0.165 HD
ENDROOT
BRANCH   1   7
ATOM      7  C3  NON d   1     -43.965  18.685  -5.410  0.00  0.00     0.133 C 
BRANCH   7   8
ATOM      8  C2  NON d   1     -43.268  18.066  -4.202  0.00  0.00     0.122 C 
BRANCH   8   9
ATOM      9  C1  NON d   1     -41.863  18.605  -4.000  0.00  0.00     0.219 C 
ATOM     10  O1  NON d   1     -41.386  19.481  -4.715  0.00  0.00    -0.274 OA
ATOM     11  N3  NON d   1     -41.214  18.056  -2.913  0.00  0.00    -0.356 N 
ATOM     12  H14 NON d   1     -41.771  17.519  -2.259  0.00  0.00     0.162 HD
BRANCH  11  13
ATOM     13  C12 NON d   1     -39.932  18.542  -2.442  0.00  0.00     0.084 C 
ATOM     14  C13 NON d   1     -38.828  18.338  -3.478  0.00  0.00     0.025 C 
ATOM     15  C14 NON d   1     -37.704  19.246  -3.005  0.00  0.00     0.002 C 
ATOM     16  C15 NON d   1     -38.389  20.406  -2.281  0.00  0.00     0.002 C 
ATOM     17  C16 NON d   1     -39.873  20.052  -2.207  0.00  0.00     0.025 C 
ENDBRANCH  11  13
ENDBRANCH   8   9
ENDBRANCH   7   8
ENDBRANCH   1   7
BRANCH   4  18
ATOM     18  O3  NON d   1     -47.471  15.515  -5.983  0.00  0.00    -0.293 OA
BRANCH  18  19
ATOM     19  C5  NON d   1     -47.428  14.863  -4.710  0.00  0.00     0.233 C 
BRANCH  19  20
ATOM     20  C6  NON d   1     -48.376  15.483  -3.706  0.00  0.00    -0.033 A 
ATOM     21  C7  NON d   1     -49.742  15.176  -3.674  0.00  0.00     0.009 A 
ATOM     22  C8  NON d   1     -50.578  15.744  -2.707  0.00  0.00     0.001 A 
ATOM     23  C9  NON d   1     -50.056  16.618  -1.755  0.00  0.00     0.000 A 
ATOM     24  C10 NON d   1     -48.698  16.924  -1.767  0.00  0.00     0.001 A 
ATOM     25  C11 NON d   1     -47.863  16.359  -2.733  0.00  0.00     0.009 A 
ENDBRANCH  19  20
ENDBRANCH  18  19
ENDBRANCH   4  18
TORSDOF 7
ENDMDL
MODEL 5
REMARK VINA RESULT:   -33.993      2.652      9.569
REMARK INTER + INTRA:         -36.723
REMARK INTER:                 -36.082
REMARK INTRA:                  -0.641
REMARK CONF_INDEPENDENT:        2.088
REMARK UNBOUND:                -0.641
REMARK  7 active torsions:
REMARK  status: ('A' for Active; 'I' for Inactive)
REMARK    1  A    between atoms: C1_2  and  C2_3 
REMARK       I    between atoms: C1_2  and  N3_17 
REMARK    2  A    between atoms: C2_3  and  C3_4 
REMARK    3  A    between atoms: C3_4  and  N1_5 
REMARK       I    between atoms: N1_5  and  C4_6 
REMARK       I    between atoms: C4_6  and  N2_8 
REMARK    4  A    between atoms: N2_8  and  O3_9 
REMARK    5  A    between atoms: O3_9  and  C5_10 
REMARK    6  A    between atoms: C5_10  and  C6_11 
REMARK    7  A    between atoms: N3_17  and  C12_18 
ROOT
ATOM      1  N1  NON d   1     -45.449  18.375  -5.515  0.00  0.00    -0.346 N 
ATOM      2  C4  NON d   1     -45.833  17.046  -5.427  0.00  0.00     0.317 C 
ATOM      3  O2  NON d   1     -45.079  16.158  -5.042  0.00  0.00    -0.252 OA
ATOM      4  N2  NON d   1     -47.150  16.870  -5.810  0.00  0.00    -0.119 NA
ATOM      5  H5  NON d   1     -46.011  18.977  -6.105  0.00  0.00     0.163 HD
ATOM      6  H6  NON d   1     -47.450  17.459  -6.575  0.00  0.00     0.165 HD
ENDROOT
BRANCH   1   7
ATOM      7  C3  NON d   1     -44.045  18.731  -5.437  0.00  0.00     0.133 C 
BRANCH   7   8
ATOM      8  C2  NON d   1     -43.338  18.171  -4.207  0.00  0.00     0.122 C 
BRANCH   8   9
ATOM      9  C1  NON d   1     -41.962  18.777  -3.998  0.00  0.00     0.219 C 
ATOM     10  O1  NON d   1     -41.502  18.993  -2.880  0.00  0.00    -0.274 OA
ATOM     11  N3  NON d   1     -41.274  19.001  -5.173  0.00  0.00    -0.356 N 
ATOM     12  H14 NON d   1     -41.643  18.579  -6.017  0.00  0.00     0.162 HD
BRANCH  11  13
ATOM     13  C12 NON d   1     -39.886  19.419  -5.197  0.00  0.00     0.084 C 
ATOM     14  C13 NON d   1     -38.972  18.402  -4.516  0.00  0.00     0.025 C 
ATOM     15  C14 NON d   1     -37.578  18.783  -4.989  0.00  0.00     0.002 C 
ATOM     16  C15 NON d   1     -37.767  19.397  -6.377  0.00  0.00     0.002 C 
ATOM     17  C16 NON d   1     -39.275  19.509  -6.596  0.00  0.00     0.025 C 
ENDBRANCH  11  13
ENDBRANCH   8   9
ENDBRANCH   7   8
ENDBRANCH   1   7
BRANCH   4  18
ATOM     18  O3  NON d   1     -47.498  15.499  -5.982  0.00  0.00    -0.293 OA
BRANCH  18  19
ATOM     19  C5  NON d   1     -47.442  14.848  -4.709  0.00  0.00     0.233 C 
BRANCH  19  20
ATOM     20  C6  NON d   1     -48.337  15.504  -3.680  0.00  0.00    -0.033 A 
ATOM     21  C7  NON d   1     -49.726  15.321  -3.666  0.00  0.00     0.009 A 
ATOM     22  C8  NON d   1     -50.514  15.916  -2.676  0.00  0.00     0.001 A 
ATOM     23  C9  NON d   1     -49.921  16.693  -1.682  0.00  0.00     0.000 A 
ATOM     24  C10 NON d   1     -48.542  16.876  -1.675  0.00  0.00     0.001 A 
ATOM     25  C11 NON d   1     -47.754  16.283  -2.665  0.00  0.00     0.009 A 
ENDBRANCH  19  20
ENDBRANCH  18  19
ENDBRANCH   4  18
TORSDOF 7
ENDMDL
