MODEL 1
REMARK VINA RESULT:   -15.102      0.000      0.000
REMARK INTER + INTRA:         -18.398
REMARK INTER:                 -17.190
REMARK INTRA:                  -1.208
REMARK CONF_INDEPENDENT:        2.088
REMARK UNBOUND:                -1.208
REMARK  7 active torsions:
REMARK  status: ('A' for Active; 'I' for Inactive)
REMARK    1  A    between atoms: C5_5  and  C6_6 
REMARK    2  A    between atoms: C6_6  and  C7_7 
REMARK    3  A    between atoms: C7_7  and  C8_8 
REMARK    4  A    between atoms: C8_8  and  C9_9 
REMARK    5  A    between atoms: C9_9  and  C10_10 
REMARK       I    between atoms: C10_10  and  N1_12 
REMARK    6  A    between atoms: N1_12  and  N2_13 
REMARK       I    between atoms: N2_13  and  C11_14 
REMARK    7  A    between atoms: C12_16  and  C11_14 
ROOT
ATOM      1  C10 NON d   1     -47.697  15.589  -4.973  0.00  0.00     0.236 C 
ATOM      2  O1  NON d   1     -46.875  15.244  -5.815  0.00  0.00    -0.272 OA
ATOM      3  N1  NON d   1     -47.435  16.546  -4.002  0.00  0.00    -0.267 N 
ATOM      4  H14 NON d   1     -48.085  16.732  -3.237  0.00  0.00     0.190 HD
ENDROOT
BRANCH   1   5
ATOM      5  C9  NON d   1     -49.104  15.009  -4.852  0.00  0.00     0.104 C 
BRANCH   5   6
ATOM      6  C8  NON d   1     -49.546  14.618  -3.431  0.00  0.00     0.010 C 
BRANCH   6   7
ATOM      7  C7  NON d   1     -50.229  15.767  -2.674  0.00  0.00     0.005 C 
BRANCH   7   8
ATOM      8  C6  NON d   1     -51.771  15.779  -2.809  0.00  0.00     0.038 C 
BRANCH   8   9
ATOM      9  C5  NON d   1     -52.598  16.817  -2.067  0.00  0.00    -0.058 A 
ATOM     10  C4  NON d   1     -53.961  17.028  -2.271  0.00  0.00     0.007 A 
ATOM     11  C3  NON d   1     -54.653  18.006  -1.537  0.00  0.00     0.007 A 
ATOM     12  C2  NON d   1     -54.017  18.795  -0.556  0.00  0.00    -0.062 A 
ATOM     13  C1  NON d   1     -54.843  19.888   0.148  0.00  0.00     0.048 C 
ATOM     14  C17 NON d   1     -52.647  18.611  -0.372  0.00  0.00     0.007 A 
ATOM     15  C16 NON d   1     -51.954  17.633  -1.112  0.00  0.00     0.007 A 
ENDBRANCH   8   9
ENDBRANCH   7   8
ENDBRANCH   6   7
ENDBRANCH   5   6
ENDBRANCH   1   5
BRANCH   3  16
ATOM     16  N2  NON d   1     -46.120  16.992  -3.797  0.00  0.00    -0.265 N 
ATOM     17  C11 NON d   1     -45.423  17.496  -4.879  0.00  0.00     0.265 C 
ATOM     18  O2  NON d   1     -45.939  17.612  -5.993  0.00  0.00    -0.269 OA
ATOM     19  H15 NON d   1     -45.661  16.769  -2.913  0.00  0.00     0.190 HD
BRANCH  17  20
ATOM     20  C12 NON d   1     -44.016  18.013  -4.545  0.00  0.00     0.215 C 
ATOM     21  C13 NON d   1     -42.942  17.372  -5.407  0.00  0.00     0.044 C 
ATOM     22  C14 NON d   1     -41.693  17.626  -4.602  0.00  0.00     0.029 C 
ATOM     23  C15 NON d   1     -42.194  17.537  -3.174  0.00  0.00     0.168 C 
ATOM     24  O3  NON d   1     -43.608  17.797  -3.188  0.00  0.00    -0.376 OA
ENDBRANCH  17  20
ENDBRANCH   3  16
TORSDOF 7
ENDMDL
MODEL 2
REMARK VINA RESULT:   -14.193      2.687     10.152
REMARK INTER + INTRA:         -17.086
REMARK INTER:                 -16.281
REMARK INTRA:                  -0.805
REMARK CONF_INDEPENDENT:        2.088
REMARK UNBOUND:                -0.805
REMARK  7 active torsions:
REMARK  status: ('A' for Active; 'I' for Inactive)
REMARK    1  A    between atoms: C5_5  and  C6_6 
REMARK    2  A    between atoms: C6_6  and  C7_7 
REMARK    3  A    between atoms: C7_7  and  C8_8 
REMARK    4  A    between atoms: C8_8  and  C9_9 
REMARK    5  A    between atoms: C9_9  and  C10_10 
REMARK       I    between atoms: C10_10  and  N1_12 
REMARK    6  A    between atoms: N1_12  and  N2_13 
REMARK       I    between atoms: N2_13  and  C11_14 
REMARK    7  A    between atoms: C12_16  and  C11_14 
ROOT
ATOM      1  C10 NON d   1     -44.892  17.254  -5.093  0.00  0.00     0.236 C 
ATOM      2  O1  NON d   1     -45.633  17.630  -5.995  0.00  0.00    -0.272 OA
ATOM      3  N1  NON d   1     -45.337  16.525  -3.998  0.00  0.00    -0.267 N 
ATOM      4  H14 NON d   1     -44.733  16.326  -3.199  0.00  0.00     0.190 HD
ENDROOT
BRANCH   1   5
ATOM      5  C9  NON d   1     -43.395  17.544  -5.027  0.00  0.00     0.104 C 
BRANCH   5   6
ATOM      6  C8  NON d   1     -42.818  17.763  -3.617  0.00  0.00     0.010 C 
BRANCH   6   7
ATOM      7  C7  NON d   1     -41.498  18.549  -3.621  0.00  0.00     0.005 C 
BRANCH   7   8
ATOM      8  C6  NON d   1     -40.515  18.121  -4.737  0.00  0.00     0.038 C 
BRANCH   8   9
ATOM      9  C5  NON d   1     -40.301  19.008  -5.953  0.00  0.00    -0.058 A 
ATOM     10  C4  NON d   1     -40.549  20.380  -5.978  0.00  0.00     0.007 A 
ATOM     11  C3  NON d   1     -40.317  21.130  -7.144  0.00  0.00     0.007 A 
ATOM     12  C2  NON d   1     -39.809  20.543  -8.321  0.00  0.00    -0.062 A 
ATOM     13  C1  NON d   1     -39.654  21.433  -9.569  0.00  0.00     0.048 C 
ATOM     14  C17 NON d   1     -39.591  19.166  -8.312  0.00  0.00     0.007 A 
ATOM     15  C16 NON d   1     -39.829  18.416  -7.144  0.00  0.00     0.007 A 
ENDBRANCH   8   9
ENDBRANCH   7   8
ENDBRANCH   6   7
ENDBRANCH   5   6
ENDBRANCH   1   5
BRANCH   3  16
ATOM     16  N2  NON d   1     -46.714  16.394  -3.760  0.00  0.00    -0.265 N 
ATOM     17  C11 NON d   1     -47.501  15.840  -4.752  0.00  0.00     0.265 C 
ATOM     18  O2  NON d   1     -47.022  15.416  -5.807  0.00  0.00    -0.269 OA
ATOM     19  H15 NON d   1     -47.117  16.865  -2.948  0.00  0.00     0.190 HD
BRANCH  17  20
ATOM     20  C12 NON d   1     -48.982  15.683  -4.377  0.00  0.00     0.215 C 
ATOM     21  C13 NON d   1     -49.444  16.735  -3.383  0.00  0.00     0.044 C 
ATOM     22  C14 NON d   1     -50.689  16.106  -2.810  0.00  0.00     0.029 C 
ATOM     23  C15 NON d   1     -50.348  14.630  -2.810  0.00  0.00     0.168 C 
ATOM     24  O3  NON d   1     -49.317  14.418  -3.791  0.00  0.00    -0.376 OA
ENDBRANCH  17  20
ENDBRANCH   3  16
TORSDOF 7
ENDMDL
MODEL 3
REMARK VINA RESULT:   -13.758      3.779     11.192
REMARK INTER + INTRA:         -16.775
REMARK INTER:                 -15.846
REMARK INTRA:                  -0.929
REMARK CONF_INDEPENDENT:        2.088
REMARK UNBOUND:                -0.929
REMARK  7 active torsions:
REMARK  status: ('A' for Active; 'I' for Inactive)
REMARK    1  A    between atoms: C5_5  and  C6_6 
REMARK    2  A    between atoms: C6_6  and  C7_7 
REMARK    3  A    between atoms: C7_7  and  C8_8 
REMARK    4  A    between atoms: C8_8  and  C9_9 
REMARK    5  A    between atoms: C9_9  and  C10_10 
REMARK       I    between atoms: C10_10  and  N1_12 
REMARK    6  A    between atoms: N1_12  and  N2_13 
REMARK       I    between atoms: N2_13  and  C11_14 
REMARK    7  A    between atoms: C12_16  and  C11_14 
ROOT
ATOM      1  C10 NON d   1     -43.042  17.382  -4.019  0.00  0.00     0.236 C 
ATOM      2  O1  NON d   1     -43.344  16.521  -3.200  0.00  0.00    -0.272 OA
ATOM      3  N1  NON d   1     -43.971  18.230  -4.608  0.00  0.00    -0.267 N 
ATOM      4  H14 NON d   1     -43.722  18.856  -5.375  0.00  0.00     0.190 HD
ENDROOT
BRANCH   1   5
ATOM      5  C9  NON d   1     -41.624  17.633  -4.527  0.00  0.00     0.104 C 
BRANCH   5   6
ATOM      6  C8  NON d   1     -40.959  18.930  -4.035  0.00  0.00     0.010 C 
BRANCH   6   7
ATOM      7  C7  NON d   1     -40.655  19.920  -5.171  0.00  0.00     0.005 C 
BRANCH   7   8
ATOM      8  C6  NON d   1     -40.694  19.287  -6.583  0.00  0.00     0.038 C 
BRANCH   8   9
ATOM      9  C5  NON d   1     -39.740  19.767  -7.665  0.00  0.00    -0.058 A 
ATOM     10  C4  NON d   1     -38.435  19.303  -7.825  0.00  0.00     0.007 A 
ATOM     11  C3  NON d   1     -37.620  19.796  -8.858  0.00  0.00     0.007 A 
ATOM     12  C2  NON d   1     -38.083  20.753  -9.785  0.00  0.00    -0.062 A 
ATOM     13  C1  NON d   1     -37.094  21.283 -10.840  0.00  0.00     0.048 C 
ATOM     14  C17 NON d   1     -39.376  21.245  -9.609  0.00  0.00     0.007 A 
ATOM     15  C16 NON d   1     -40.189  20.754  -8.570  0.00  0.00     0.007 A 
ENDBRANCH   8   9
ENDBRANCH   7   8
ENDBRANCH   6   7
ENDBRANCH   5   6
ENDBRANCH   1   5
BRANCH   3  16
ATOM     16  N2  NON d   1     -45.343  17.972  -4.462  0.00  0.00    -0.265 N 
ATOM     17  C11 NON d   1     -45.881  16.892  -5.136  0.00  0.00     0.265 C 
ATOM     18  O2  NON d   1     -45.186  16.129  -5.810  0.00  0.00    -0.269 OA
ATOM     19  H15 NON d   1     -45.929  18.680  -4.016  0.00  0.00     0.190 HD
BRANCH  17  20
ATOM     20  C12 NON d   1     -47.375  16.654  -4.867  0.00  0.00     0.215 C 
ATOM     21  C13 NON d   1     -47.633  16.086  -3.481  0.00  0.00     0.044 C 
ATOM     22  C14 NON d   1     -49.010  15.492  -3.632  0.00  0.00     0.029 C 
ATOM     23  C15 NON d   1     -49.008  15.005  -5.067  0.00  0.00     0.168 C 
ATOM     24  O3  NON d   1     -48.009  15.753  -5.783  0.00  0.00    -0.376 OA
ENDBRANCH  17  20
ENDBRANCH   3  16
TORSDOF 7
ENDMDL
MODEL 4
REMARK VINA RESULT:   -13.457      3.780     10.945
REMARK INTER + INTRA:         -16.925
REMARK INTER:                 -15.545
REMARK INTRA:                  -1.380
REMARK CONF_INDEPENDENT:        2.088
REMARK UNBOUND:                -1.380
REMARK  7 active torsions:
REMARK  status: ('A' for Active; 'I' for Inactive)
REMARK    1  A    between atoms: C5_5  and  C6_6 
REMARK    2  A    between atoms: C6_6  and  C7_7 
REMARK    3  A    between atoms: C7_7  and  C8_8 
REMARK    4  A    between atoms: C8_8  and  C9_9 
REMARK    5  A    between atoms: C9_9  and  C10_10 
REMARK       I    between atoms: C10_10  and  N1_12 
REMARK    6  A    between atoms: N1_12  and  N2_13 
REMARK       I    between atoms: N2_13  and  C11_14 
REMARK    7  A    between atoms: C12_16  and  C11_14 
ROOT
ATOM      1  C10 NON d   1     -42.843  17.539  -3.863  0.00  0.00     0.236 C 
ATOM      2  O1  NON d   1     -43.119  17.649  -2.674  0.00  0.00    -0.272 OA
ATOM      3  N1  NON d   1     -43.795  17.296  -4.845  0.00  0.00    -0.267 N 
ATOM      4  H14 NON d   1     -43.534  17.086  -5.810  0.00  0.00     0.190 HD
ENDROOT
BRANCH   1   5
ATOM      5  C9  NON d   1     -41.430  17.627  -4.434  0.00  0.00     0.104 C 
BRANCH   5   6
ATOM      6  C8  NON d   1     -40.705  18.968  -4.220  0.00  0.00     0.010 C 
BRANCH   6   7
ATOM      7  C7  NON d   1     -41.403  20.147  -4.915  0.00  0.00     0.005 C 
BRANCH   7   8
ATOM      8  C6  NON d   1     -41.518  19.992  -6.450  0.00  0.00     0.038 C 
BRANCH   8   9
ATOM      9  C5  NON d   1     -40.267  19.912  -7.310  0.00  0.00    -0.058 A 
ATOM     10  C4  NON d   1     -39.884  20.884  -8.233  0.00  0.00     0.007 A 
ATOM     11  C3  NON d   1     -38.705  20.735  -8.984  0.00  0.00     0.007 A 
ATOM     12  C2  NON d   1     -37.853  19.622  -8.826  0.00  0.00    -0.062 A 
ATOM     13  C1  NON d   1     -36.620  19.513  -9.744  0.00  0.00     0.048 C 
ATOM     14  C17 NON d   1     -38.249  18.632  -7.929  0.00  0.00     0.007 A 
ATOM     15  C16 NON d   1     -39.433  18.780  -7.181  0.00  0.00     0.007 A 
ENDBRANCH   8   9
ENDBRANCH   7   8
ENDBRANCH   6   7
ENDBRANCH   5   6
ENDBRANCH   1   5
BRANCH   3  16
ATOM     16  N2  NON d   1     -45.098  16.926  -4.479  0.00  0.00    -0.265 N 
ATOM     17  C11 NON d   1     -46.136  17.255  -5.331  0.00  0.00     0.265 C 
ATOM     18  O2  NON d   1     -45.942  17.810  -6.415  0.00  0.00    -0.269 OA
ATOM     19  H15 NON d   1     -45.262  16.591  -3.528  0.00  0.00     0.190 HD
BRANCH  17  20
ATOM     20  C12 NON d   1     -47.515  16.757  -4.875  0.00  0.00     0.215 C 
ATOM     21  C13 NON d   1     -47.450  15.979  -3.570  0.00  0.00     0.044 C 
ATOM     22  C14 NON d   1     -48.743  15.205  -3.596  0.00  0.00     0.029 C 
ATOM     23  C15 NON d   1     -48.928  14.915  -5.072  0.00  0.00     0.168 C 
ATOM     24  O3  NON d   1     -48.177  15.895  -5.810  0.00  0.00    -0.376 OA
ENDBRANCH  17  20
ENDBRANCH   3  16
TORSDOF 7
ENDMDL
MODEL 5
REMARK VINA RESULT:   -13.436      3.762      9.647
REMARK INTER + INTRA:         -16.409
REMARK INTER:                 -15.524
REMARK INTRA:                  -0.885
REMARK CONF_INDEPENDENT:        2.088
REMARK UNBOUND:                -0.885
REMARK  7 active torsions:
REMARK  status: ('A' for Active; 'I' for Inactive)
REMARK    1  A    between atoms: C5_5  and  C6_6 
REMARK    2  A    between atoms: C6_6  and  C7_7 
REMARK    3  A    between atoms: C7_7  and  C8_8 
REMARK    4  A    between atoms: C8_8  and  C9_9 
REMARK    5  A    between atoms: C9_9  and  C10_10 
REMARK       I    between atoms: C10_10  and  N1_12 
REMARK    6  A    between atoms: N1_12  and  N2_13 
REMARK       I    between atoms: N2_13  and  C11_14 
REMARK    7  A    between atoms: C12_16  and  C11_14 
ROOT
ATOM      1  C10 NON d   1     -43.031  17.374  -4.027  0.00  0.00     0.236 C 
ATOM      2  O1  NON d   1     -43.326  16.507  -3.212  0.00  0.00    -0.272 OA
ATOM      3  N1  NON d   1     -43.964  18.226  -4.603  0.00  0.00    -0.267 N 
ATOM      4  H14 NON d   1     -43.721  18.857  -5.368  0.00  0.00     0.190 HD
ENDROOT
BRANCH   1   5
ATOM      5  C9  NON d   1     -41.617  17.629  -4.542  0.00  0.00     0.104 C 
BRANCH   5   6
ATOM      6  C8  NON d   1     -41.072  19.052  -4.324  0.00  0.00     0.010 C 
BRANCH   6   7
ATOM      7  C7  NON d   1     -39.936  19.110  -3.291  0.00  0.00     0.005 C 
BRANCH   7   8
ATOM      8  C6  NON d   1     -39.269  20.501  -3.169  0.00  0.00     0.038 C 
BRANCH   8   9
ATOM      9  C5  NON d   1     -39.846  21.550  -2.232  0.00  0.00    -0.058 A 
ATOM     10  C4  NON d   1     -40.508  22.702  -2.655  0.00  0.00     0.007 A 
ATOM     11  C3  NON d   1     -41.019  23.620  -1.721  0.00  0.00     0.007 A 
ATOM     12  C2  NON d   1     -40.909  23.411  -0.330  0.00  0.00    -0.062 A 
ATOM     13  C1  NON d   1     -41.439  24.506   0.615  0.00  0.00     0.048 C 
ATOM     14  C17 NON d   1     -40.219  22.277   0.097  0.00  0.00     0.007 A 
ATOM     15  C16 NON d   1     -39.703  21.362  -0.841  0.00  0.00     0.007 A 
ENDBRANCH   8   9
ENDBRANCH   7   8
ENDBRANCH   6   7
ENDBRANCH   5   6
ENDBRANCH   1   5
BRANCH   3  16
ATOM     16  N2  NON d   1     -45.335  17.966  -4.449  0.00  0.00    -0.265 N 
ATOM     17  C11 NON d   1     -45.877  16.890  -5.126  0.00  0.00     0.265 C 
ATOM     18  O2  NON d   1     -45.187  16.131  -5.810  0.00  0.00    -0.269 OA
ATOM     19  H15 NON d   1     -45.918  18.671  -3.995  0.00  0.00     0.190 HD
BRANCH  17  20
ATOM     20  C12 NON d   1     -47.369  16.650  -4.849  0.00  0.00     0.215 C 
ATOM     21  C13 NON d   1     -47.616  16.059  -3.470  0.00  0.00     0.044 C 
ATOM     22  C14 NON d   1     -48.995  15.470  -3.619  0.00  0.00     0.029 C 
ATOM     23  C15 NON d   1     -49.006  15.006  -5.062  0.00  0.00     0.168 C 
ATOM     24  O3  NON d   1     -48.012  15.765  -5.774  0.00  0.00    -0.376 OA
ENDBRANCH  17  20
ENDBRANCH   3  16
TORSDOF 7
ENDMDL
MODEL 6
REMARK VINA RESULT:   -12.960      3.020      9.437
REMARK INTER + INTRA:         -15.975
REMARK INTER:                 -15.048
REMARK INTRA:                  -0.927
REMARK CONF_INDEPENDENT:        2.088
REMARK UNBOUND:                -0.927
REMARK  7 active torsions:
REMARK  status: ('A' for Active; 'I' for Inactive)
REMARK    1  A    between atoms: C5_5  and  C6_6 
REMARK    2  A    between atoms: C6_6  and  C7_7 
REMARK    3  A    between atoms: C7_7  and  C8_8 
REMARK    4  A    between atoms: C8_8  and  C9_9 
REMARK    5  A    between atoms: C9_9  and  C10_10 
REMARK       I    between atoms: C10_10  and  N1_12 
REMARK    6  A    between atoms: N1_12  and  N2_13 
REMARK       I    between atoms: N2_13  and  C11_14 
REMARK    7  A    between atoms: C12_16  and  C11_14 
ROOT
ATOM      1  C10 NON d   1     -45.126  17.927  -5.249  0.00  0.00     0.236 C 
ATOM      2  O1  NON d   1     -46.065  17.858  -6.035  0.00  0.00    -0.272 OA
ATOM      3  N1  NON d   1     -45.069  17.201  -4.067  0.00  0.00    -0.267 N 
ATOM      4  H14 NON d   1     -44.342  17.362  -3.368  0.00  0.00     0.190 HD
ENDROOT
BRANCH   1   5
ATOM      5  C9  NON d   1     -43.906  18.826  -5.438  0.00  0.00     0.104 C 
BRANCH   5   6
ATOM      6  C8  NON d   1     -42.768  18.630  -4.420  0.00  0.00     0.010 C 
BRANCH   6   7
ATOM      7  C7  NON d   1     -41.462  18.139  -5.064  0.00  0.00     0.005 C 
BRANCH   7   8
ATOM      8  C6  NON d   1     -40.277  19.122  -4.906  0.00  0.00     0.038 C 
BRANCH   8   9
ATOM      9  C5  NON d   1     -40.294  20.175  -3.810  0.00  0.00    -0.058 A 
ATOM     10  C4  NON d   1     -40.688  21.499  -3.998  0.00  0.00     0.007 A 
ATOM     11  C3  NON d   1     -40.681  22.409  -2.927  0.00  0.00     0.007 A 
ATOM     12  C2  NON d   1     -40.301  22.027  -1.624  0.00  0.00    -0.062 A 
ATOM     13  C1  NON d   1     -40.258  23.111  -0.530  0.00  0.00     0.048 C 
ATOM     14  C17 NON d   1     -39.873  20.713  -1.438  0.00  0.00     0.007 A 
ATOM     15  C16 NON d   1     -39.877  19.804  -2.513  0.00  0.00     0.007 A 
ENDBRANCH   8   9
ENDBRANCH   7   8
ENDBRANCH   6   7
ENDBRANCH   5   6
ENDBRANCH   1   5
BRANCH   3  16
ATOM     16  N2  NON d   1     -46.211  16.530  -3.604  0.00  0.00    -0.265 N 
ATOM     17  C11 NON d   1     -46.923  15.754  -4.500  0.00  0.00     0.265 C 
ATOM     18  O2  NON d   1     -46.554  15.596  -5.666  0.00  0.00    -0.269 OA
ATOM     19  H15 NON d   1     -46.581  16.771  -2.683  0.00  0.00     0.190 HD
BRANCH  17  20
ATOM     20  C12 NON d   1     -48.120  15.012  -3.888  0.00  0.00     0.215 C 
ATOM     21  C13 NON d   1     -49.289  14.900  -4.853  0.00  0.00     0.044 C 
ATOM     22  C14 NON d   1     -50.442  14.620  -3.924  0.00  0.00     0.029 C 
ATOM     23  C15 NON d   1     -50.075  15.415  -2.687  0.00  0.00     0.168 C 
ATOM     24  O3  NON d   1     -48.650  15.612  -2.700  0.00  0.00    -0.376 OA
ENDBRANCH  17  20
ENDBRANCH   3  16
TORSDOF 7
ENDMDL
MODEL 7
REMARK VINA RESULT:   -12.883      3.712     10.341
REMARK INTER + INTRA:         -16.307
REMARK INTER:                 -14.971
REMARK INTRA:                  -1.336
REMARK CONF_INDEPENDENT:        2.088
REMARK UNBOUND:                -1.336
REMARK  7 active torsions:
REMARK  status: ('A' for Active; 'I' for Inactive)
REMARK    1  A    between atoms: C5_5  and  C6_6 
REMARK    2  A    between atoms: C6_6  and  C7_7 
REMARK    3  A    between atoms: C7_7  and  C8_8 
REMARK    4  A    between atoms: C8_8  and  C9_9 
REMARK    5  A    between atoms: C9_9  and  C10_10 
REMARK       I    between atoms: C10_10  and  N1_12 
REMARK    6  A    between atoms: N1_12  and  N2_13 
REMARK       I    between atoms: N2_13  and  C11_14 
REMARK    7  A    between atoms: C12_16  and  C11_14 
ROOT
ATOM      1  C10 NON d   1     -43.011  17.565  -3.597  0.00  0.00     0.236 C 
ATOM      2  O1  NON d   1     -43.384  17.699  -2.437  0.00  0.00    -0.272 OA
ATOM      3  N1  NON d   1     -43.874  17.268  -4.644  0.00  0.00    -0.267 N 
ATOM      4  H14 NON d   1     -43.532  17.040  -5.578  0.00  0.00     0.190 HD
ENDROOT
BRANCH   1   5
ATOM      5  C9  NON d   1     -41.559  17.679  -4.056  0.00  0.00     0.104 C 
BRANCH   5   6
ATOM      6  C8  NON d   1     -40.494  17.471  -2.965  0.00  0.00     0.010 C 
BRANCH   6   7
ATOM      7  C7  NON d   1     -39.653  18.728  -2.696  0.00  0.00     0.005 C 
BRANCH   7   8
ATOM      8  C6  NON d   1     -38.621  19.042  -3.806  0.00  0.00     0.038 C 
BRANCH   8   9
ATOM      9  C5  NON d   1     -39.088  19.413  -5.204  0.00  0.00    -0.058 A 
ATOM     10  C4  NON d   1     -38.627  18.809  -6.373  0.00  0.00     0.007 A 
ATOM     11  C3  NON d   1     -39.117  19.208  -7.629  0.00  0.00     0.007 A 
ATOM     12  C2  NON d   1     -40.102  20.208  -7.764  0.00  0.00    -0.062 A 
ATOM     13  C1  NON d   1     -40.526  20.625  -9.185  0.00  0.00     0.048 C 
ATOM     14  C17 NON d   1     -40.542  20.838  -6.601  0.00  0.00     0.007 A 
ATOM     15  C16 NON d   1     -40.046  20.441  -5.344  0.00  0.00     0.007 A 
ENDBRANCH   8   9
ENDBRANCH   7   8
ENDBRANCH   6   7
ENDBRANCH   5   6
ENDBRANCH   1   5
BRANCH   3  16
ATOM     16  N2  NON d   1     -45.192  16.870  -4.371  0.00  0.00    -0.265 N 
ATOM     17  C11 NON d   1     -46.186  17.252  -5.251  0.00  0.00     0.265 C 
ATOM     18  O2  NON d   1     -45.941  17.880  -6.284  0.00  0.00    -0.269 OA
ATOM     19  H15 NON d   1     -45.402  16.471  -3.454  0.00  0.00     0.190 HD
BRANCH  17  20
ATOM     20  C12 NON d   1     -47.584  16.720  -4.902  0.00  0.00     0.215 C 
ATOM     21  C13 NON d   1     -47.636  16.085  -3.521  0.00  0.00     0.044 C 
ATOM     22  C14 NON d   1     -48.877  15.235  -3.609  0.00  0.00     0.029 C 
ATOM     23  C15 NON d   1     -48.872  14.784  -5.055  0.00  0.00     0.168 C 
ATOM     24  O3  NON d   1     -48.088  15.728  -5.806  0.00  0.00    -0.376 OA
ENDBRANCH  17  20
ENDBRANCH   3  16
TORSDOF 7
ENDMDL
