MODEL 1
REMARK VINA RESULT:   -12.689      0.000      0.000
REMARK INTER + INTRA:         -15.582
REMARK INTER:                 -14.479
REMARK INTRA:                  -1.103
REMARK CONF_INDEPENDENT:        1.790
REMARK UNBOUND:                -1.103
REMARK  6 active torsions:
REMARK  status: ('A' for Active; 'I' for Inactive)
REMARK       I    between atoms: N1_2  and  C2_3 
REMARK    1  A    between atoms: C2_3  and  C3_5 
REMARK    2  A    between atoms: C6_8  and  C7_9 
REMARK    3  A    between atoms: C7_9  and  N2_10 
REMARK       I    between atoms: N2_10  and  C9_12 
REMARK    4  A    between atoms: C9_12  and  C10_14 
REMARK    5  A    between atoms: C14_19  and  N4_20 
REMARK    6  A    between atoms: N4_20  and  C15_21 
ROOT
ATOM      1  N2  NON d   1     -39.695  20.035  -5.388  0.00  0.00    -0.348 N 
ATOM      2  C8  NON d   1     -38.216  20.092  -4.964  0.00  0.00     0.153 C 
ATOM      3  C9  NON d   1     -40.089  19.691  -6.706  0.00  0.00     0.257 C 
ATOM      4  O2  NON d   1     -41.269  19.510  -7.001  0.00  0.00    -0.267 OA
ENDROOT
BRANCH   3   5
ATOM      5  C10 NON d   1     -39.062  19.546  -7.798  0.00  0.00     0.078 C 
ATOM      6  C11 NON d   1     -38.172  18.456  -7.818  0.00  0.00     0.022 C 
ATOM      7  C12 NON d   1     -37.083  18.438  -8.682  0.00  0.00     0.020 C 
ATOM      8  C13 NON d   1     -36.955  19.486  -9.557  0.00  0.00     0.119 C 
ATOM      9  N3  NON d   1     -37.878  20.458  -9.674  0.00  0.00    -0.242 NA
ATOM     10  C14 NON d   1     -38.968  20.466  -8.858  0.00  0.00     0.143 C 
BRANCH  10  11
ATOM     11  N4  NON d   1     -40.006  21.381  -9.148  0.00  0.00    -0.338 N 
ATOM     12  H15 NON d   1     -40.593  21.056  -9.924  0.00  0.00     0.167 HD
BRANCH  11  13
ATOM     13  C15 NON d   1     -39.970  22.802  -9.094  0.00  0.00     0.072 A 
ATOM     14  C16 NON d   1     -39.907  23.636 -10.221  0.00  0.00     0.033 A 
ATOM     15  C17 NON d   1     -39.873  25.033 -10.104  0.00  0.00     0.002 A 
ATOM     16  C18 NON d   1     -39.875  25.631  -8.850  0.00  0.00     0.003 A 
ATOM     17  C19 NON d   1     -39.901  24.829  -7.712  0.00  0.00     0.044 A 
ATOM     18  C20 NON d   1     -39.938  23.438  -7.842  0.00  0.00     0.143 A 
ATOM     19  F1  NON d   1     -39.973  22.695  -6.726  0.00  0.00    -0.204 F 
ENDBRANCH  11  13
ENDBRANCH  10  11
ENDBRANCH   3   5
BRANCH   1  20
ATOM     20  C7  NON d   1     -40.686  19.773  -4.258  0.00  0.00     0.164 C 
BRANCH  20  21
ATOM     21  C6  NON d   1     -41.997  18.911  -4.421  0.00  0.00    -0.040 A 
ATOM     22  C5  NON d   1     -43.191  19.372  -4.997  0.00  0.00     0.010 A 
ATOM     23  C4  NON d   1     -44.378  18.569  -5.060  0.00  0.00     0.017 A 
ATOM     24  C3  NON d   1     -44.482  17.283  -4.484  0.00  0.00     0.032 A 
ATOM     25  C22 NON d   1     -43.324  16.834  -3.842  0.00  0.00     0.017 A 
ATOM     26  C21 NON d   1     -42.114  17.629  -3.817  0.00  0.00     0.010 A 
BRANCH  24  27
ATOM     27  C2  NON d   1     -45.805  16.505  -4.673  0.00  0.00     0.251 C 
ATOM     28  N1  NON d   1     -46.687  16.247  -3.605  0.00  0.00    -0.361 N 
ATOM     29  C1  NON d   1     -48.030  15.513  -3.771  0.00  0.00     0.149 C 
ATOM     30  H4  NON d   1     -46.459  16.619  -2.693  0.00  0.00     0.162 HD
ATOM     31  O1  NON d   1     -46.083  16.122  -5.810  0.00  0.00    -0.268 OA
ENDBRANCH  24  27
ENDBRANCH  20  21
ENDBRANCH   1  20
TORSDOF 6
ENDMDL
MODEL 2
REMARK VINA RESULT:   -12.184      4.670      6.718
REMARK INTER + INTRA:         -15.530
REMARK INTER:                 -13.974
REMARK INTRA:                  -1.556
REMARK CONF_INDEPENDENT:        1.790
REMARK UNBOUND:                -1.556
REMARK  6 active torsions:
REMARK  status: ('A' for Active; 'I' for Inactive)
REMARK       I    between atoms: N1_2  and  C2_3 
REMARK    1  A    between atoms: C2_3  and  C3_5 
REMARK    2  A    between atoms: C6_8  and  C7_9 
REMARK    3  A    between atoms: C7_9  and  N2_10 
REMARK       I    between atoms: N2_10  and  C9_12 
REMARK    4  A    between atoms: C9_12  and  C10_14 
REMARK    5  A    between atoms: C14_19  and  N4_20 
REMARK    6  A    between atoms: N4_20  and  C15_21 
ROOT
ATOM      1  N2  NON d   1     -40.125  19.351  -2.837  0.00  0.00    -0.348 N 
ATOM      2  C8  NON d   1     -39.158  18.220  -2.438  0.00  0.00     0.153 C 
ATOM      3  C9  NON d   1     -39.971  20.678  -2.360  0.00  0.00     0.257 C 
ATOM      4  O2  NON d   1     -40.658  21.602  -2.790  0.00  0.00    -0.267 OA
ENDROOT
BRANCH   3   5
ATOM      5  C10 NON d   1     -38.957  20.994  -1.292  0.00  0.00     0.078 C 
ATOM      6  C11 NON d   1     -37.593  20.697  -1.474  0.00  0.00     0.022 C 
ATOM      7  C12 NON d   1     -36.698  20.772  -0.413  0.00  0.00     0.020 C 
ATOM      8  C13 NON d   1     -37.182  21.214   0.792  0.00  0.00     0.119 C 
ATOM      9  N3  NON d   1     -38.441  21.660   0.954  0.00  0.00    -0.242 NA
ATOM     10  C14 NON d   1     -39.318  21.625  -0.087  0.00  0.00     0.143 C 
BRANCH  10  11
ATOM     11  N4  NON d   1     -40.558  22.286   0.068  0.00  0.00    -0.338 N 
ATOM     12  H15 NON d   1     -41.171  22.138  -0.742  0.00  0.00     0.167 HD
BRANCH  11  13
ATOM     13  C15 NON d   1     -40.817  23.543   0.682  0.00  0.00     0.072 A 
ATOM     14  C16 NON d   1     -40.800  23.766   2.068  0.00  0.00     0.033 A 
ATOM     15  C17 NON d   1     -41.065  25.030   2.615  0.00  0.00     0.002 A 
ATOM     16  C18 NON d   1     -41.380  26.100   1.786  0.00  0.00     0.003 A 
ATOM     17  C19 NON d   1     -41.440  25.901   0.409  0.00  0.00     0.044 A 
ATOM     18  C20 NON d   1     -41.171  24.637  -0.124  0.00  0.00     0.143 A 
ATOM     19  F1  NON d   1     -41.227  24.483  -1.456  0.00  0.00    -0.204 F 
ENDBRANCH  11  13
ENDBRANCH  10  11
ENDBRANCH   3   5
BRANCH   1  20
ATOM     20  C7  NON d   1     -40.844  19.152  -4.166  0.00  0.00     0.164 C 
BRANCH  20  21
ATOM     21  C6  NON d   1     -42.246  18.442  -4.309  0.00  0.00    -0.040 A 
ATOM     22  C5  NON d   1     -43.340  18.965  -5.016  0.00  0.00     0.010 A 
ATOM     23  C4  NON d   1     -44.615  18.311  -5.060  0.00  0.00     0.017 A 
ATOM     24  C3  NON d   1     -44.914  17.134  -4.338  0.00  0.00     0.032 A 
ATOM     25  C22 NON d   1     -43.858  16.635  -3.569  0.00  0.00     0.017 A 
ATOM     26  C21 NON d   1     -42.559  17.274  -3.561  0.00  0.00     0.010 A 
BRANCH  24  27
ATOM     27  C2  NON d   1     -46.315  16.505  -4.518  0.00  0.00     0.251 C 
ATOM     28  N1  NON d   1     -47.074  16.032  -3.430  0.00  0.00    -0.361 N 
ATOM     29  C1  NON d   1     -48.489  15.440  -3.574  0.00  0.00     0.149 C 
ATOM     30  H4  NON d   1     -46.700  16.144  -2.497  0.00  0.00     0.162 HD
ATOM     31  O1  NON d   1     -46.768  16.441  -5.662  0.00  0.00    -0.268 OA
ENDBRANCH  24  27
ENDBRANCH  20  21
ENDBRANCH   1  20
TORSDOF 6
ENDMDL
MODEL 3
REMARK VINA RESULT:   -12.161      0.964      1.353
REMARK INTER + INTRA:         -15.549
REMARK INTER:                 -13.951
REMARK INTRA:                  -1.597
REMARK CONF_INDEPENDENT:        1.790
REMARK UNBOUND:                -1.597
REMARK  6 active torsions:
REMARK  status: ('A' for Active; 'I' for Inactive)
REMARK       I    between atoms: N1_2  and  C2_3 
REMARK    1  A    between atoms: C2_3  and  C3_5 
REMARK    2  A    between atoms: C6_8  and  C7_9 
REMARK    3  A    between atoms: C7_9  and  N2_10 
REMARK       I    between atoms: N2_10  and  C9_12 
REMARK    4  A    between atoms: C9_12  and  C10_14 
REMARK    5  A    between atoms: C14_19  and  N4_20 
REMARK    6  A    between atoms: N4_20  and  C15_21 
ROOT
ATOM      1  N2  NON d   1     -39.673  19.752  -5.038  0.00  0.00    -0.348 N 
ATOM      2  C8  NON d   1     -38.412  18.972  -4.621  0.00  0.00     0.153 C 
ATOM      3  C9  NON d   1     -39.985  20.010  -6.396  0.00  0.00     0.257 C 
ATOM      4  O2  NON d   1     -41.059  20.508  -6.729  0.00  0.00    -0.267 OA
ENDROOT
BRANCH   3   5
ATOM      5  C10 NON d   1     -38.993  19.687  -7.484  0.00  0.00     0.078 C 
ATOM      6  C11 NON d   1     -38.493  18.382  -7.647  0.00  0.00     0.022 C 
ATOM      7  C12 NON d   1     -37.417  18.129  -8.489  0.00  0.00     0.020 C 
ATOM      8  C13 NON d   1     -36.912  19.185  -9.203  0.00  0.00     0.119 C 
ATOM      9  N3  NON d   1     -37.473  20.408  -9.192  0.00  0.00    -0.242 NA
ATOM     10  C14 NON d   1     -38.550  20.659  -8.399  0.00  0.00     0.143 C 
BRANCH  10  11
ATOM     11  N4  NON d   1     -39.228  21.888  -8.569  0.00  0.00    -0.338 N 
ATOM     12  H15 NON d   1     -40.007  21.987  -7.909  0.00  0.00     0.167 HD
BRANCH  11  13
ATOM     13  C15 NON d   1     -39.490  22.590  -9.779  0.00  0.00     0.072 A 
ATOM     14  C16 NON d   1     -39.189  22.102 -11.060  0.00  0.00     0.033 A 
ATOM     15  C17 NON d   1     -39.471  22.842 -12.217  0.00  0.00     0.002 A 
ATOM     16  C18 NON d   1     -40.040  24.106 -12.118  0.00  0.00     0.003 A 
ATOM     17  C19 NON d   1     -40.316  24.634 -10.859  0.00  0.00     0.044 A 
ATOM     18  C20 NON d   1     -40.033  23.884  -9.714  0.00  0.00     0.143 A 
ATOM     19  F1  NON d   1     -40.321  24.417  -8.517  0.00  0.00    -0.204 F 
ENDBRANCH  11  13
ENDBRANCH  10  11
ENDBRANCH   3   5
BRANCH   1  20
ATOM     20  C7  NON d   1     -40.824  19.707  -4.039  0.00  0.00     0.164 C 
BRANCH  20  21
ATOM     21  C6  NON d   1     -42.137  18.856  -4.248  0.00  0.00    -0.040 A 
ATOM     22  C5  NON d   1     -43.262  19.287  -4.968  0.00  0.00     0.010 A 
ATOM     23  C4  NON d   1     -44.458  18.501  -5.072  0.00  0.00     0.017 A 
ATOM     24  C3  NON d   1     -44.645  17.271  -4.402  0.00  0.00     0.032 A 
ATOM     25  C22 NON d   1     -43.560  16.860  -3.620  0.00  0.00     0.017 A 
ATOM     26  C21 NON d   1     -42.339  17.633  -3.552  0.00  0.00     0.010 A 
BRANCH  24  27
ATOM     27  C2  NON d   1     -45.965  16.502  -4.644  0.00  0.00     0.251 C 
ATOM     28  N1  NON d   1     -46.834  16.147  -3.596  0.00  0.00    -0.361 N 
ATOM     29  C1  NON d   1     -48.174  15.419  -3.812  0.00  0.00     0.149 C 
ATOM     30  H4  NON d   1     -46.600  16.441  -2.657  0.00  0.00     0.162 HD
ATOM     31  O1  NON d   1     -46.250  16.215  -5.808  0.00  0.00    -0.268 OA
ENDBRANCH  24  27
ENDBRANCH  20  21
ENDBRANCH   1  20
TORSDOF 6
ENDMDL
MODEL 4
REMARK VINA RESULT:   -11.721      1.390      3.621
REMARK INTER + INTRA:         -14.880
REMARK INTER:                 -13.511
REMARK INTRA:                  -1.369
REMARK CONF_INDEPENDENT:        1.790
REMARK UNBOUND:                -1.369
REMARK  6 active torsions:
REMARK  status: ('A' for Active; 'I' for Inactive)
REMARK       I    between atoms: N1_2  and  C2_3 
REMARK    1  A    between atoms: C2_3  and  C3_5 
REMARK    2  A    between atoms: C6_8  and  C7_9 
REMARK    3  A    between atoms: C7_9  and  N2_10 
REMARK       I    between atoms: N2_10  and  C9_12 
REMARK    4  A    between atoms: C9_12  and  C10_14 
REMARK    5  A    between atoms: C14_19  and  N4_20 
REMARK    6  A    between atoms: N4_20  and  C15_21 
ROOT
ATOM      1  N2  NON d   1     -40.598  20.579  -4.778  0.00  0.00    -0.348 N 
ATOM      2  C8  NON d   1     -39.583  21.304  -3.875  0.00  0.00     0.153 C 
ATOM      3  C9  NON d   1     -40.859  21.000  -6.107  0.00  0.00     0.257 C 
ATOM      4  O2  NON d   1     -41.562  20.337  -6.868  0.00  0.00    -0.267 OA
ENDROOT
BRANCH   3   5
ATOM      5  C10 NON d   1     -40.286  22.292  -6.627  0.00  0.00     0.078 C 
ATOM      6  C11 NON d   1     -40.113  23.403  -5.780  0.00  0.00     0.022 C 
ATOM      7  C12 NON d   1     -39.805  24.655  -6.298  0.00  0.00     0.020 C 
ATOM      8  C13 NON d   1     -39.608  24.748  -7.652  0.00  0.00     0.119 C 
ATOM      9  N3  NON d   1     -39.606  23.675  -8.464  0.00  0.00    -0.242 NA
ATOM     10  C14 NON d   1     -39.870  22.437  -7.963  0.00  0.00     0.143 C 
BRANCH  10  11
ATOM     11  N4  NON d   1     -39.658  21.321  -8.805  0.00  0.00    -0.338 N 
ATOM     12  H15 NON d   1     -40.530  20.814  -8.990  0.00  0.00     0.167 HD
BRANCH  11  13
ATOM     13  C15 NON d   1     -38.538  20.444  -8.841  0.00  0.00     0.072 A 
ATOM     14  C16 NON d   1     -37.269  20.799  -9.322  0.00  0.00     0.033 A 
ATOM     15  C17 NON d   1     -36.203  19.888  -9.333  0.00  0.00     0.002 A 
ATOM     16  C18 NON d   1     -36.389  18.586  -8.884  0.00  0.00     0.003 A 
ATOM     17  C19 NON d   1     -37.647  18.193  -8.435  0.00  0.00     0.044 A 
ATOM     18  C20 NON d   1     -38.701  19.112  -8.427  0.00  0.00     0.143 A 
ATOM     19  F1  NON d   1     -39.897  18.704  -7.977  0.00  0.00    -0.204 F 
ENDBRANCH  11  13
ENDBRANCH  10  11
ENDBRANCH   3   5
BRANCH   1  20
ATOM     20  C7  NON d   1     -40.844  19.114  -4.435  0.00  0.00     0.164 C 
BRANCH  20  21
ATOM     21  C6  NON d   1     -42.261  18.422  -4.495  0.00  0.00    -0.040 A 
ATOM     22  C5  NON d   1     -43.399  18.982  -5.097  0.00  0.00     0.010 A 
ATOM     23  C4  NON d   1     -44.682  18.342  -5.066  0.00  0.00     0.017 A 
ATOM     24  C3  NON d   1     -44.939  17.142  -4.366  0.00  0.00     0.032 A 
ATOM     25  C22 NON d   1     -43.833  16.605  -3.699  0.00  0.00     0.017 A 
ATOM     26  C21 NON d   1     -42.530  17.231  -3.768  0.00  0.00     0.010 A 
BRANCH  24  27
ATOM     27  C2  NON d   1     -46.357  16.533  -4.460  0.00  0.00     0.251 C 
ATOM     28  N1  NON d   1     -47.091  16.150  -3.321  0.00  0.00    -0.361 N 
ATOM     29  C1  NON d   1     -48.520  15.581  -3.382  0.00  0.00     0.149 C 
ATOM     30  H4  NON d   1     -46.685  16.317  -2.410  0.00  0.00     0.162 HD
ATOM     31  O1  NON d   1     -46.847  16.402  -5.583  0.00  0.00    -0.268 OA
ENDBRANCH  24  27
ENDBRANCH  20  21
ENDBRANCH   1  20
TORSDOF 6
ENDMDL
MODEL 5
REMARK VINA RESULT:   -11.612      2.119      3.939
REMARK INTER + INTRA:         -14.837
REMARK INTER:                 -13.402
REMARK INTRA:                  -1.436
REMARK CONF_INDEPENDENT:        1.790
REMARK UNBOUND:                -1.436
REMARK  6 active torsions:
REMARK  status: ('A' for Active; 'I' for Inactive)
REMARK       I    between atoms: N1_2  and  C2_3 
REMARK    1  A    between atoms: C2_3  and  C3_5 
REMARK    2  A    between atoms: C6_8  and  C7_9 
REMARK    3  A    between atoms: C7_9  and  N2_10 
REMARK       I    between atoms: N2_10  and  C9_12 
REMARK    4  A    between atoms: C9_12  and  C10_14 
REMARK    5  A    between atoms: C14_19  and  N4_20 
REMARK    6  A    between atoms: N4_20  and  C15_21 
ROOT
ATOM      1  N2  NON d   1     -40.488  20.124  -6.359  0.00  0.00    -0.348 N 
ATOM      2  C8  NON d   1     -40.161  21.588  -6.007  0.00  0.00     0.153 C 
ATOM      3  C9  NON d   1     -39.945  19.485  -7.503  0.00  0.00     0.257 C 
ATOM      4  O2  NON d   1     -40.096  18.281  -7.701  0.00  0.00    -0.267 OA
ENDROOT
BRANCH   3   5
ATOM      5  C10 NON d   1     -39.169  20.274  -8.524  0.00  0.00     0.078 C 
ATOM      6  C11 NON d   1     -39.739  21.389  -9.167  0.00  0.00     0.022 C 
ATOM      7  C12 NON d   1     -39.119  21.974 -10.265  0.00  0.00     0.020 C 
ATOM      8  C13 NON d   1     -37.903  21.468 -10.648  0.00  0.00     0.119 C 
ATOM      9  N3  NON d   1     -37.259  20.513  -9.955  0.00  0.00    -0.242 NA
ATOM     10  C14 NON d   1     -37.839  19.957  -8.856  0.00  0.00     0.143 C 
BRANCH  10  11
ATOM     11  N4  NON d   1     -37.048  19.110  -8.045  0.00  0.00    -0.338 N 
ATOM     12  H15 NON d   1     -37.029  18.150  -8.405  0.00  0.00     0.167 HD
BRANCH  11  13
ATOM     13  C15 NON d   1     -36.902  19.129  -6.630  0.00  0.00     0.072 A 
ATOM     14  C16 NON d   1     -37.129  20.256  -5.825  0.00  0.00     0.033 A 
ATOM     15  C17 NON d   1     -36.967  20.212  -4.432  0.00  0.00     0.002 A 
ATOM     16  C18 NON d   1     -36.547  19.042  -3.812  0.00  0.00     0.003 A 
ATOM     17  C19 NON d   1     -36.279  17.917  -4.588  0.00  0.00     0.044 A 
ATOM     18  C20 NON d   1     -36.447  17.973  -5.975  0.00  0.00     0.143 A 
ATOM     19  F1  NON d   1     -36.190  16.868  -6.692  0.00  0.00    -0.204 F 
ENDBRANCH  11  13
ENDBRANCH  10  11
ENDBRANCH   3   5
BRANCH   1  20
ATOM     20  C7  NON d   1     -40.895  19.247  -5.180  0.00  0.00     0.164 C 
BRANCH  20  21
ATOM     21  C6  NON d   1     -42.297  18.533  -5.059  0.00  0.00    -0.040 A 
ATOM     22  C5  NON d   1     -43.529  19.131  -5.368  0.00  0.00     0.010 A 
ATOM     23  C4  NON d   1     -44.782  18.461  -5.177  0.00  0.00     0.017 A 
ATOM     24  C3  NON d   1     -44.901  17.181  -4.591  0.00  0.00     0.032 A 
ATOM     25  C22 NON d   1     -43.689  16.597  -4.208  0.00  0.00     0.017 A 
ATOM     26  C21 NON d   1     -42.423  17.258  -4.442  0.00  0.00     0.010 A 
BRANCH  24  27
ATOM     27  C2  NON d   1     -46.311  16.552  -4.492  0.00  0.00     0.251 C 
ATOM     28  N1  NON d   1     -46.965  16.358  -3.261  0.00  0.00    -0.361 N 
ATOM     29  C1  NON d   1     -48.385  15.774  -3.136  0.00  0.00     0.149 C 
ATOM     30  H4  NON d   1     -46.508  16.678  -2.417  0.00  0.00     0.162 HD
ATOM     31  O1  NON d   1     -46.865  16.232  -5.545  0.00  0.00    -0.268 OA
ENDBRANCH  24  27
ENDBRANCH  20  21
ENDBRANCH   1  20
TORSDOF 6
ENDMDL
MODEL 6
REMARK VINA RESULT:   -11.423      2.038      3.998
REMARK INTER + INTRA:         -14.643
REMARK INTER:                 -13.213
REMARK INTRA:                  -1.430
REMARK CONF_INDEPENDENT:        1.790
REMARK UNBOUND:                -1.430
REMARK  6 active torsions:
REMARK  status: ('A' for Active; 'I' for Inactive)
REMARK       I    between atoms: N1_2  and  C2_3 
REMARK    1  A    between atoms: C2_3  and  C3_5 
REMARK    2  A    between atoms: C6_8  and  C7_9 
REMARK    3  A    between atoms: C7_9  and  N2_10 
REMARK       I    between atoms: N2_10  and  C9_12 
REMARK    4  A    between atoms: C9_12  and  C10_14 
REMARK    5  A    between atoms: C14_19  and  N4_20 
REMARK    6  A    between atoms: N4_20  and  C15_21 
ROOT
ATOM      1  N2  NON d   1     -40.560  20.584  -3.762  0.00  0.00    -0.348 N 
ATOM      2  C8  NON d   1     -39.613  20.994  -2.618  0.00  0.00     0.153 C 
ATOM      3  C9  NON d   1     -40.797  21.422  -4.881  0.00  0.00     0.257 C 
ATOM      4  O2  NON d   1     -41.440  21.033  -5.854  0.00  0.00    -0.267 OA
ENDROOT
BRANCH   3   5
ATOM      5  C10 NON d   1     -40.271  22.834  -4.905  0.00  0.00     0.078 C 
ATOM      6  C11 NON d   1     -40.797  23.819  -4.049  0.00  0.00     0.022 C 
ATOM      7  C12 NON d   1     -40.481  25.161  -4.226  0.00  0.00     0.020 C 
ATOM      8  C13 NON d   1     -39.585  25.474  -5.217  0.00  0.00     0.119 C 
ATOM      9  N3  NON d   1     -38.943  24.540  -5.942  0.00  0.00    -0.242 NA
ATOM     10  C14 NON d   1     -39.217  23.220  -5.753  0.00  0.00     0.143 C 
BRANCH  10  11
ATOM     11  N4  NON d   1     -38.380  22.272  -6.384  0.00  0.00    -0.338 N 
ATOM     12  H15 NON d   1     -37.590  22.721  -6.861  0.00  0.00     0.167 HD
BRANCH  11  13
ATOM     13  C15 NON d   1     -38.751  21.063  -7.037  0.00  0.00     0.072 A 
ATOM     14  C16 NON d   1     -38.180  19.810  -6.769  0.00  0.00     0.033 A 
ATOM     15  C17 NON d   1     -38.588  18.653  -7.447  0.00  0.00     0.002 A 
ATOM     16  C18 NON d   1     -39.565  18.727  -8.434  0.00  0.00     0.003 A 
ATOM     17  C19 NON d   1     -40.124  19.963  -8.748  0.00  0.00     0.044 A 
ATOM     18  C20 NON d   1     -39.710  21.108  -8.062  0.00  0.00     0.143 A 
ATOM     19  F1  NON d   1     -40.277  22.281  -8.382  0.00  0.00    -0.204 F 
ENDBRANCH  11  13
ENDBRANCH  10  11
ENDBRANCH   3   5
BRANCH   1  20
ATOM     20  C7  NON d   1     -40.744  19.082  -3.946  0.00  0.00     0.164 C 
BRANCH  20  21
ATOM     21  C6  NON d   1     -42.143  18.390  -4.178  0.00  0.00    -0.040 A 
ATOM     22  C5  NON d   1     -43.190  18.938  -4.935  0.00  0.00     0.010 A 
ATOM     23  C4  NON d   1     -44.468  18.299  -5.060  0.00  0.00     0.017 A 
ATOM     24  C3  NON d   1     -44.818  17.113  -4.377  0.00  0.00     0.032 A 
ATOM     25  C22 NON d   1     -43.812  16.589  -3.560  0.00  0.00     0.017 A 
ATOM     26  C21 NON d   1     -42.509  17.213  -3.470  0.00  0.00     0.010 A 
BRANCH  24  27
ATOM     27  C2  NON d   1     -46.214  16.503  -4.645  0.00  0.00     0.251 C 
ATOM     28  N1  NON d   1     -47.007  15.954  -3.618  0.00  0.00    -0.361 N 
ATOM     29  C1  NON d   1     -48.416  15.378  -3.848  0.00  0.00     0.149 C 
ATOM     30  H4  NON d   1     -46.661  15.997  -2.669  0.00  0.00     0.162 HD
ATOM     31  O1  NON d   1     -46.632  16.524  -5.804  0.00  0.00    -0.268 OA
ENDBRANCH  24  27
ENDBRANCH  20  21
ENDBRANCH   1  20
TORSDOF 6
ENDMDL
MODEL 7
REMARK VINA RESULT:   -11.324      2.116      2.913
REMARK INTER + INTRA:         -14.540
REMARK INTER:                 -13.113
REMARK INTRA:                  -1.426
REMARK CONF_INDEPENDENT:        1.790
REMARK UNBOUND:                -1.426
REMARK  6 active torsions:
REMARK  status: ('A' for Active; 'I' for Inactive)
REMARK       I    between atoms: N1_2  and  C2_3 
REMARK    1  A    between atoms: C2_3  and  C3_5 
REMARK    2  A    between atoms: C6_8  and  C7_9 
REMARK    3  A    between atoms: C7_9  and  N2_10 
REMARK       I    between atoms: N2_10  and  C9_12 
REMARK    4  A    between atoms: C9_12  and  C10_14 
REMARK    5  A    between atoms: C14_19  and  N4_20 
REMARK    6  A    between atoms: N4_20  and  C15_21 
ROOT
ATOM      1  N2  NON d   1     -40.103  19.702  -5.371  0.00  0.00    -0.348 N 
ATOM      2  C8  NON d   1     -39.573  18.798  -6.500  0.00  0.00     0.153 C 
ATOM      3  C9  NON d   1     -40.437  21.063  -5.590  0.00  0.00     0.257 C 
ATOM      4  O2  NON d   1     -40.989  21.739  -4.724  0.00  0.00    -0.267 OA
ENDROOT
BRANCH   3   5
ATOM      5  C10 NON d   1     -40.109  21.730  -6.900  0.00  0.00     0.078 C 
ATOM      6  C11 NON d   1     -40.416  21.111  -8.127  0.00  0.00     0.022 C 
ATOM      7  C12 NON d   1     -39.914  21.609  -9.323  0.00  0.00     0.020 C 
ATOM      8  C13 NON d   1     -39.172  22.761  -9.266  0.00  0.00     0.119 C 
ATOM      9  N3  NON d   1     -39.000  23.463  -8.132  0.00  0.00    -0.242 NA
ATOM     10  C14 NON d   1     -39.518  23.005  -6.959  0.00  0.00     0.143 C 
BRANCH  10  11
ATOM     11  N4  NON d   1     -39.490  23.867  -5.839  0.00  0.00    -0.338 N 
ATOM     12  H15 NON d   1     -39.332  23.352  -4.966  0.00  0.00     0.167 HD
BRANCH  11  13
ATOM     13  C15 NON d   1     -40.265  25.038  -5.608  0.00  0.00     0.072 A 
ATOM     14  C16 NON d   1     -40.350  26.120  -6.498  0.00  0.00     0.033 A 
ATOM     15  C17 NON d   1     -41.131  27.250  -6.214  0.00  0.00     0.002 A 
ATOM     16  C18 NON d   1     -41.829  27.335  -5.015  0.00  0.00     0.003 A 
ATOM     17  C19 NON d   1     -41.735  26.293  -4.095  0.00  0.00     0.044 A 
ATOM     18  C20 NON d   1     -40.955  25.172  -4.392  0.00  0.00     0.143 A 
ATOM     19  F1  NON d   1     -40.895  24.181  -3.489  0.00  0.00    -0.204 F 
ENDBRANCH  11  13
ENDBRANCH  10  11
ENDBRANCH   3   5
BRANCH   1  20
ATOM     20  C7  NON d   1     -40.800  18.973  -4.227  0.00  0.00     0.164 C 
BRANCH  20  21
ATOM     21  C6  NON d   1     -42.226  18.310  -4.348  0.00  0.00    -0.040 A 
ATOM     22  C5  NON d   1     -43.310  18.864  -5.047  0.00  0.00     0.010 A 
ATOM     23  C4  NON d   1     -44.607  18.254  -5.070  0.00  0.00     0.017 A 
ATOM     24  C3  NON d   1     -44.937  17.094  -4.334  0.00  0.00     0.032 A 
ATOM     25  C22 NON d   1     -43.890  16.566  -3.572  0.00  0.00     0.017 A 
ATOM     26  C21 NON d   1     -42.570  17.160  -3.585  0.00  0.00     0.010 A 
BRANCH  24  27
ATOM     27  C2  NON d   1     -46.361  16.511  -4.491  0.00  0.00     0.251 C 
ATOM     28  N1  NON d   1     -47.132  16.096  -3.388  0.00  0.00    -0.361 N 
ATOM     29  C1  NON d   1     -48.568  15.552  -3.511  0.00  0.00     0.149 C 
ATOM     30  H4  NON d   1     -46.751  16.221  -2.460  0.00  0.00     0.162 HD
ATOM     31  O1  NON d   1     -46.820  16.432  -5.632  0.00  0.00    -0.268 OA
ENDBRANCH  24  27
ENDBRANCH  20  21
ENDBRANCH   1  20
TORSDOF 6
ENDMDL
MODEL 8
REMARK VINA RESULT:   -11.294      4.605      6.754
REMARK INTER + INTRA:         -14.648
REMARK INTER:                 -13.084
REMARK INTRA:                  -1.564
REMARK CONF_INDEPENDENT:        1.790
REMARK UNBOUND:                -1.564
REMARK  6 active torsions:
REMARK  status: ('A' for Active; 'I' for Inactive)
REMARK       I    between atoms: N1_2  and  C2_3 
REMARK    1  A    between atoms: C2_3  and  C3_5 
REMARK    2  A    between atoms: C6_8  and  C7_9 
REMARK    3  A    between atoms: C7_9  and  N2_10 
REMARK       I    between atoms: N2_10  and  C9_12 
REMARK    4  A    between atoms: C9_12  and  C10_14 
REMARK    5  A    between atoms: C14_19  and  N4_20 
REMARK    6  A    between atoms: N4_20  and  C15_21 
ROOT
ATOM      1  N2  NON d   1     -40.196  20.733  -4.108  0.00  0.00    -0.348 N 
ATOM      2  C8  NON d   1     -40.258  21.423  -5.484  0.00  0.00     0.153 C 
ATOM      3  C9  NON d   1     -40.455  21.432  -2.902  0.00  0.00     0.257 C 
ATOM      4  O2  NON d   1     -40.542  20.848  -1.823  0.00  0.00    -0.267 OA
ENDROOT
BRANCH   3   5
ATOM      5  C10 NON d   1     -40.623  22.929  -2.906  0.00  0.00     0.078 C 
ATOM      6  C11 NON d   1     -41.442  23.565  -3.857  0.00  0.00     0.022 C 
ATOM      7  C12 NON d   1     -41.418  24.947  -4.009  0.00  0.00     0.020 C 
ATOM      8  C13 NON d   1     -40.623  25.664  -3.152  0.00  0.00     0.119 C 
ATOM      9  N3  NON d   1     -39.956  25.098  -2.130  0.00  0.00    -0.242 NA
ATOM     10  C14 NON d   1     -40.000  23.749  -1.947  0.00  0.00     0.143 C 
BRANCH  10  11
ATOM     11  N4  NON d   1     -39.458  23.223  -0.752  0.00  0.00    -0.338 N 
ATOM     12  H15 NON d   1     -39.466  22.198  -0.751  0.00  0.00     0.167 HD
BRANCH  11  13
ATOM     13  C15 NON d   1     -39.573  23.738   0.569  0.00  0.00     0.072 A 
ATOM     14  C16 NON d   1     -38.496  23.890   1.456  0.00  0.00     0.033 A 
ATOM     15  C17 NON d   1     -38.672  24.403   2.750  0.00  0.00     0.002 A 
ATOM     16  C18 NON d   1     -39.940  24.753   3.198  0.00  0.00     0.003 A 
ATOM     17  C19 NON d   1     -41.034  24.578   2.353  0.00  0.00     0.044 A 
ATOM     18  C20 NON d   1     -40.844  24.069   1.066  0.00  0.00     0.143 A 
ATOM     19  F1  NON d   1     -41.918  23.923   0.274  0.00  0.00    -0.204 F 
ENDBRANCH  11  13
ENDBRANCH  10  11
ENDBRANCH   3   5
BRANCH   1  20
ATOM     20  C7  NON d   1     -40.438  19.228  -4.125  0.00  0.00     0.164 C 
BRANCH  20  21
ATOM     21  C6  NON d   1     -41.858  18.568  -4.321  0.00  0.00    -0.040 A 
ATOM     22  C5  NON d   1     -42.936  19.174  -4.985  0.00  0.00     0.010 A 
ATOM     23  C4  NON d   1     -44.228  18.559  -5.078  0.00  0.00     0.017 A 
ATOM     24  C3  NON d   1     -44.559  17.337  -4.450  0.00  0.00     0.032 A 
ATOM     25  C22 NON d   1     -43.517  16.753  -3.722  0.00  0.00     0.017 A 
ATOM     26  C21 NON d   1     -42.202  17.354  -3.666  0.00  0.00     0.010 A 
BRANCH  24  27
ATOM     27  C2  NON d   1     -45.976  16.761  -4.676  0.00  0.00     0.251 C 
ATOM     28  N1  NON d   1     -46.708  16.134  -3.650  0.00  0.00    -0.361 N 
ATOM     29  C1  NON d   1     -48.137  15.589  -3.836  0.00  0.00     0.149 C 
ATOM     30  H4  NON d   1     -46.303  16.096  -2.724  0.00  0.00     0.162 HD
ATOM     31  O1  NON d   1     -46.466  16.881  -5.801  0.00  0.00    -0.268 OA
ENDBRANCH  24  27
ENDBRANCH  20  21
ENDBRANCH   1  20
TORSDOF 6
ENDMDL
MODEL 9
REMARK VINA RESULT:   -10.982      2.020      3.122
REMARK INTER + INTRA:         -14.315
REMARK INTER:                 -12.772
REMARK INTRA:                  -1.542
REMARK CONF_INDEPENDENT:        1.790
REMARK UNBOUND:                -1.542
REMARK  6 active torsions:
REMARK  status: ('A' for Active; 'I' for Inactive)
REMARK       I    between atoms: N1_2  and  C2_3 
REMARK    1  A    between atoms: C2_3  and  C3_5 
REMARK    2  A    between atoms: C6_8  and  C7_9 
REMARK    3  A    between atoms: C7_9  and  N2_10 
REMARK       I    between atoms: N2_10  and  C9_12 
REMARK    4  A    between atoms: C9_12  and  C10_14 
REMARK    5  A    between atoms: C14_19  and  N4_20 
REMARK    6  A    between atoms: N4_20  and  C15_21 
ROOT
ATOM      1  N2  NON d   1     -40.864  20.893  -4.979  0.00  0.00    -0.348 N 
ATOM      2  C8  NON d   1     -41.013  21.845  -3.777  0.00  0.00     0.153 C 
ATOM      3  C9  NON d   1     -40.128  21.251  -6.137  0.00  0.00     0.257 C 
ATOM      4  O2  NON d   1     -39.894  20.439  -7.030  0.00  0.00    -0.267 OA
ENDROOT
BRANCH   3   5
ATOM      5  C10 NON d   1     -39.614  22.656  -6.313  0.00  0.00     0.078 C 
ATOM      6  C11 NON d   1     -38.797  23.258  -5.337  0.00  0.00     0.022 C 
ATOM      7  C12 NON d   1     -38.514  24.618  -5.383  0.00  0.00     0.020 C 
ATOM      8  C13 NON d   1     -39.001  25.329  -6.450  0.00  0.00     0.119 C 
ATOM      9  N3  NON d   1     -39.645  24.751  -7.480  0.00  0.00    -0.242 NA
ATOM     10  C14 NON d   1     -39.897  23.413  -7.464  0.00  0.00     0.143 C 
BRANCH  10  11
ATOM     11  N4  NON d   1     -40.390  22.817  -8.648  0.00  0.00    -0.338 N 
ATOM     12  H15 NON d   1     -40.682  21.846  -8.490  0.00  0.00     0.167 HD
BRANCH  11  13
ATOM     13  C15 NON d   1     -39.939  23.005  -9.984  0.00  0.00     0.072 A 
ATOM     14  C16 NON d   1     -40.291  24.098 -10.792  0.00  0.00     0.033 A 
ATOM     15  C17 NON d   1     -39.815  24.229 -12.104  0.00  0.00     0.002 A 
ATOM     16  C18 NON d   1     -38.992  23.251 -12.651  0.00  0.00     0.003 A 
ATOM     17  C19 NON d   1     -38.656  22.137 -11.887  0.00  0.00     0.044 A 
ATOM     18  C20 NON d   1     -39.135  22.020 -10.579  0.00  0.00     0.143 A 
ATOM     19  F1  NON d   1     -38.783  20.939  -9.867  0.00  0.00    -0.204 F 
ENDBRANCH  11  13
ENDBRANCH  10  11
ENDBRANCH   3   5
BRANCH   1  20
ATOM     20  C7  NON d   1     -41.003  19.410  -4.655  0.00  0.00     0.164 C 
BRANCH  20  21
ATOM     21  C6  NON d   1     -42.378  18.635  -4.653  0.00  0.00    -0.040 A 
ATOM     22  C5  NON d   1     -43.575  19.130  -5.195  0.00  0.00     0.010 A 
ATOM     23  C4  NON d   1     -44.815  18.414  -5.107  0.00  0.00     0.017 A 
ATOM     24  C3  NON d   1     -44.966  17.197  -4.406  0.00  0.00     0.032 A 
ATOM     25  C22 NON d   1     -43.800  16.724  -3.797  0.00  0.00     0.017 A 
ATOM     26  C21 NON d   1     -42.540  17.426  -3.924  0.00  0.00     0.010 A 
BRANCH  24  27
ATOM     27  C2  NON d   1     -46.349  16.505  -4.437  0.00  0.00     0.251 C 
ATOM     28  N1  NON d   1     -47.070  16.209  -3.265  0.00  0.00    -0.361 N 
ATOM     29  C1  NON d   1     -48.467  15.560  -3.267  0.00  0.00     0.149 C 
ATOM     30  H4  NON d   1     -46.682  16.495  -2.376  0.00  0.00     0.162 HD
ATOM     31  O1  NON d   1     -46.822  16.228  -5.541  0.00  0.00    -0.268 OA
ENDBRANCH  24  27
ENDBRANCH  20  21
ENDBRANCH   1  20
TORSDOF 6
ENDMDL
