MODEL 1
REMARK VINA RESULT:   -12.285      0.000      0.000
REMARK INTER + INTRA:         -15.247
REMARK INTER:                 -14.374
REMARK INTRA:                  -0.873
REMARK CONF_INDEPENDENT:        2.088
REMARK UNBOUND:                -0.873
REMARK  7 active torsions:
REMARK  status: ('A' for Active; 'I' for Inactive)
REMARK    1  A    between atoms: C3_3  and  C2_2 
REMARK    2  A    between atoms: C3_3  and  C5_5 
REMARK       I    between atoms: C5_5  and  N1_7 
REMARK    3  A    between atoms: N1_7  and  C6_8 
REMARK    4  A    between atoms: C10_12  and  C11_13 
REMARK    5  A    between atoms: C11_13  and  N2_14 
REMARK       I    between atoms: N2_14  and  C12_15 
REMARK    6  A    between atoms: C12_15  and  C13_17 
REMARK    7  A    between atoms: C16_20  and  C17_21 
ROOT
ATOM      1  N2  NON d   1     -40.046  18.653  -2.435  0.00  0.00    -0.352 N 
ATOM      2  C12 NON d   1     -39.447  19.712  -3.075  0.00  0.00     0.257 C 
ATOM      3  O2  NON d   1     -38.825  20.473  -2.332  0.00  0.00    -0.267 OA
ATOM      4  H16 NON d   1     -39.862  18.658  -1.441  0.00  0.00     0.163 HD
ENDROOT
BRANCH   1   5
ATOM      5  C11 NON d   1     -40.799  17.577  -2.997  0.00  0.00     0.161 C 
BRANCH   5   6
ATOM      6  C10 NON d   1     -42.151  17.789  -3.626  0.00  0.00    -0.038 A 
ATOM      7  C9  NON d   1     -42.099  18.679  -4.720  0.00  0.00     0.009 A 
ATOM      8  C8  NON d   1     -43.232  19.008  -5.430  0.00  0.00     0.003 A 
ATOM      9  C7  NON d   1     -44.450  18.452  -5.060  0.00  0.00     0.029 A 
ATOM     10  C6  NON d   1     -44.568  17.553  -3.987  0.00  0.00     0.035 A 
ATOM     11  C19 NON d   1     -43.397  17.231  -3.261  0.00  0.00     0.038 A 
BRANCH  10  12
ATOM     12  N1  NON d   1     -45.831  16.967  -3.621  0.00  0.00    -0.327 N 
ATOM     13  C5  NON d   1     -46.775  16.512  -4.522  0.00  0.00     0.226 C 
ATOM     14  O1  NON d   1     -46.611  16.540  -5.747  0.00  0.00    -0.273 OA
ATOM     15  H10 NON d   1     -46.007  16.849  -2.632  0.00  0.00     0.169 HD
BRANCH  13  16
ATOM     16  C3  NON d   1     -48.107  15.883  -4.073  0.00  0.00     0.074 C 
ATOM     17  C4  NON d   1     -48.911  15.005  -5.050  0.00  0.00     0.020 C 
BRANCH  16  18
ATOM     18  C2  NON d   1     -48.633  16.130  -2.648  0.00  0.00     0.009 C 
ATOM     19  C1  NON d   1     -50.111  16.504  -2.427  0.00  0.00     0.006 C 
ENDBRANCH  16  18
ENDBRANCH  13  16
ENDBRANCH  10  12
ENDBRANCH   5   6
ENDBRANCH   1   5
BRANCH   2  20
ATOM     20  C13 NON d   1     -39.506  19.964  -4.576  0.00  0.00     0.100 A 
ATOM     21  C14 NON d   1     -38.952  19.201  -5.542  0.00  0.00     0.025 A 
ATOM     22  C15 NON d   1     -38.993  19.511  -6.953  0.00  0.00     0.035 A 
ATOM     23  C16 NON d   1     -39.622  20.607  -7.395  0.00  0.00     0.119 A 
ATOM     24  N3  NON d   1     -40.222  21.419  -6.455  0.00  0.00    -0.319 N 
ATOM     25  C18 NON d   1     -40.224  21.199  -5.091  0.00  0.00     0.261 A 
ATOM     26  H19 NON d   1     -40.696  22.269  -6.748  0.00  0.00     0.169 HD
ATOM     27  O3  NON d   1     -40.808  22.010  -4.379  0.00  0.00    -0.267 OA
BRANCH  23  28
ATOM     28  C17 NON d   1     -39.670  20.998  -8.856  0.00  0.00     0.432 C 
ATOM     29  F1  NON d   1     -40.587  20.266  -9.538  0.00  0.00    -0.165 F 
ATOM     30  F2  NON d   1     -40.007  22.303  -9.016  0.00  0.00    -0.165 F 
ATOM     31  F3  NON d   1     -38.477  20.818  -9.480  0.00  0.00    -0.165 F 
ENDBRANCH  23  28
ENDBRANCH   2  20
TORSDOF 7
ENDMDL
MODEL 2
REMARK VINA RESULT:   -12.147      2.596      3.306
REMARK INTER + INTRA:         -14.965
REMARK INTER:                 -14.235
REMARK INTRA:                  -0.730
REMARK CONF_INDEPENDENT:        2.088
REMARK UNBOUND:                -0.730
REMARK  7 active torsions:
REMARK  status: ('A' for Active; 'I' for Inactive)
REMARK    1  A    between atoms: C3_3  and  C2_2 
REMARK    2  A    between atoms: C3_3  and  C5_5 
REMARK       I    between atoms: C5_5  and  N1_7 
REMARK    3  A    between atoms: N1_7  and  C6_8 
REMARK    4  A    between atoms: C10_12  and  C11_13 
REMARK    5  A    between atoms: C11_13  and  N2_14 
REMARK       I    between atoms: N2_14  and  C12_15 
REMARK    6  A    between atoms: C12_15  and  C13_17 
REMARK    7  A    between atoms: C16_20  and  C17_21 
ROOT
ATOM      1  N2  NON d   1     -40.198  18.321  -7.095  0.00  0.00    -0.352 N 
ATOM      2  C12 NON d   1     -39.268  18.838  -7.964  0.00  0.00     0.257 C 
ATOM      3  O2  NON d   1     -38.484  18.008  -8.428  0.00  0.00    -0.267 OA
ATOM      4  H16 NON d   1     -40.099  17.321  -6.986  0.00  0.00     0.163 HD
ENDROOT
BRANCH   1   5
ATOM      5  C11 NON d   1     -41.264  18.991  -6.421  0.00  0.00     0.161 C 
BRANCH   5   6
ATOM      6  C10 NON d   1     -41.953  18.394  -5.221  0.00  0.00    -0.038 A 
ATOM      7  C9  NON d   1     -41.063  18.165  -4.152  0.00  0.00     0.009 A 
ATOM      8  C8  NON d   1     -41.496  17.620  -2.964  0.00  0.00     0.003 A 
ATOM      9  C7  NON d   1     -42.837  17.289  -2.818  0.00  0.00     0.029 A 
ATOM     10  C6  NON d   1     -43.776  17.501  -3.841  0.00  0.00     0.035 A 
ATOM     11  C19 NON d   1     -43.315  18.053  -5.060  0.00  0.00     0.038 A 
BRANCH  10  12
ATOM     12  N1  NON d   1     -45.169  17.172  -3.677  0.00  0.00    -0.327 N 
ATOM     13  C5  NON d   1     -45.974  16.655  -4.673  0.00  0.00     0.226 C 
ATOM     14  O1  NON d   1     -45.565  16.395  -5.810  0.00  0.00    -0.273 OA
ATOM     15  H10 NON d   1     -45.558  17.295  -2.752  0.00  0.00     0.169 HD
BRANCH  13  16
ATOM     16  C3  NON d   1     -47.457  16.311  -4.438  0.00  0.00     0.074 C 
ATOM     17  C4  NON d   1     -48.205  15.405  -5.434  0.00  0.00     0.020 C 
BRANCH  16  18
ATOM     18  C2  NON d   1     -48.191  16.872  -3.207  0.00  0.00     0.009 C 
ATOM     19  C1  NON d   1     -49.452  16.166  -2.674  0.00  0.00     0.006 C 
ENDBRANCH  16  18
ENDBRANCH  13  16
ENDBRANCH  10  12
ENDBRANCH   5   6
ENDBRANCH   1   5
BRANCH   2  20
ATOM     20  C13 NON d   1     -39.178  20.304  -8.367  0.00  0.00     0.100 A 
ATOM     21  C14 NON d   1     -38.089  21.098  -8.273  0.00  0.00     0.025 A 
ATOM     22  C15 NON d   1     -38.068  22.501  -8.623  0.00  0.00     0.035 A 
ATOM     23  C16 NON d   1     -39.167  23.106  -9.091  0.00  0.00     0.119 A 
ATOM     24  N3  NON d   1     -40.307  22.341  -9.223  0.00  0.00    -0.319 N 
ATOM     25  C18 NON d   1     -40.413  21.001  -8.908  0.00  0.00     0.261 A 
ATOM     26  H19 NON d   1     -41.166  22.767  -9.560  0.00  0.00     0.169 HD
ATOM     27  O3  NON d   1     -41.496  20.453  -9.087  0.00  0.00    -0.267 OA
BRANCH  23  28
ATOM     28  C17 NON d   1     -39.211  24.578  -9.442  0.00  0.00     0.432 C 
ATOM     29  F1  NON d   1     -39.982  25.275  -8.570  0.00  0.00    -0.165 F 
ATOM     30  F2  NON d   1     -37.975  25.137  -9.412  0.00  0.00    -0.165 F 
ATOM     31  F3  NON d   1     -39.717  24.799 -10.682  0.00  0.00    -0.165 F 
ENDBRANCH  23  28
ENDBRANCH   2  20
TORSDOF 7
ENDMDL
MODEL 3
REMARK VINA RESULT:   -12.078      0.893      1.482
REMARK INTER + INTRA:         -15.174
REMARK INTER:                 -14.166
REMARK INTRA:                  -1.008
REMARK CONF_INDEPENDENT:        2.088
REMARK UNBOUND:                -1.008
REMARK  7 active torsions:
REMARK  status: ('A' for Active; 'I' for Inactive)
REMARK    1  A    between atoms: C3_3  and  C2_2 
REMARK    2  A    between atoms: C3_3  and  C5_5 
REMARK       I    between atoms: C5_5  and  N1_7 
REMARK    3  A    between atoms: N1_7  and  C6_8 
REMARK    4  A    between atoms: C10_12  and  C11_13 
REMARK    5  A    between atoms: C11_13  and  N2_14 
REMARK       I    between atoms: N2_14  and  C12_15 
REMARK    6  A    between atoms: C12_15  and  C13_17 
REMARK    7  A    between atoms: C16_20  and  C17_21 
ROOT
ATOM      1  N2  NON d   1     -40.229  18.662  -2.130  0.00  0.00    -0.352 N 
ATOM      2  C12 NON d   1     -39.690  19.839  -2.590  0.00  0.00     0.257 C 
ATOM      3  O2  NON d   1     -39.171  20.539  -1.719  0.00  0.00    -0.267 OA
ATOM      4  H16 NON d   1     -40.095  18.548  -1.134  0.00  0.00     0.163 HD
ENDROOT
BRANCH   1   5
ATOM      5  C11 NON d   1     -40.860  17.615  -2.870  0.00  0.00     0.161 C 
BRANCH   5   6
ATOM      6  C10 NON d   1     -42.195  17.803  -3.542  0.00  0.00    -0.038 A 
ATOM      7  C9  NON d   1     -42.113  18.652  -4.666  0.00  0.00     0.009 A 
ATOM      8  C8  NON d   1     -43.227  18.955  -5.418  0.00  0.00     0.003 A 
ATOM      9  C7  NON d   1     -44.454  18.412  -5.060  0.00  0.00     0.029 A 
ATOM     10  C6  NON d   1     -44.601  17.553  -3.958  0.00  0.00     0.035 A 
ATOM     11  C19 NON d   1     -43.450  17.259  -3.190  0.00  0.00     0.038 A 
BRANCH  10  12
ATOM     12  N1  NON d   1     -45.874  16.981  -3.604  0.00  0.00    -0.327 N 
ATOM     13  C5  NON d   1     -46.791  16.488  -4.513  0.00  0.00     0.226 C 
ATOM     14  O1  NON d   1     -46.594  16.467  -5.732  0.00  0.00    -0.273 OA
ATOM     15  H10 NON d   1     -46.078  16.902  -2.617  0.00  0.00     0.169 HD
BRANCH  13  16
ATOM     16  C3  NON d   1     -48.135  15.875  -4.076  0.00  0.00     0.074 C 
ATOM     17  C4  NON d   1     -48.940  15.004  -5.059  0.00  0.00     0.020 C 
BRANCH  16  18
ATOM     18  C2  NON d   1     -48.674  16.133  -2.657  0.00  0.00     0.009 C 
ATOM     19  C1  NON d   1     -50.190  16.268  -2.422  0.00  0.00     0.006 C 
ENDBRANCH  16  18
ENDBRANCH  13  16
ENDBRANCH  10  12
ENDBRANCH   5   6
ENDBRANCH   1   5
BRANCH   2  20
ATOM     20  C13 NON d   1     -39.694  20.284  -4.047  0.00  0.00     0.100 A 
ATOM     21  C14 NON d   1     -40.289  21.387  -4.548  0.00  0.00     0.025 A 
ATOM     22  C15 NON d   1     -40.307  21.740  -5.951  0.00  0.00     0.035 A 
ATOM     23  C16 NON d   1     -39.697  20.969  -6.858  0.00  0.00     0.119 A 
ATOM     24  N3  NON d   1     -39.057  19.835  -6.403  0.00  0.00    -0.319 N 
ATOM     25  C18 NON d   1     -38.998  19.424  -5.086  0.00  0.00     0.261 A 
ATOM     26  H19 NON d   1     -38.595  19.215  -7.063  0.00  0.00     0.169 HD
ATOM     27  O3  NON d   1     -38.384  18.392  -4.834  0.00  0.00    -0.267 OA
BRANCH  23  28
ATOM     28  C17 NON d   1     -39.710  21.273  -8.341  0.00  0.00     0.432 C 
ATOM     29  F1  NON d   1     -39.864  22.601  -8.576  0.00  0.00    -0.165 F 
ATOM     30  F2  NON d   1     -38.552  20.897  -8.940  0.00  0.00    -0.165 F 
ATOM     31  F3  NON d   1     -40.718  20.637  -8.991  0.00  0.00    -0.165 F 
ENDBRANCH  23  28
ENDBRANCH   2  20
TORSDOF 7
ENDMDL
MODEL 4
REMARK VINA RESULT:   -11.836      4.901      9.393
REMARK INTER + INTRA:         -14.477
REMARK INTER:                 -13.924
REMARK INTRA:                  -0.553
REMARK CONF_INDEPENDENT:        2.088
REMARK UNBOUND:                -0.553
REMARK  7 active torsions:
REMARK  status: ('A' for Active; 'I' for Inactive)
REMARK    1  A    between atoms: C3_3  and  C2_2 
REMARK    2  A    between atoms: C3_3  and  C5_5 
REMARK       I    between atoms: C5_5  and  N1_7 
REMARK    3  A    between atoms: N1_7  and  C6_8 
REMARK    4  A    between atoms: C10_12  and  C11_13 
REMARK    5  A    between atoms: C11_13  and  N2_14 
REMARK       I    between atoms: N2_14  and  C12_15 
REMARK    6  A    between atoms: C12_15  and  C13_17 
REMARK    7  A    between atoms: C16_20  and  C17_21 
ROOT
ATOM      1  N2  NON d   1     -44.209  16.821  -4.726  0.00  0.00    -0.352 N 
ATOM      2  C12 NON d   1     -45.444  16.357  -5.110  0.00  0.00     0.257 C 
ATOM      3  O2  NON d   1     -45.453  15.755  -6.185  0.00  0.00    -0.267 OA
ATOM      4  H16 NON d   1     -43.489  16.574  -5.390  0.00  0.00     0.163 HD
ENDROOT
BRANCH   1   5
ATOM      5  C11 NON d   1     -43.844  17.513  -3.531  0.00  0.00     0.161 C 
BRANCH   5   6
ATOM      6  C10 NON d   1     -42.536  18.248  -3.400  0.00  0.00    -0.038 A 
ATOM      7  C9  NON d   1     -42.003  18.164  -2.097  0.00  0.00     0.009 A 
ATOM      8  C8  NON d   1     -40.812  18.772  -1.769  0.00  0.00     0.003 A 
ATOM      9  C7  NON d   1     -40.124  19.484  -2.743  0.00  0.00     0.029 A 
ATOM     10  C6  NON d   1     -40.595  19.599  -4.061  0.00  0.00     0.035 A 
ATOM     11  C19 NON d   1     -41.826  18.976  -4.380  0.00  0.00     0.038 A 
BRANCH  10  12
ATOM     12  N1  NON d   1     -39.867  20.324  -5.070  0.00  0.00    -0.327 N 
ATOM     13  C5  NON d   1     -40.128  20.254  -6.425  0.00  0.00     0.226 C 
ATOM     14  O1  NON d   1     -41.040  19.574  -6.907  0.00  0.00    -0.273 OA
ATOM     15  H10 NON d   1     -39.148  20.955  -4.745  0.00  0.00     0.169 HD
BRANCH  13  16
ATOM     16  C3  NON d   1     -39.323  21.061  -7.461  0.00  0.00     0.074 C 
ATOM     17  C4  NON d   1     -39.520  22.585  -7.572  0.00  0.00     0.020 C 
BRANCH  16  18
ATOM     18  C2  NON d   1     -38.321  20.345  -8.386  0.00  0.00     0.009 C 
ATOM     19  C1  NON d   1     -38.097  18.827  -8.250  0.00  0.00     0.006 C 
ENDBRANCH  16  18
ENDBRANCH  13  16
ENDBRANCH  10  12
ENDBRANCH   5   6
ENDBRANCH   1   5
BRANCH   2  20
ATOM     20  C13 NON d   1     -46.726  16.533  -4.305  0.00  0.00     0.100 A 
ATOM     21  C14 NON d   1     -46.821  16.954  -3.026  0.00  0.00     0.025 A 
ATOM     22  C15 NON d   1     -48.061  17.058  -2.289  0.00  0.00     0.035 A 
ATOM     23  C16 NON d   1     -49.227  16.743  -2.865  0.00  0.00     0.119 A 
ATOM     24  N3  NON d   1     -49.195  16.320  -4.178  0.00  0.00    -0.319 N 
ATOM     25  C18 NON d   1     -48.057  16.189  -4.949  0.00  0.00     0.261 A 
ATOM     26  H19 NON d   1     -50.058  16.057  -4.646  0.00  0.00     0.169 HD
ATOM     27  O3  NON d   1     -48.189  15.806  -6.107  0.00  0.00    -0.267 OA
BRANCH  23  28
ATOM     28  C17 NON d   1     -50.550  16.802  -2.133  0.00  0.00     0.432 C 
ATOM     29  F1  NON d   1     -51.134  15.579  -2.060  0.00  0.00    -0.165 F 
ATOM     30  F2  NON d   1     -50.399  17.244  -0.859  0.00  0.00    -0.165 F 
ATOM     31  F3  NON d   1     -51.440  17.630  -2.737  0.00  0.00    -0.165 F 
ENDBRANCH  23  28
ENDBRANCH   2  20
TORSDOF 7
ENDMDL
MODEL 5
REMARK VINA RESULT:   -11.556      4.003      4.940
REMARK INTER + INTRA:         -14.592
REMARK INTER:                 -13.644
REMARK INTRA:                  -0.948
REMARK CONF_INDEPENDENT:        2.088
REMARK UNBOUND:                -0.948
REMARK  7 active torsions:
REMARK  status: ('A' for Active; 'I' for Inactive)
REMARK    1  A    between atoms: C3_3  and  C2_2 
REMARK    2  A    between atoms: C3_3  and  C5_5 
REMARK       I    between atoms: C5_5  and  N1_7 
REMARK    3  A    between atoms: N1_7  and  C6_8 
REMARK    4  A    between atoms: C10_12  and  C11_13 
REMARK    5  A    between atoms: C11_13  and  N2_14 
REMARK       I    between atoms: N2_14  and  C12_15 
REMARK    6  A    between atoms: C12_15  and  C13_17 
REMARK    7  A    between atoms: C16_20  and  C17_21 
ROOT
ATOM      1  N2  NON d   1     -38.986  18.530  -2.940  0.00  0.00    -0.352 N 
ATOM      2  C12 NON d   1     -38.409  19.747  -2.667  0.00  0.00     0.257 C 
ATOM      3  O2  NON d   1     -37.347  19.953  -3.256  0.00  0.00    -0.267 OA
ATOM      4  H16 NON d   1     -38.445  17.996  -3.607  0.00  0.00     0.163 HD
ENDROOT
BRANCH   1   5
ATOM      5  C11 NON d   1     -40.224  17.998  -2.464  0.00  0.00     0.161 C 
BRANCH   5   6
ATOM      6  C10 NON d   1     -41.488  18.060  -3.281  0.00  0.00    -0.038 A 
ATOM      7  C9  NON d   1     -41.342  18.860  -4.433  0.00  0.00     0.009 A 
ATOM      8  C8  NON d   1     -42.386  19.048  -5.312  0.00  0.00     0.003 A 
ATOM      9  C7  NON d   1     -43.606  18.436  -5.056  0.00  0.00     0.029 A 
ATOM     10  C6  NON d   1     -43.814  17.621  -3.931  0.00  0.00     0.035 A 
ATOM     11  C19 NON d   1     -42.735  17.445  -3.032  0.00  0.00     0.038 A 
BRANCH  10  12
ATOM     12  N1  NON d   1     -45.077  16.976  -3.681  0.00  0.00    -0.327 N 
ATOM     13  C5  NON d   1     -46.063  16.790  -4.632  0.00  0.00     0.226 C 
ATOM     14  O1  NON d   1     -45.944  17.140  -5.811  0.00  0.00    -0.273 OA
ATOM     15  H10 NON d   1     -45.220  16.601  -2.754  0.00  0.00     0.169 HD
BRANCH  13  16
ATOM     16  C3  NON d   1     -47.393  16.082  -4.311  0.00  0.00     0.074 C 
ATOM     17  C4  NON d   1     -48.184  15.384  -5.434  0.00  0.00     0.020 C 
BRANCH  16  18
ATOM     18  C2  NON d   1     -47.932  16.073  -2.869  0.00  0.00     0.009 C 
ATOM     19  C1  NON d   1     -49.443  16.226  -2.610  0.00  0.00     0.006 C 
ENDBRANCH  16  18
ENDBRANCH  13  16
ENDBRANCH  10  12
ENDBRANCH   5   6
ENDBRANCH   1   5
BRANCH   2  20
ATOM     20  C13 NON d   1     -38.998  20.796  -1.733  0.00  0.00     0.100 A 
ATOM     21  C14 NON d   1     -38.642  21.021  -0.450  0.00  0.00     0.025 A 
ATOM     22  C15 NON d   1     -39.267  21.998   0.413  0.00  0.00     0.035 A 
ATOM     23  C16 NON d   1     -40.261  22.772  -0.038  0.00  0.00     0.119 A 
ATOM     24  N3  NON d   1     -40.659  22.600  -1.348  0.00  0.00    -0.319 N 
ATOM     25  C18 NON d   1     -40.120  21.688  -2.234  0.00  0.00     0.261 A 
ATOM     26  H19 NON d   1     -41.421  23.157  -1.724  0.00  0.00     0.169 HD
ATOM     27  O3  NON d   1     -40.576  21.655  -3.373  0.00  0.00    -0.267 OA
BRANCH  23  28
ATOM     28  C17 NON d   1     -40.973  23.789   0.829  0.00  0.00     0.432 C 
ATOM     29  F1  NON d   1     -42.088  24.268   0.221  0.00  0.00    -0.165 F 
ATOM     30  F2  NON d   1     -41.367  23.251   2.011  0.00  0.00    -0.165 F 
ATOM     31  F3  NON d   1     -40.190  24.858   1.121  0.00  0.00    -0.165 F 
ENDBRANCH  23  28
ENDBRANCH   2  20
TORSDOF 7
ENDMDL
MODEL 6
REMARK VINA RESULT:   -11.524      3.437      4.564
REMARK INTER + INTRA:         -14.669
REMARK INTER:                 -13.612
REMARK INTRA:                  -1.057
REMARK CONF_INDEPENDENT:        2.088
REMARK UNBOUND:                -1.057
REMARK  7 active torsions:
REMARK  status: ('A' for Active; 'I' for Inactive)
REMARK    1  A    between atoms: C3_3  and  C2_2 
REMARK    2  A    between atoms: C3_3  and  C5_5 
REMARK       I    between atoms: C5_5  and  N1_7 
REMARK    3  A    between atoms: N1_7  and  C6_8 
REMARK    4  A    between atoms: C10_12  and  C11_13 
REMARK    5  A    between atoms: C11_13  and  N2_14 
REMARK       I    between atoms: N2_14  and  C12_15 
REMARK    6  A    between atoms: C12_15  and  C13_17 
REMARK    7  A    between atoms: C16_20  and  C17_21 
ROOT
ATOM      1  N2  NON d   1     -40.644  19.992  -6.619  0.00  0.00    -0.352 N 
ATOM      2  C12 NON d   1     -39.627  20.451  -5.818  0.00  0.00     0.257 C 
ATOM      3  O2  NON d   1     -38.521  20.480  -6.361  0.00  0.00    -0.267 OA
ATOM      4  H16 NON d   1     -40.320  19.765  -7.550  0.00  0.00     0.163 HD
ENDROOT
BRANCH   1   5
ATOM      5  C11 NON d   1     -42.036  19.872  -6.320  0.00  0.00     0.161 C 
BRANCH   5   6
ATOM      6  C10 NON d   1     -42.557  18.859  -5.334  0.00  0.00    -0.038 A 
ATOM      7  C9  NON d   1     -41.520  18.219  -4.625  0.00  0.00     0.009 A 
ATOM      8  C8  NON d   1     -41.787  17.255  -3.678  0.00  0.00     0.003 A 
ATOM      9  C7  NON d   1     -43.107  16.908  -3.418  0.00  0.00     0.029 A 
ATOM     10  C6  NON d   1     -44.186  17.514  -4.083  0.00  0.00     0.035 A 
ATOM     11  C19 NON d   1     -43.895  18.496  -5.060  0.00  0.00     0.038 A 
BRANCH  10  12
ATOM     12  N1  NON d   1     -45.552  17.161  -3.795  0.00  0.00    -0.327 N 
ATOM     13  C5  NON d   1     -46.389  16.494  -4.670  0.00  0.00     0.226 C 
ATOM     14  O1  NON d   1     -46.033  16.107  -5.788  0.00  0.00    -0.273 OA
ATOM     15  H10 NON d   1     -45.894  17.386  -2.872  0.00  0.00     0.169 HD
BRANCH  13  16
ATOM     16  C3  NON d   1     -47.841  16.132  -4.305  0.00  0.00     0.074 C 
ATOM     17  C4  NON d   1     -48.575  15.021  -5.079  0.00  0.00     0.020 C 
BRANCH  16  18
ATOM     18  C2  NON d   1     -48.558  16.881  -3.167  0.00  0.00     0.009 C 
ATOM     19  C1  NON d   1     -49.689  16.189  -2.383  0.00  0.00     0.006 C 
ENDBRANCH  16  18
ENDBRANCH  13  16
ENDBRANCH  10  12
ENDBRANCH   5   6
ENDBRANCH   1   5
BRANCH   2  20
ATOM     20  C13 NON d   1     -39.798  20.909  -4.375  0.00  0.00     0.100 A 
ATOM     21  C14 NON d   1     -40.332  22.078  -3.961  0.00  0.00     0.025 A 
ATOM     22  C15 NON d   1     -40.427  22.489  -2.578  0.00  0.00     0.035 A 
ATOM     23  C16 NON d   1     -39.986  21.693  -1.596  0.00  0.00     0.119 A 
ATOM     24  N3  NON d   1     -39.444  20.477  -1.957  0.00  0.00    -0.319 N 
ATOM     25  C18 NON d   1     -39.311  20.012  -3.251  0.00  0.00     0.261 A 
ATOM     26  H19 NON d   1     -39.084  19.851  -1.242  0.00  0.00     0.169 HD
ATOM     27  O3  NON d   1     -38.813  18.903  -3.415  0.00  0.00    -0.267 OA
BRANCH  23  28
ATOM     28  C17 NON d   1     -40.031  22.085  -0.135  0.00  0.00     0.432 C 
ATOM     29  F1  NON d   1     -40.192  21.002   0.666  0.00  0.00    -0.165 F 
ATOM     30  F2  NON d   1     -38.886  22.699   0.255  0.00  0.00    -0.165 F 
ATOM     31  F3  NON d   1     -41.052  22.937   0.141  0.00  0.00    -0.165 F 
ENDBRANCH  23  28
ENDBRANCH   2  20
TORSDOF 7
ENDMDL
MODEL 7
REMARK VINA RESULT:   -11.402      4.472      5.585
REMARK INTER + INTRA:         -14.241
REMARK INTER:                 -13.490
REMARK INTRA:                  -0.751
REMARK CONF_INDEPENDENT:        2.088
REMARK UNBOUND:                -0.751
REMARK  7 active torsions:
REMARK  status: ('A' for Active; 'I' for Inactive)
REMARK    1  A    between atoms: C3_3  and  C2_2 
REMARK    2  A    between atoms: C3_3  and  C5_5 
REMARK       I    between atoms: C5_5  and  N1_7 
REMARK    3  A    between atoms: N1_7  and  C6_8 
REMARK    4  A    between atoms: C10_12  and  C11_13 
REMARK    5  A    between atoms: C11_13  and  N2_14 
REMARK       I    between atoms: N2_14  and  C12_15 
REMARK    6  A    between atoms: C12_15  and  C13_17 
REMARK    7  A    between atoms: C16_20  and  C17_21 
ROOT
ATOM      1  N2  NON d   1     -39.203  18.911  -2.519  0.00  0.00    -0.352 N 
ATOM      2  C12 NON d   1     -38.614  20.095  -2.147  0.00  0.00     0.257 C 
ATOM      3  O2  NON d   1     -37.534  20.323  -2.694  0.00  0.00    -0.267 OA
ATOM      4  H16 NON d   1     -38.654  18.415  -3.209  0.00  0.00     0.163 HD
ENDROOT
BRANCH   1   5
ATOM      5  C11 NON d   1     -40.460  18.369  -2.112  0.00  0.00     0.161 C 
BRANCH   5   6
ATOM      6  C10 NON d   1     -41.623  18.245  -3.062  0.00  0.00    -0.038 A 
ATOM      7  C9  NON d   1     -41.348  18.815  -4.322  0.00  0.00     0.009 A 
ATOM      8  C8  NON d   1     -42.285  18.808  -5.332  0.00  0.00     0.003 A 
ATOM      9  C7  NON d   1     -43.526  18.228  -5.101  0.00  0.00     0.029 A 
ATOM     10  C6  NON d   1     -43.860  17.636  -3.872  0.00  0.00     0.035 A 
ATOM     11  C19 NON d   1     -42.890  17.659  -2.841  0.00  0.00     0.038 A 
BRANCH  10  12
ATOM     12  N1  NON d   1     -45.142  17.022  -3.646  0.00  0.00    -0.327 N 
ATOM     13  C5  NON d   1     -46.102  16.833  -4.621  0.00  0.00     0.226 C 
ATOM     14  O1  NON d   1     -45.941  17.154  -5.804  0.00  0.00    -0.273 OA
ATOM     15  H10 NON d   1     -45.320  16.672  -2.715  0.00  0.00     0.169 HD
BRANCH  13  16
ATOM     16  C3  NON d   1     -47.455  16.158  -4.325  0.00  0.00     0.074 C 
ATOM     17  C4  NON d   1     -48.186  15.379  -5.435  0.00  0.00     0.020 C 
BRANCH  16  18
ATOM     18  C2  NON d   1     -48.076  16.262  -2.921  0.00  0.00     0.009 C 
ATOM     19  C1  NON d   1     -49.572  15.958  -2.715  0.00  0.00     0.006 C 
ENDBRANCH  16  18
ENDBRANCH  13  16
ENDBRANCH  10  12
ENDBRANCH   5   6
ENDBRANCH   1   5
BRANCH   2  20
ATOM     20  C13 NON d   1     -39.210  21.086  -1.156  0.00  0.00     0.100 A 
ATOM     21  C14 NON d   1     -40.303  21.856  -1.347  0.00  0.00     0.025 A 
ATOM     22  C15 NON d   1     -40.800  22.820  -0.391  0.00  0.00     0.035 A 
ATOM     23  C16 NON d   1     -40.188  22.996   0.786  0.00  0.00     0.119 A 
ATOM     24  N3  NON d   1     -39.073  22.225   1.045  0.00  0.00    -0.319 N 
ATOM     25  C18 NON d   1     -38.531  21.289   0.187  0.00  0.00     0.261 A 
ATOM     26  H19 NON d   1     -38.571  22.340   1.921  0.00  0.00     0.169 HD
ATOM     27  O3  NON d   1     -37.537  20.675   0.561  0.00  0.00    -0.267 OA
BRANCH  23  28
ATOM     28  C17 NON d   1     -40.646  24.012   1.810  0.00  0.00     0.432 C 
ATOM     29  F1  NON d   1     -41.359  25.012   1.234  0.00  0.00    -0.165 F 
ATOM     30  F2  NON d   1     -41.443  23.449   2.753  0.00  0.00    -0.165 F 
ATOM     31  F3  NON d   1     -39.607  24.592   2.464  0.00  0.00    -0.165 F 
ENDBRANCH  23  28
ENDBRANCH   2  20
TORSDOF 7
ENDMDL
MODEL 8
REMARK VINA RESULT:   -11.181      4.974      9.618
REMARK INTER + INTRA:         -13.914
REMARK INTER:                 -13.269
REMARK INTRA:                  -0.645
REMARK CONF_INDEPENDENT:        2.088
REMARK UNBOUND:                -0.645
REMARK  7 active torsions:
REMARK  status: ('A' for Active; 'I' for Inactive)
REMARK    1  A    between atoms: C3_3  and  C2_2 
REMARK    2  A    between atoms: C3_3  and  C5_5 
REMARK       I    between atoms: C5_5  and  N1_7 
REMARK    3  A    between atoms: N1_7  and  C6_8 
REMARK    4  A    between atoms: C10_12  and  C11_13 
REMARK    5  A    between atoms: C11_13  and  N2_14 
REMARK       I    between atoms: N2_14  and  C12_15 
REMARK    6  A    between atoms: C12_15  and  C13_17 
REMARK    7  A    between atoms: C16_20  and  C17_21 
ROOT
ATOM      1  N2  NON d   1     -44.295  16.657  -4.812  0.00  0.00    -0.352 N 
ATOM      2  C12 NON d   1     -45.537  16.177  -5.150  0.00  0.00     0.257 C 
ATOM      3  O2  NON d   1     -45.565  15.518  -6.191  0.00  0.00    -0.267 OA
ATOM      4  H16 NON d   1     -43.586  16.373  -5.475  0.00  0.00     0.163 HD
ENDROOT
BRANCH   1   5
ATOM      5  C11 NON d   1     -43.908  17.413  -3.663  0.00  0.00     0.161 C 
BRANCH   5   6
ATOM      6  C10 NON d   1     -42.695  18.306  -3.663  0.00  0.00    -0.038 A 
ATOM      7  C9  NON d   1     -42.457  18.884  -4.927  0.00  0.00     0.009 A 
ATOM      8  C8  NON d   1     -41.391  19.731  -5.139  0.00  0.00     0.003 A 
ATOM      9  C7  NON d   1     -40.535  20.019  -4.084  0.00  0.00     0.029 A 
ATOM     10  C6  NON d   1     -40.722  19.484  -2.799  0.00  0.00     0.035 A 
ATOM     11  C19 NON d   1     -41.816  18.607  -2.599  0.00  0.00     0.038 A 
BRANCH  10  12
ATOM     12  N1  NON d   1     -39.840  19.801  -1.705  0.00  0.00    -0.327 N 
ATOM     13  C5  NON d   1     -39.717  21.055  -1.138  0.00  0.00     0.226 C 
ATOM     14  O1  NON d   1     -40.381  22.032  -1.501  0.00  0.00    -0.273 OA
ATOM     15  H10 NON d   1     -39.313  19.035  -1.310  0.00  0.00     0.169 HD
BRANCH  13  16
ATOM     16  C3  NON d   1     -38.765  21.336   0.040  0.00  0.00     0.074 C 
ATOM     17  C4  NON d   1     -37.320  20.804   0.005  0.00  0.00     0.020 C 
BRANCH  16  18
ATOM     18  C2  NON d   1     -39.257  22.149   1.251  0.00  0.00     0.009 C 
ATOM     19  C1  NON d   1     -38.528  23.444   1.657  0.00  0.00     0.006 C 
ENDBRANCH  16  18
ENDBRANCH  13  16
ENDBRANCH  10  12
ENDBRANCH   5   6
ENDBRANCH   1   5
BRANCH   2  20
ATOM     20  C13 NON d   1     -46.804  16.400  -4.335  0.00  0.00     0.100 A 
ATOM     21  C14 NON d   1     -46.872  16.804  -3.048  0.00  0.00     0.025 A 
ATOM     22  C15 NON d   1     -48.102  16.953  -2.302  0.00  0.00     0.035 A 
ATOM     23  C16 NON d   1     -49.285  16.704  -2.876  0.00  0.00     0.119 A 
ATOM     24  N3  NON d   1     -49.280  16.302  -4.196  0.00  0.00    -0.319 N 
ATOM     25  C18 NON d   1     -48.153  16.130  -4.976  0.00  0.00     0.261 A 
ATOM     26  H19 NON d   1     -50.157  16.088  -4.663  0.00  0.00     0.169 HD
ATOM     27  O3  NON d   1     -48.310  15.774  -6.140  0.00  0.00    -0.267 OA
BRANCH  23  28
ATOM     28  C17 NON d   1     -50.600  16.813  -2.135  0.00  0.00     0.432 C 
ATOM     29  F1  NON d   1     -51.449  17.672  -2.751  0.00  0.00    -0.165 F 
ATOM     30  F2  NON d   1     -51.234  15.615  -2.060  0.00  0.00    -0.165 F 
ATOM     31  F3  NON d   1     -50.441  17.257  -0.862  0.00  0.00    -0.165 F 
ENDBRANCH  23  28
ENDBRANCH   2  20
TORSDOF 7
ENDMDL
MODEL 9
REMARK VINA RESULT:   -10.797      3.166      4.221
REMARK INTER + INTRA:         -13.892
REMARK INTER:                 -12.885
REMARK INTRA:                  -1.007
REMARK CONF_INDEPENDENT:        2.088
REMARK UNBOUND:                -1.007
REMARK  7 active torsions:
REMARK  status: ('A' for Active; 'I' for Inactive)
REMARK    1  A    between atoms: C3_3  and  C2_2 
REMARK    2  A    between atoms: C3_3  and  C5_5 
REMARK       I    between atoms: C5_5  and  N1_7 
REMARK    3  A    between atoms: N1_7  and  C6_8 
REMARK    4  A    between atoms: C10_12  and  C11_13 
REMARK    5  A    between atoms: C11_13  and  N2_14 
REMARK       I    between atoms: N2_14  and  C12_15 
REMARK    6  A    between atoms: C12_15  and  C13_17 
REMARK    7  A    between atoms: C16_20  and  C17_21 
ROOT
ATOM      1  N2  NON d   1     -41.015  21.097  -6.043  0.00  0.00    -0.352 N 
ATOM      2  C12 NON d   1     -39.994  21.390  -5.172  0.00  0.00     0.257 C 
ATOM      3  O2  NON d   1     -39.769  22.594  -5.034  0.00  0.00    -0.267 OA
ATOM      4  H16 NON d   1     -41.440  21.931  -6.424  0.00  0.00     0.163 HD
ENDROOT
BRANCH   1   5
ATOM      5  C11 NON d   1     -41.554  19.821  -6.395  0.00  0.00     0.161 C 
BRANCH   5   6
ATOM      6  C10 NON d   1     -42.189  18.911  -5.376  0.00  0.00    -0.038 A 
ATOM      7  C9  NON d   1     -41.235  18.307  -4.531  0.00  0.00     0.009 A 
ATOM      8  C8  NON d   1     -41.612  17.436  -3.532  0.00  0.00     0.003 A 
ATOM      9  C7  NON d   1     -42.960  17.148  -3.357  0.00  0.00     0.029 A 
ATOM     10  C6  NON d   1     -43.960  17.724  -4.159  0.00  0.00     0.035 A 
ATOM     11  C19 NON d   1     -43.556  18.610  -5.186  0.00  0.00     0.038 A 
BRANCH  10  12
ATOM     12  N1  NON d   1     -45.356  17.435  -3.959  0.00  0.00    -0.327 N 
ATOM     13  C5  NON d   1     -46.122  16.653  -4.803  0.00  0.00     0.226 C 
ATOM     14  O1  NON d   1     -45.670  16.097  -5.810  0.00  0.00    -0.273 OA
ATOM     15  H10 NON d   1     -45.780  17.801  -3.118  0.00  0.00     0.169 HD
BRANCH  13  16
ATOM     16  C3  NON d   1     -47.612  16.367  -4.535  0.00  0.00     0.074 C 
ATOM     17  C4  NON d   1     -48.380  15.379  -5.431  0.00  0.00     0.020 C 
BRANCH  16  18
ATOM     18  C2  NON d   1     -48.332  17.070  -3.370  0.00  0.00     0.009 C 
ATOM     19  C1  NON d   1     -48.217  16.507  -1.941  0.00  0.00     0.006 C 
ENDBRANCH  16  18
ENDBRANCH  13  16
ENDBRANCH  10  12
ENDBRANCH   5   6
ENDBRANCH   1   5
BRANCH   2  20
ATOM     20  C13 NON d   1     -39.182  20.354  -4.406  0.00  0.00     0.100 A 
ATOM     21  C14 NON d   1     -38.269  19.504  -4.925  0.00  0.00     0.025 A 
ATOM     22  C15 NON d   1     -37.559  18.502  -4.161  0.00  0.00     0.035 A 
ATOM     23  C16 NON d   1     -37.767  18.369  -2.846  0.00  0.00     0.119 A 
ATOM     24  N3  NON d   1     -38.678  19.221  -2.256  0.00  0.00    -0.319 N 
ATOM     25  C18 NON d   1     -39.400  20.199  -2.912  0.00  0.00     0.261 A 
ATOM     26  H19 NON d   1     -38.876  19.142  -1.263  0.00  0.00     0.169 HD
ATOM     27  O3  NON d   1     -40.171  20.885  -2.249  0.00  0.00    -0.267 OA
BRANCH  23  28
ATOM     28  C17 NON d   1     -37.077  17.318  -2.004  0.00  0.00     0.432 C 
ATOM     29  F1  NON d   1     -36.287  16.514  -2.760  0.00  0.00    -0.165 F 
ATOM     30  F2  NON d   1     -36.281  17.877  -1.057  0.00  0.00    -0.165 F 
ATOM     31  F3  NON d   1     -37.957  16.512  -1.358  0.00  0.00    -0.165 F 
ENDBRANCH  23  28
ENDBRANCH   2  20
TORSDOF 7
ENDMDL
