MODEL 1
REMARK VINA RESULT:   -30.265      0.000      0.000
REMARK INTER + INTRA:         -33.445
REMARK INTER:                 -32.651
REMARK INTRA:                  -0.793
REMARK CONF_INDEPENDENT:        2.386
REMARK UNBOUND:                -0.793
REMARK  8 active torsions:
REMARK  status: ('A' for Active; 'I' for Inactive)
REMARK    1  A    between atoms: C2_2  and  S1_3 
REMARK    2  A    between atoms: C2_2  and  C14_17 
REMARK    3  A    between atoms: S1_3  and  C3_4 
REMARK    4  A    between atoms: C3_4  and  C4_5 
REMARK       I    between atoms: C4_5  and  N1_7 
REMARK    5  A    between atoms: N1_7  and  C5_8 
REMARK    6  A    between atoms: C5_8  and  C6_9 
REMARK    7  A    between atoms: C6_9  and  C7_10 
REMARK    8  A    between atoms: C7_10  and  C8_11 
ROOT
ATOM      1  C3  NON d   1     -42.856  16.971  -3.454  0.00  0.00     0.177 C 
ENDROOT
BRANCH   1   2
ATOM      2  S1  NON d   1     -43.537  16.438  -5.061  0.00  0.00    -0.148 SA
BRANCH   2   3
ATOM      3  C2  NON d   1     -44.929  17.692  -5.425  0.00  0.00     0.113 C 
ATOM      4  C1  NON d   1     -44.531  19.141  -5.085  0.00  0.00     0.029 C 
BRANCH   3   5
ATOM      5  C14 NON d   1     -46.176  17.156  -4.785  0.00  0.00     0.118 A 
ATOM      6  N2  NON d   1     -46.504  17.257  -3.454  0.00  0.00    -0.342 N 
ATOM      7  C15 NON d   1     -47.686  16.585  -3.248  0.00  0.00     0.062 A 
ATOM      8  H19 NON d   1     -45.959  17.717  -2.741  0.00  0.00     0.167 HD
ATOM      9  C16 NON d   1     -48.458  16.345  -2.109  0.00  0.00     0.032 A 
ATOM     10  C20 NON d   1     -48.035  16.108  -4.506  0.00  0.00     0.085 A 
ATOM     11  C17 NON d   1     -49.612  15.564  -2.282  0.00  0.00     0.002 A 
ATOM     12  C18 NON d   1     -49.969  15.056  -3.533  0.00  0.00     0.002 A 
ATOM     13  C19 NON d   1     -49.187  15.328  -4.661  0.00  0.00     0.034 A 
ATOM     14  N3  NON d   1     -47.122  16.505  -5.440  0.00  0.00    -0.232 NA
ENDBRANCH   3   5
ENDBRANCH   2   3
ENDBRANCH   1   2
BRANCH   1  15
ATOM     15  C4  NON d   1     -41.617  17.852  -3.592  0.00  0.00     0.226 C 
ATOM     16  O1  NON d   1     -41.021  17.987  -4.658  0.00  0.00    -0.273 OA
ATOM     17  N1  NON d   1     -41.284  18.572  -2.448  0.00  0.00    -0.360 N 
ATOM     18  H7  NON d   1     -41.545  18.164  -1.559  0.00  0.00     0.162 HD
BRANCH  17  19
ATOM     19  C5  NON d   1     -40.161  19.495  -2.467  0.00  0.00     0.123 C 
BRANCH  19  20
ATOM     20  C6  NON d   1     -40.384  20.733  -3.344  0.00  0.00     0.024 C 
BRANCH  20  21
ATOM     21  C7  NON d   1     -39.749  22.010  -2.773  0.00  0.00     0.040 C 
BRANCH  21  22
ATOM     22  C8  NON d   1     -40.231  22.466  -1.407  0.00  0.00    -0.058 A 
ATOM     23  C9  NON d   1     -40.740  23.772  -1.285  0.00  0.00     0.007 A 
ATOM     24  C10 NON d   1     -41.181  24.268  -0.057  0.00  0.00     0.001 A 
ATOM     25  C11 NON d   1     -41.115  23.469   1.080  0.00  0.00     0.000 A 
ATOM     26  C12 NON d   1     -40.603  22.178   0.984  0.00  0.00     0.001 A 
ATOM     27  C13 NON d   1     -40.165  21.679  -0.249  0.00  0.00     0.007 A 
ENDBRANCH  21  22
ENDBRANCH  20  21
ENDBRANCH  19  20
ENDBRANCH  17  19
ENDBRANCH   1  15
TORSDOF 8
ENDMDL
MODEL 2
REMARK VINA RESULT:   -30.166      3.212      4.853
REMARK INTER + INTRA:         -33.550
REMARK INTER:                 -32.552
REMARK INTRA:                  -0.998
REMARK CONF_INDEPENDENT:        2.386
REMARK UNBOUND:                -0.998
REMARK  8 active torsions:
REMARK  status: ('A' for Active; 'I' for Inactive)
REMARK    1  A    between atoms: C2_2  and  S1_3 
REMARK    2  A    between atoms: C2_2  and  C14_17 
REMARK    3  A    between atoms: S1_3  and  C3_4 
REMARK    4  A    between atoms: C3_4  and  C4_5 
REMARK       I    between atoms: C4_5  and  N1_7 
REMARK    5  A    between atoms: N1_7  and  C5_8 
REMARK    6  A    between atoms: C5_8  and  C6_9 
REMARK    7  A    between atoms: C6_9  and  C7_10 
REMARK    8  A    between atoms: C7_10  and  C8_11 
ROOT
ATOM      1  C3  NON d   1     -42.973  16.987  -3.300  0.00  0.00     0.177 C 
ENDROOT
BRANCH   1   2
ATOM      2  S1  NON d   1     -43.547  16.465  -4.952  0.00  0.00    -0.148 SA
BRANCH   2   3
ATOM      3  C2  NON d   1     -44.946  17.691  -5.378  0.00  0.00     0.113 C 
ATOM      4  C1  NON d   1     -44.578  19.152  -5.054  0.00  0.00     0.029 C 
BRANCH   3   5
ATOM      5  C14 NON d   1     -46.202  17.150  -4.760  0.00  0.00     0.118 A 
ATOM      6  N2  NON d   1     -46.550  17.239  -3.433  0.00  0.00    -0.342 N 
ATOM      7  C15 NON d   1     -47.735  16.565  -3.250  0.00  0.00     0.062 A 
ATOM      8  H19 NON d   1     -46.015  17.692  -2.708  0.00  0.00     0.167 HD
ATOM      9  C16 NON d   1     -48.523  16.314  -2.125  0.00  0.00     0.032 A 
ATOM     10  C20 NON d   1     -48.065  16.099  -4.517  0.00  0.00     0.085 A 
ATOM     11  C17 NON d   1     -49.674  15.534  -2.322  0.00  0.00     0.002 A 
ATOM     12  C18 NON d   1     -50.013  15.038  -3.583  0.00  0.00     0.002 A 
ATOM     13  C19 NON d   1     -49.215  15.320  -4.697  0.00  0.00     0.034 A 
ATOM     14  N3  NON d   1     -47.139  16.505  -5.435  0.00  0.00    -0.232 NA
ENDBRANCH   3   5
ENDBRANCH   2   3
ENDBRANCH   1   2
BRANCH   1  15
ATOM     15  C4  NON d   1     -41.633  17.716  -3.335  0.00  0.00     0.226 C 
ATOM     16  O1  NON d   1     -40.739  17.489  -2.524  0.00  0.00    -0.273 OA
ATOM     17  N1  NON d   1     -41.465  18.572  -4.420  0.00  0.00    -0.360 N 
ATOM     18  H7  NON d   1     -42.302  18.988  -4.808  0.00  0.00     0.162 HD
BRANCH  17  19
ATOM     19  C5  NON d   1     -40.208  19.281  -4.602  0.00  0.00     0.123 C 
BRANCH  19  20
ATOM     20  C6  NON d   1     -39.409  18.831  -5.831  0.00  0.00     0.024 C 
BRANCH  20  21
ATOM     21  C7  NON d   1     -40.162  19.024  -7.156  0.00  0.00     0.040 C 
BRANCH  21  22
ATOM     22  C8  NON d   1     -39.580  20.025  -8.138  0.00  0.00    -0.058 A 
ATOM     23  C9  NON d   1     -40.303  21.206  -8.389  0.00  0.00     0.007 A 
ATOM     24  C10 NON d   1     -39.841  22.161  -9.295  0.00  0.00     0.001 A 
ATOM     25  C11 NON d   1     -38.647  21.953  -9.979  0.00  0.00     0.000 A 
ATOM     26  C12 NON d   1     -37.922  20.786  -9.755  0.00  0.00     0.001 A 
ATOM     27  C13 NON d   1     -38.383  19.829  -8.842  0.00  0.00     0.007 A 
ENDBRANCH  21  22
ENDBRANCH  20  21
ENDBRANCH  19  20
ENDBRANCH  17  19
ENDBRANCH   1  15
TORSDOF 8
ENDMDL
MODEL 3
REMARK VINA RESULT:   -30.104      3.015      4.796
REMARK INTER + INTRA:         -33.600
REMARK INTER:                 -32.491
REMARK INTRA:                  -1.109
REMARK CONF_INDEPENDENT:        2.386
REMARK UNBOUND:                -1.109
REMARK  8 active torsions:
REMARK  status: ('A' for Active; 'I' for Inactive)
REMARK    1  A    between atoms: C2_2  and  S1_3 
REMARK    2  A    between atoms: C2_2  and  C14_17 
REMARK    3  A    between atoms: S1_3  and  C3_4 
REMARK    4  A    between atoms: C3_4  and  C4_5 
REMARK       I    between atoms: C4_5  and  N1_7 
REMARK    5  A    between atoms: N1_7  and  C5_8 
REMARK    6  A    between atoms: C5_8  and  C6_9 
REMARK    7  A    between atoms: C6_9  and  C7_10 
REMARK    8  A    between atoms: C7_10  and  C8_11 
ROOT
ATOM      1  C3  NON d   1     -43.103  16.912  -3.301  0.00  0.00     0.177 C 
ENDROOT
BRANCH   1   2
ATOM      2  S1  NON d   1     -43.643  16.471  -4.988  0.00  0.00    -0.148 SA
BRANCH   2   3
ATOM      3  C2  NON d   1     -45.054  17.698  -5.370  0.00  0.00     0.113 C 
ATOM      4  C1  NON d   1     -44.693  19.153  -5.016  0.00  0.00     0.029 C 
BRANCH   3   5
ATOM      5  C14 NON d   1     -46.301  17.132  -4.754  0.00  0.00     0.118 A 
ATOM      6  N2  NON d   1     -46.631  17.180  -3.421  0.00  0.00    -0.342 N 
ATOM      7  C15 NON d   1     -47.811  16.495  -3.243  0.00  0.00     0.062 A 
ATOM      8  H19 NON d   1     -46.089  17.613  -2.689  0.00  0.00     0.167 HD
ATOM      9  C16 NON d   1     -48.584  16.207  -2.116  0.00  0.00     0.032 A 
ATOM     10  C20 NON d   1     -48.156  16.067  -4.519  0.00  0.00     0.085 A 
ATOM     11  C17 NON d   1     -49.734  15.429  -2.321  0.00  0.00     0.002 A 
ATOM     12  C18 NON d   1     -50.087  14.970  -3.593  0.00  0.00     0.002 A 
ATOM     13  C19 NON d   1     -49.305  15.289  -4.708  0.00  0.00     0.034 A 
ATOM     14  N3  NON d   1     -47.243  16.504  -5.436  0.00  0.00    -0.232 NA
ENDBRANCH   3   5
ENDBRANCH   2   3
ENDBRANCH   1   2
BRANCH   1  15
ATOM     15  C4  NON d   1     -42.004  17.972  -3.283  0.00  0.00     0.226 C 
ATOM     16  O1  NON d   1     -41.352  18.225  -2.273  0.00  0.00    -0.273 OA
ATOM     17  N1  NON d   1     -41.727  18.545  -4.521  0.00  0.00    -0.360 N 
ATOM     18  H7  NON d   1     -42.489  18.587  -5.186  0.00  0.00     0.162 HD
BRANCH  17  19
ATOM     19  C5  NON d   1     -40.659  19.524  -4.649  0.00  0.00     0.123 C 
BRANCH  19  20
ATOM     20  C6  NON d   1     -41.050  20.775  -5.445  0.00  0.00     0.024 C 
BRANCH  20  21
ATOM     21  C7  NON d   1     -41.170  20.527  -6.956  0.00  0.00     0.040 C 
BRANCH  21  22
ATOM     22  C8  NON d   1     -39.911  20.090  -7.684  0.00  0.00    -0.058 A 
ATOM     23  C9  NON d   1     -39.514  18.745  -7.573  0.00  0.00     0.007 A 
ATOM     24  C10 NON d   1     -38.356  18.277  -8.196  0.00  0.00     0.001 A 
ATOM     25  C11 NON d   1     -37.564  19.146  -8.939  0.00  0.00     0.000 A 
ATOM     26  C12 NON d   1     -37.933  20.484  -9.052  0.00  0.00     0.001 A 
ATOM     27  C13 NON d   1     -39.097  20.954  -8.430  0.00  0.00     0.007 A 
ENDBRANCH  21  22
ENDBRANCH  20  21
ENDBRANCH  19  20
ENDBRANCH  17  19
ENDBRANCH   1  15
TORSDOF 8
ENDMDL
MODEL 4
REMARK VINA RESULT:   -29.878      1.633      3.408
REMARK INTER + INTRA:         -33.764
REMARK INTER:                 -32.264
REMARK INTRA:                  -1.500
REMARK CONF_INDEPENDENT:        2.386
REMARK UNBOUND:                -1.500
REMARK  8 active torsions:
REMARK  status: ('A' for Active; 'I' for Inactive)
REMARK    1  A    between atoms: C2_2  and  S1_3 
REMARK    2  A    between atoms: C2_2  and  C14_17 
REMARK    3  A    between atoms: S1_3  and  C3_4 
REMARK    4  A    between atoms: C3_4  and  C4_5 
REMARK       I    between atoms: C4_5  and  N1_7 
REMARK    5  A    between atoms: N1_7  and  C5_8 
REMARK    6  A    between atoms: C5_8  and  C6_9 
REMARK    7  A    between atoms: C6_9  and  C7_10 
REMARK    8  A    between atoms: C7_10  and  C8_11 
ROOT
ATOM      1  C3  NON d   1     -42.986  17.441  -3.180  0.00  0.00     0.177 C 
ENDROOT
BRANCH   1   2
ATOM      2  S1  NON d   1     -43.438  16.618  -4.745  0.00  0.00    -0.148 SA
BRANCH   2   3
ATOM      3  C2  NON d   1     -44.882  17.660  -5.431  0.00  0.00     0.113 C 
ATOM      4  C1  NON d   1     -44.620  19.176  -5.337  0.00  0.00     0.029 C 
BRANCH   3   5
ATOM      5  C14 NON d   1     -46.136  17.142  -4.789  0.00  0.00     0.118 A 
ATOM      6  N2  NON d   1     -46.461  17.247  -3.458  0.00  0.00    -0.342 N 
ATOM      7  C15 NON d   1     -47.652  16.592  -3.250  0.00  0.00     0.062 A 
ATOM      8  H19 NON d   1     -45.909  17.699  -2.745  0.00  0.00     0.167 HD
ATOM      9  C16 NON d   1     -48.426  16.362  -2.111  0.00  0.00     0.032 A 
ATOM     10  C20 NON d   1     -48.009  16.120  -4.508  0.00  0.00     0.085 A 
ATOM     11  C17 NON d   1     -49.591  15.596  -2.283  0.00  0.00     0.002 A 
ATOM     12  C18 NON d   1     -49.956  15.094  -3.534  0.00  0.00     0.002 A 
ATOM     13  C19 NON d   1     -49.172  15.355  -4.663  0.00  0.00     0.034 A 
ATOM     14  N3  NON d   1     -47.092  16.504  -5.444  0.00  0.00    -0.232 NA
ENDBRANCH   3   5
ENDBRANCH   2   3
ENDBRANCH   1   2
BRANCH   1  15
ATOM     15  C4  NON d   1     -41.535  17.913  -3.150  0.00  0.00     0.226 C 
ATOM     16  O1  NON d   1     -40.717  17.582  -4.005  0.00  0.00    -0.273 OA
ATOM     17  N1  NON d   1     -41.243  18.832  -2.146  0.00  0.00    -0.360 N 
ATOM     18  H7  NON d   1     -41.798  18.778  -1.301  0.00  0.00     0.162 HD
BRANCH  17  19
ATOM     19  C5  NON d   1     -39.910  19.406  -2.047  0.00  0.00     0.123 C 
BRANCH  19  20
ATOM     20  C6  NON d   1     -39.883  20.937  -2.107  0.00  0.00     0.024 C 
BRANCH  20  21
ATOM     21  C7  NON d   1     -40.343  21.506  -3.457  0.00  0.00     0.040 C 
BRANCH  21  22
ATOM     22  C8  NON d   1     -40.125  20.634  -4.682  0.00  0.00    -0.058 A 
ATOM     23  C9  NON d   1     -41.231  20.363  -5.508  0.00  0.00     0.007 A 
ATOM     24  C10 NON d   1     -41.111  19.552  -6.637  0.00  0.00     0.001 A 
ATOM     25  C11 NON d   1     -39.882  18.987  -6.962  0.00  0.00     0.000 A 
ATOM     26  C12 NON d   1     -38.778  19.233  -6.151  0.00  0.00     0.001 A 
ATOM     27  C13 NON d   1     -38.896  20.050  -5.020  0.00  0.00     0.007 A 
ENDBRANCH  21  22
ENDBRANCH  20  21
ENDBRANCH  19  20
ENDBRANCH  17  19
ENDBRANCH   1  15
TORSDOF 8
ENDMDL
MODEL 5
REMARK VINA RESULT:   -29.481      1.565      2.229
REMARK INTER + INTRA:         -33.152
REMARK INTER:                 -31.867
REMARK INTRA:                  -1.285
REMARK CONF_INDEPENDENT:        2.386
REMARK UNBOUND:                -1.285
REMARK  8 active torsions:
REMARK  status: ('A' for Active; 'I' for Inactive)
REMARK    1  A    between atoms: C2_2  and  S1_3 
REMARK    2  A    between atoms: C2_2  and  C14_17 
REMARK    3  A    between atoms: S1_3  and  C3_4 
REMARK    4  A    between atoms: C3_4  and  C4_5 
REMARK       I    between atoms: C4_5  and  N1_7 
REMARK    5  A    between atoms: N1_7  and  C5_8 
REMARK    6  A    between atoms: C5_8  and  C6_9 
REMARK    7  A    between atoms: C6_9  and  C7_10 
REMARK    8  A    between atoms: C7_10  and  C8_11 
ROOT
ATOM      1  C3  NON d   1     -42.494  17.382  -3.651  0.00  0.00     0.177 C 
ENDROOT
BRANCH   1   2
ATOM      2  S1  NON d   1     -43.491  16.413  -4.833  0.00  0.00    -0.148 SA
BRANCH   2   3
ATOM      3  C2  NON d   1     -44.875  17.608  -5.378  0.00  0.00     0.113 C 
ATOM      4  C1  NON d   1     -44.514  19.087  -5.142  0.00  0.00     0.029 C 
BRANCH   3   5
ATOM      5  C14 NON d   1     -46.149  17.108  -4.761  0.00  0.00     0.118 A 
ATOM      6  N2  NON d   1     -46.488  17.198  -3.432  0.00  0.00    -0.342 N 
ATOM      7  C15 NON d   1     -47.697  16.567  -3.250  0.00  0.00     0.062 A 
ATOM      8  H19 NON d   1     -45.934  17.623  -2.704  0.00  0.00     0.167 HD
ATOM      9  C16 NON d   1     -48.491  16.335  -2.124  0.00  0.00     0.032 A 
ATOM     10  C20 NON d   1     -48.049  16.126  -4.521  0.00  0.00     0.085 A 
ATOM     11  C17 NON d   1     -49.671  15.601  -2.324  0.00  0.00     0.002 A 
ATOM     12  C18 NON d   1     -50.032  15.131  -3.589  0.00  0.00     0.002 A 
ATOM     13  C19 NON d   1     -49.228  15.393  -4.703  0.00  0.00     0.034 A 
ATOM     14  N3  NON d   1     -47.112  16.506  -5.438  0.00  0.00    -0.232 NA
ENDBRANCH   3   5
ENDBRANCH   2   3
ENDBRANCH   1   2
BRANCH   1  15
ATOM     15  C4  NON d   1     -41.535  18.354  -4.334  0.00  0.00     0.226 C 
ATOM     16  O1  NON d   1     -41.003  19.284  -3.733  0.00  0.00    -0.273 OA
ATOM     17  N1  NON d   1     -41.229  18.039  -5.655  0.00  0.00    -0.360 N 
ATOM     18  H7  NON d   1     -41.933  17.537  -6.180  0.00  0.00     0.162 HD
BRANCH  17  19
ATOM     19  C5  NON d   1     -40.280  18.852  -6.398  0.00  0.00     0.123 C 
BRANCH  19  20
ATOM     20  C6  NON d   1     -40.723  20.307  -6.596  0.00  0.00     0.024 C 
BRANCH  20  21
ATOM     21  C7  NON d   1     -39.680  21.334  -6.133  0.00  0.00     0.040 C 
BRANCH  21  22
ATOM     22  C8  NON d   1     -39.709  21.732  -4.667  0.00  0.00    -0.058 A 
ATOM     23  C9  NON d   1     -40.656  22.690  -4.259  0.00  0.00     0.007 A 
ATOM     24  C10 NON d   1     -40.727  23.120  -2.933  0.00  0.00     0.001 A 
ATOM     25  C11 NON d   1     -39.846  22.607  -1.986  0.00  0.00     0.000 A 
ATOM     26  C12 NON d   1     -38.894  21.667  -2.372  0.00  0.00     0.001 A 
ATOM     27  C13 NON d   1     -38.825  21.232  -3.701  0.00  0.00     0.007 A 
ENDBRANCH  21  22
ENDBRANCH  20  21
ENDBRANCH  19  20
ENDBRANCH  17  19
ENDBRANCH   1  15
TORSDOF 8
ENDMDL
MODEL 6
REMARK VINA RESULT:   -28.915      1.250      1.939
REMARK INTER + INTRA:         -32.242
REMARK INTER:                 -31.302
REMARK INTRA:                  -0.940
REMARK CONF_INDEPENDENT:        2.386
REMARK UNBOUND:                -0.940
REMARK  8 active torsions:
REMARK  status: ('A' for Active; 'I' for Inactive)
REMARK    1  A    between atoms: C2_2  and  S1_3 
REMARK    2  A    between atoms: C2_2  and  C14_17 
REMARK    3  A    between atoms: S1_3  and  C3_4 
REMARK    4  A    between atoms: C3_4  and  C4_5 
REMARK       I    between atoms: C4_5  and  N1_7 
REMARK    5  A    between atoms: N1_7  and  C5_8 
REMARK    6  A    between atoms: C5_8  and  C6_9 
REMARK    7  A    between atoms: C6_9  and  C7_10 
REMARK    8  A    between atoms: C7_10  and  C8_11 
ROOT
ATOM      1  C3  NON d   1     -41.952  17.295  -5.355  0.00  0.00     0.177 C 
ENDROOT
BRANCH   1   2
ATOM      2  S1  NON d   1     -43.464  16.559  -4.647  0.00  0.00    -0.148 SA
BRANCH   2   3
ATOM      3  C2  NON d   1     -44.879  17.659  -5.303  0.00  0.00     0.113 C 
ATOM      4  C1  NON d   1     -44.605  19.162  -5.110  0.00  0.00     0.029 C 
BRANCH   3   5
ATOM      5  C14 NON d   1     -46.155  17.117  -4.726  0.00  0.00     0.118 A 
ATOM      6  N2  NON d   1     -46.523  17.167  -3.403  0.00  0.00    -0.342 N 
ATOM      7  C15 NON d   1     -47.722  16.506  -3.263  0.00  0.00     0.062 A 
ATOM      8  H19 NON d   1     -45.995  17.586  -2.653  0.00  0.00     0.167 HD
ATOM      9  C16 NON d   1     -48.534  16.230  -2.160  0.00  0.00     0.032 A 
ATOM     10  C20 NON d   1     -48.037  16.089  -4.550  0.00  0.00     0.085 A 
ATOM     11  C17 NON d   1     -49.693  15.476  -2.403  0.00  0.00     0.002 A 
ATOM     12  C18 NON d   1     -50.017  15.029  -3.685  0.00  0.00     0.002 A 
ATOM     13  C19 NON d   1     -49.196  15.336  -4.776  0.00  0.00     0.034 A 
ATOM     14  N3  NON d   1     -47.089  16.511  -5.438  0.00  0.00    -0.232 NA
ENDBRANCH   3   5
ENDBRANCH   2   3
ENDBRANCH   1   2
BRANCH   1  15
ATOM     15  C4  NON d   1     -41.128  18.071  -4.330  0.00  0.00     0.226 C 
ATOM     16  O1  NON d   1     -40.829  19.252  -4.485  0.00  0.00    -0.273 OA
ATOM     17  N1  NON d   1     -40.840  17.368  -3.163  0.00  0.00    -0.360 N 
ATOM     18  H7  NON d   1     -40.773  16.361  -3.241  0.00  0.00     0.162 HD
BRANCH  17  19
ATOM     19  C5  NON d   1     -40.113  18.016  -2.083  0.00  0.00     0.123 C 
BRANCH  19  20
ATOM     20  C6  NON d   1     -40.635  19.412  -1.727  0.00  0.00     0.024 C 
BRANCH  20  21
ATOM     21  C7  NON d   1     -39.571  20.513  -1.844  0.00  0.00     0.040 C 
BRANCH  21  22
ATOM     22  C8  NON d   1     -39.991  21.809  -2.516  0.00  0.00    -0.058 A 
ATOM     23  C9  NON d   1     -40.256  22.924  -1.700  0.00  0.00     0.007 A 
ATOM     24  C10 NON d   1     -40.668  24.140  -2.245  0.00  0.00     0.001 A 
ATOM     25  C11 NON d   1     -40.832  24.267  -3.621  0.00  0.00     0.000 A 
ATOM     26  C12 NON d   1     -40.586  23.173  -4.446  0.00  0.00     0.001 A 
ATOM     27  C13 NON d   1     -40.169  21.953  -3.899  0.00  0.00     0.007 A 
ENDBRANCH  21  22
ENDBRANCH  20  21
ENDBRANCH  19  20
ENDBRANCH  17  19
ENDBRANCH   1  15
TORSDOF 8
ENDMDL
MODEL 7
REMARK VINA RESULT:   -27.339      1.965      3.497
REMARK INTER + INTRA:         -31.041
REMARK INTER:                 -29.726
REMARK INTRA:                  -1.315
REMARK CONF_INDEPENDENT:        2.386
REMARK UNBOUND:                -1.315
REMARK  8 active torsions:
REMARK  status: ('A' for Active; 'I' for Inactive)
REMARK    1  A    between atoms: C2_2  and  S1_3 
REMARK    2  A    between atoms: C2_2  and  C14_17 
REMARK    3  A    between atoms: S1_3  and  C3_4 
REMARK    4  A    between atoms: C3_4  and  C4_5 
REMARK       I    between atoms: C4_5  and  N1_7 
REMARK    5  A    between atoms: N1_7  and  C5_8 
REMARK    6  A    between atoms: C5_8  and  C6_9 
REMARK    7  A    between atoms: C6_9  and  C7_10 
REMARK    8  A    between atoms: C7_10  and  C8_11 
ROOT
ATOM      1  C3  NON d   1     -42.034  17.254  -5.368  0.00  0.00     0.177 C 
ENDROOT
BRANCH   1   2
ATOM      2  S1  NON d   1     -43.489  17.050  -4.285  0.00  0.00    -0.148 SA
BRANCH   2   3
ATOM      3  C2  NON d   1     -44.933  17.797  -5.284  0.00  0.00     0.113 C 
ATOM      4  C1  NON d   1     -44.856  19.332  -5.388  0.00  0.00     0.029 C 
BRANCH   3   5
ATOM      5  C14 NON d   1     -46.197  17.212  -4.725  0.00  0.00     0.118 A 
ATOM      6  N2  NON d   1     -46.625  17.316  -3.423  0.00  0.00    -0.342 N 
ATOM      7  C15 NON d   1     -47.786  16.591  -3.290  0.00  0.00     0.062 A 
ATOM      8  H19 NON d   1     -46.155  17.811  -2.681  0.00  0.00     0.167 HD
ATOM      9  C16 NON d   1     -48.627  16.331  -2.205  0.00  0.00     0.032 A 
ATOM     10  C20 NON d   1     -48.021  16.080  -4.561  0.00  0.00     0.085 A 
ATOM     11  C17 NON d   1     -49.727  15.493  -2.446  0.00  0.00     0.002 A 
ATOM     12  C18 NON d   1     -49.968  14.951  -3.711  0.00  0.00     0.002 A 
ATOM     13  C19 NON d   1     -49.121  15.243  -4.785  0.00  0.00     0.034 A 
ATOM     14  N3  NON d   1     -47.062  16.507  -5.435  0.00  0.00    -0.232 NA
ENDBRANCH   3   5
ENDBRANCH   2   3
ENDBRANCH   1   2
BRANCH   1  15
ATOM     15  C4  NON d   1     -41.293  18.568  -5.134  0.00  0.00     0.226 C 
ATOM     16  O1  NON d   1     -40.312  18.896  -5.795  0.00  0.00    -0.273 OA
ATOM     17  N1  NON d   1     -41.881  19.408  -4.192  0.00  0.00    -0.360 N 
ATOM     18  H7  NON d   1     -42.416  18.965  -3.456  0.00  0.00     0.162 HD
BRANCH  17  19
ATOM     19  C5  NON d   1     -41.306  20.716  -3.921  0.00  0.00     0.123 C 
BRANCH  19  20
ATOM     20  C6  NON d   1     -40.488  20.783  -2.626  0.00  0.00     0.024 C 
BRANCH  20  21
ATOM     21  C7  NON d   1     -39.004  21.108  -2.855  0.00  0.00     0.040 C 
BRANCH  21  22
ATOM     22  C8  NON d   1     -38.113  19.968  -3.314  0.00  0.00    -0.058 A 
ATOM     23  C9  NON d   1     -37.792  18.961  -2.385  0.00  0.00     0.007 A 
ATOM     24  C10 NON d   1     -36.960  17.895  -2.729  0.00  0.00     0.001 A 
ATOM     25  C11 NON d   1     -36.424  17.814  -4.010  0.00  0.00     0.000 A 
ATOM     26  C12 NON d   1     -36.720  18.806  -4.942  0.00  0.00     0.001 A 
ATOM     27  C13 NON d   1     -37.558  19.875  -4.598  0.00  0.00     0.007 A 
ENDBRANCH  21  22
ENDBRANCH  20  21
ENDBRANCH  19  20
ENDBRANCH  17  19
ENDBRANCH   1  15
TORSDOF 8
ENDMDL
