MODEL 1
REMARK VINA RESULT:   -13.018      0.000      0.000
REMARK INTER + INTRA:         -16.957
REMARK INTER:                 -14.808
REMARK INTRA:                  -2.149
REMARK CONF_INDEPENDENT:        1.790
REMARK UNBOUND:                -2.149
REMARK  6 active torsions:
REMARK  status: ('A' for Active; 'I' for Inactive)
REMARK    1  A    between atoms: C2_2  and  N1_3 
REMARK       I    between atoms: N1_3  and  C3_4 
REMARK       I    between atoms: C3_4  and  N2_6 
REMARK    2  A    between atoms: N2_6  and  C4_7 
REMARK    3  A    between atoms: C8_11  and  N3_12 
REMARK       I    between atoms: N3_12  and  C9_13 
REMARK    4  A    between atoms: C9_13  and  C10_15 
REMARK    5  A    between atoms: C15_20  and  C16_21 
REMARK    6  A    between atoms: C16_21  and  C17_23 
ROOT
ATOM      1  N3  NON d   1     -41.101  19.588  -6.211  0.00  0.00    -0.323 N 
ATOM      2  C9  NON d   1     -40.323  19.178  -7.287  0.00  0.00     0.257 C 
ATOM      3  O2  NON d   1     -40.141  18.028  -7.662  0.00  0.00    -0.267 OA
ATOM      4  H11 NON d   1     -41.191  20.586  -6.076  0.00  0.00     0.169 HD
ENDROOT
BRANCH   2   5
ATOM      5  C10 NON d   1     -39.765  20.334  -8.079  0.00  0.00     0.046 C 
ATOM      6  C11 NON d   1     -40.683  21.318  -8.514  0.00  0.00     0.018 C 
ATOM      7  C12 NON d   1     -40.250  22.486  -9.140  0.00  0.00     0.001 C 
ATOM      8  C13 NON d   1     -38.892  22.694  -9.333  0.00  0.00     0.001 C 
ATOM      9  C14 NON d   1     -37.975  21.715  -8.939  0.00  0.00     0.016 C 
ATOM     10  C15 NON d   1     -38.395  20.495  -8.375  0.00  0.00     0.030 C 
BRANCH  10  11
ATOM     11  C16 NON d   1     -37.373  19.508  -7.948  0.00  0.00     0.193 C 
ATOM     12  O3  NON d   1     -36.646  19.057  -8.834  0.00  0.00    -0.287 OA
BRANCH  11  13
ATOM     13  C17 NON d   1     -37.229  18.956  -6.548  0.00  0.00     0.015 C 
ATOM     14  C18 NON d   1     -36.440  17.866  -6.174  0.00  0.00     0.016 C 
ATOM     15  C19 NON d   1     -36.194  17.584  -4.815  0.00  0.00     0.008 C 
ATOM     16  C20 NON d   1     -36.775  18.342  -3.784  0.00  0.00    -0.056 C 
ATOM     17  C21 NON d   1     -36.411  18.101  -2.307  0.00  0.00     0.049 C 
ATOM     18  C22 NON d   1     -37.700  19.340  -4.153  0.00  0.00    -0.055 C 
ATOM     19  C23 NON d   1     -38.548  20.060  -3.139  0.00  0.00     0.049 C 
ATOM     20  C24 NON d   1     -37.894  19.647  -5.522  0.00  0.00     0.022 C 
ENDBRANCH  11  13
ENDBRANCH  10  11
ENDBRANCH   2   5
BRANCH   1  21
ATOM     21  C8  NON d   1     -41.874  18.815  -5.315  0.00  0.00     0.037 A 
ATOM     22  C7  NON d   1     -41.141  18.035  -4.409  0.00  0.00     0.029 A 
ATOM     23  C6  NON d   1     -41.787  17.246  -3.467  0.00  0.00     0.004 A 
ATOM     24  C5  NON d   1     -43.179  17.183  -3.456  0.00  0.00     0.029 A 
ATOM     25  C4  NON d   1     -43.942  17.899  -4.389  0.00  0.00     0.038 A 
ATOM     26  C25 NON d   1     -43.276  18.756  -5.293  0.00  0.00     0.059 A 
BRANCH  25  27
ATOM     27  N2  NON d   1     -45.362  17.779  -4.458  0.00  0.00    -0.309 N 
ATOM     28  C3  NON d   1     -46.058  16.785  -5.125  0.00  0.00     0.320 C 
ATOM     29  N1  NON d   1     -47.437  16.870  -4.941  0.00  0.00    -0.343 N 
ATOM     30  O1  NON d   1     -45.565  15.895  -5.811  0.00  0.00    -0.247 OA
ATOM     31  H6  NON d   1     -47.717  17.277  -4.060  0.00  0.00     0.164 HD
ATOM     32  H7  NON d   1     -45.895  18.583  -4.160  0.00  0.00     0.170 HD
BRANCH  29  33
ATOM     33  C2  NON d   1     -48.205  15.723  -5.405  0.00  0.00     0.120 C 
ATOM     34  C1  NON d   1     -49.111  15.013  -4.381  0.00  0.00     0.026 C 
ENDBRANCH  29  33
ENDBRANCH  25  27
ENDBRANCH   1  21
TORSDOF 6
ENDMDL
MODEL 2
REMARK VINA RESULT:   -13.006      2.341      3.415
REMARK INTER + INTRA:         -16.834
REMARK INTER:                 -14.796
REMARK INTRA:                  -2.039
REMARK CONF_INDEPENDENT:        1.790
REMARK UNBOUND:                -2.039
REMARK  6 active torsions:
REMARK  status: ('A' for Active; 'I' for Inactive)
REMARK    1  A    between atoms: C2_2  and  N1_3 
REMARK       I    between atoms: N1_3  and  C3_4 
REMARK       I    between atoms: C3_4  and  N2_6 
REMARK    2  A    between atoms: N2_6  and  C4_7 
REMARK    3  A    between atoms: C8_11  and  N3_12 
REMARK       I    between atoms: N3_12  and  C9_13 
REMARK    4  A    between atoms: C9_13  and  C10_15 
REMARK    5  A    between atoms: C15_20  and  C16_21 
REMARK    6  A    between atoms: C16_21  and  C17_23 
ROOT
ATOM      1  N3  NON d   1     -41.243  20.181  -5.773  0.00  0.00    -0.323 N 
ATOM      2  C9  NON d   1     -40.615  20.098  -7.010  0.00  0.00     0.257 C 
ATOM      3  O2  NON d   1     -40.549  19.114  -7.732  0.00  0.00    -0.267 OA
ATOM      4  H11 NON d   1     -41.252  21.093  -5.334  0.00  0.00     0.169 HD
ENDROOT
BRANCH   2   5
ATOM      5  C10 NON d   1     -40.074  21.425  -7.481  0.00  0.00     0.046 C 
ATOM      6  C11 NON d   1     -40.395  21.818  -8.802  0.00  0.00     0.018 C 
ATOM      7  C12 NON d   1     -40.051  23.080  -9.285  0.00  0.00     0.001 C 
ATOM      8  C13 NON d   1     -39.388  23.972  -8.455  0.00  0.00     0.001 C 
ATOM      9  C14 NON d   1     -39.033  23.585  -7.159  0.00  0.00     0.016 C 
ATOM     10  C15 NON d   1     -39.304  22.290  -6.676  0.00  0.00     0.030 C 
BRANCH  10  11
ATOM     11  C16 NON d   1     -38.930  21.948  -5.281  0.00  0.00     0.193 C 
ATOM     12  O3  NON d   1     -38.118  21.033  -5.142  0.00  0.00    -0.287 OA
BRANCH  11  13
ATOM     13  C17 NON d   1     -39.538  22.565  -4.043  0.00  0.00     0.015 C 
ATOM     14  C18 NON d   1     -40.366  23.690  -4.010  0.00  0.00     0.016 C 
ATOM     15  C19 NON d   1     -41.065  24.039  -2.837  0.00  0.00     0.008 C 
ATOM     16  C20 NON d   1     -40.917  23.314  -1.642  0.00  0.00    -0.056 C 
ATOM     17  C21 NON d   1     -41.771  23.631  -0.400  0.00  0.00     0.049 C 
ATOM     18  C22 NON d   1     -39.961  22.278  -1.625  0.00  0.00    -0.055 C 
ATOM     19  C23 NON d   1     -39.556  21.584  -0.352  0.00  0.00     0.049 C 
ATOM     20  C24 NON d   1     -39.307  21.905  -2.825  0.00  0.00     0.022 C 
ENDBRANCH  11  13
ENDBRANCH  10  11
ENDBRANCH   2   5
BRANCH   1  21
ATOM     21  C8  NON d   1     -41.961  19.193  -5.062  0.00  0.00     0.037 A 
ATOM     22  C7  NON d   1     -41.173  18.261  -4.370  0.00  0.00     0.029 A 
ATOM     23  C6  NON d   1     -41.763  17.253  -3.619  0.00  0.00     0.004 A 
ATOM     24  C5  NON d   1     -43.150  17.129  -3.598  0.00  0.00     0.029 A 
ATOM     25  C4  NON d   1     -43.966  18.003  -4.330  0.00  0.00     0.038 A 
ATOM     26  C25 NON d   1     -43.358  19.070  -5.028  0.00  0.00     0.059 A 
BRANCH  25  27
ATOM     27  N2  NON d   1     -45.381  17.840  -4.399  0.00  0.00    -0.309 N 
ATOM     28  C3  NON d   1     -46.048  16.847  -5.094  0.00  0.00     0.320 C 
ATOM     29  N1  NON d   1     -47.428  16.882  -4.904  0.00  0.00    -0.343 N 
ATOM     30  O1  NON d   1     -45.530  15.995  -5.810  0.00  0.00    -0.247 OA
ATOM     31  H6  NON d   1     -47.717  17.252  -4.010  0.00  0.00     0.164 HD
ATOM     32  H7  NON d   1     -45.938  18.617  -4.074  0.00  0.00     0.170 HD
BRANCH  29  33
ATOM     33  C2  NON d   1     -48.162  15.726  -5.402  0.00  0.00     0.120 C 
ATOM     34  C1  NON d   1     -49.104  15.005  -4.420  0.00  0.00     0.026 C 
ENDBRANCH  29  33
ENDBRANCH  25  27
ENDBRANCH   1  21
TORSDOF 6
ENDMDL
MODEL 3
REMARK VINA RESULT:   -12.947      1.427      2.192
REMARK INTER + INTRA:         -17.063
REMARK INTER:                 -14.737
REMARK INTRA:                  -2.326
REMARK CONF_INDEPENDENT:        1.790
REMARK UNBOUND:                -2.326
REMARK  6 active torsions:
REMARK  status: ('A' for Active; 'I' for Inactive)
REMARK    1  A    between atoms: C2_2  and  N1_3 
REMARK       I    between atoms: N1_3  and  C3_4 
REMARK       I    between atoms: C3_4  and  N2_6 
REMARK    2  A    between atoms: N2_6  and  C4_7 
REMARK    3  A    between atoms: C8_11  and  N3_12 
REMARK       I    between atoms: N3_12  and  C9_13 
REMARK    4  A    between atoms: C9_13  and  C10_15 
REMARK    5  A    between atoms: C15_20  and  C16_21 
REMARK    6  A    between atoms: C16_21  and  C17_23 
ROOT
ATOM      1  N3  NON d   1     -41.245  19.931  -6.150  0.00  0.00    -0.323 N 
ATOM      2  C9  NON d   1     -40.433  19.670  -7.248  0.00  0.00     0.257 C 
ATOM      3  O2  NON d   1     -40.165  18.573  -7.715  0.00  0.00    -0.267 OA
ATOM      4  H11 NON d   1     -41.408  20.905  -5.933  0.00  0.00     0.169 HD
ENDROOT
BRANCH   2   5
ATOM      5  C10 NON d   1     -39.957  20.926  -7.933  0.00  0.00     0.046 C 
ATOM      6  C11 NON d   1     -39.863  20.893  -9.344  0.00  0.00     0.018 C 
ATOM      7  C12 NON d   1     -39.556  22.038 -10.077  0.00  0.00     0.001 C 
ATOM      8  C13 NON d   1     -39.346  23.238  -9.413  0.00  0.00     0.001 C 
ATOM      9  C14 NON d   1     -39.402  23.279  -8.016  0.00  0.00     0.016 C 
ATOM     10  C15 NON d   1     -39.635  22.119  -7.253  0.00  0.00     0.030 C 
BRANCH  10  11
ATOM     11  C16 NON d   1     -39.713  22.232  -5.775  0.00  0.00     0.193 C 
ATOM     12  O3  NON d   1     -40.278  23.232  -5.333  0.00  0.00    -0.287 OA
BRANCH  11  13
ATOM     13  C17 NON d   1     -39.074  21.274  -4.796  0.00  0.00     0.015 C 
ATOM     14  C18 NON d   1     -39.368  21.177  -3.434  0.00  0.00     0.016 C 
ATOM     15  C19 NON d   1     -38.887  20.096  -2.666  0.00  0.00     0.008 C 
ATOM     16  C20 NON d   1     -38.051  19.110  -3.216  0.00  0.00    -0.056 C 
ATOM     17  C21 NON d   1     -37.627  17.873  -2.403  0.00  0.00     0.049 C 
ATOM     18  C22 NON d   1     -37.621  19.290  -4.546  0.00  0.00    -0.055 C 
ATOM     19  C23 NON d   1     -36.554  18.428  -5.166  0.00  0.00     0.049 C 
ATOM     20  C24 NON d   1     -38.154  20.350  -5.320  0.00  0.00     0.022 C 
ENDBRANCH  11  13
ENDBRANCH  10  11
ENDBRANCH   2   5
BRANCH   1  21
ATOM     21  C8  NON d   1     -41.964  19.031  -5.331  0.00  0.00     0.037 A 
ATOM     22  C7  NON d   1     -41.178  18.173  -4.548  0.00  0.00     0.029 A 
ATOM     23  C6  NON d   1     -41.768  17.256  -3.688  0.00  0.00     0.004 A 
ATOM     24  C5  NON d   1     -43.157  17.146  -3.644  0.00  0.00     0.029 A 
ATOM     25  C4  NON d   1     -43.972  17.943  -4.460  0.00  0.00     0.038 A 
ATOM     26  C25 NON d   1     -43.362  18.923  -5.274  0.00  0.00     0.059 A 
BRANCH  25  27
ATOM     27  N2  NON d   1     -45.389  17.785  -4.500  0.00  0.00    -0.309 N 
ATOM     28  C3  NON d   1     -46.071  16.760  -5.133  0.00  0.00     0.320 C 
ATOM     29  N1  NON d   1     -47.448  16.813  -4.925  0.00  0.00    -0.343 N 
ATOM     30  O1  NON d   1     -45.567  15.868  -5.809  0.00  0.00    -0.247 OA
ATOM     31  H6  NON d   1     -47.722  17.231  -4.048  0.00  0.00     0.164 HD
ATOM     32  H7  NON d   1     -45.937  18.581  -4.209  0.00  0.00     0.170 HD
BRANCH  29  33
ATOM     33  C2  NON d   1     -48.194  15.636  -5.352  0.00  0.00     0.120 C 
ATOM     34  C1  NON d   1     -49.165  15.005  -4.336  0.00  0.00     0.026 C 
ENDBRANCH  29  33
ENDBRANCH  25  27
ENDBRANCH   1  21
TORSDOF 6
ENDMDL
MODEL 4
REMARK VINA RESULT:   -12.934      2.308      3.221
REMARK INTER + INTRA:         -16.849
REMARK INTER:                 -14.723
REMARK INTRA:                  -2.125
REMARK CONF_INDEPENDENT:        1.790
REMARK UNBOUND:                -2.125
REMARK  6 active torsions:
REMARK  status: ('A' for Active; 'I' for Inactive)
REMARK    1  A    between atoms: C2_2  and  N1_3 
REMARK       I    between atoms: N1_3  and  C3_4 
REMARK       I    between atoms: C3_4  and  N2_6 
REMARK    2  A    between atoms: N2_6  and  C4_7 
REMARK    3  A    between atoms: C8_11  and  N3_12 
REMARK       I    between atoms: N3_12  and  C9_13 
REMARK    4  A    between atoms: C9_13  and  C10_15 
REMARK    5  A    between atoms: C15_20  and  C16_21 
REMARK    6  A    between atoms: C16_21  and  C17_23 
ROOT
ATOM      1  N3  NON d   1     -41.197  20.120  -6.161  0.00  0.00    -0.323 N 
ATOM      2  C9  NON d   1     -40.457  19.963  -7.327  0.00  0.00     0.257 C 
ATOM      3  O2  NON d   1     -40.292  18.927  -7.955  0.00  0.00    -0.267 OA
ATOM      4  H11 NON d   1     -41.278  21.062  -5.803  0.00  0.00     0.169 HD
ENDROOT
BRANCH   2   5
ATOM      5  C10 NON d   1     -39.919  21.268  -7.857  0.00  0.00     0.046 C 
ATOM      6  C11 NON d   1     -40.279  21.622  -9.179  0.00  0.00     0.018 C 
ATOM      7  C12 NON d   1     -39.939  22.864  -9.714  0.00  0.00     0.001 C 
ATOM      8  C13 NON d   1     -39.242  23.776  -8.935  0.00  0.00     0.001 C 
ATOM      9  C14 NON d   1     -38.850  23.428  -7.639  0.00  0.00     0.016 C 
ATOM     10  C15 NON d   1     -39.117  22.152  -7.106  0.00  0.00     0.030 C 
BRANCH  10  11
ATOM     11  C16 NON d   1     -38.702  21.852  -5.712  0.00  0.00     0.193 C 
ATOM     12  O3  NON d   1     -37.651  21.225  -5.578  0.00  0.00    -0.287 OA
BRANCH  11  13
ATOM     13  C17 NON d   1     -39.514  22.170  -4.477  0.00  0.00     0.015 C 
ATOM     14  C18 NON d   1     -39.746  21.306  -3.405  0.00  0.00     0.016 C 
ATOM     15  C19 NON d   1     -40.315  21.780  -2.205  0.00  0.00     0.008 C 
ATOM     16  C20 NON d   1     -40.723  23.116  -2.056  0.00  0.00    -0.056 C 
ATOM     17  C21 NON d   1     -41.235  23.653  -0.706  0.00  0.00     0.049 C 
ATOM     18  C22 NON d   1     -40.640  23.952  -3.188  0.00  0.00    -0.055 C 
ATOM     19  C23 NON d   1     -41.251  25.327  -3.214  0.00  0.00     0.049 C 
ATOM     20  C24 NON d   1     -40.018  23.476  -4.368  0.00  0.00     0.022 C 
ENDBRANCH  11  13
ENDBRANCH  10  11
ENDBRANCH   2   5
BRANCH   1  21
ATOM     21  C8  NON d   1     -41.944  19.164  -5.436  0.00  0.00     0.037 A 
ATOM     22  C7  NON d   1     -41.184  18.234  -4.710  0.00  0.00     0.029 A 
ATOM     23  C6  NON d   1     -41.803  17.256  -3.943  0.00  0.00     0.004 A 
ATOM     24  C5  NON d   1     -43.194  17.160  -3.938  0.00  0.00     0.029 A 
ATOM     25  C4  NON d   1     -43.982  18.031  -4.703  0.00  0.00     0.038 A 
ATOM     26  C25 NON d   1     -43.344  19.068  -5.419  0.00  0.00     0.059 A 
BRANCH  25  27
ATOM     27  N2  NON d   1     -45.399  17.893  -4.788  0.00  0.00    -0.309 N 
ATOM     28  C3  NON d   1     -46.077  16.799  -5.296  0.00  0.00     0.320 C 
ATOM     29  N1  NON d   1     -47.460  16.906  -5.165  0.00  0.00    -0.343 N 
ATOM     30  O1  NON d   1     -45.565  15.809  -5.810  0.00  0.00    -0.247 OA
ATOM     31  H6  NON d   1     -47.763  17.453  -4.372  0.00  0.00     0.164 HD
ATOM     32  H7  NON d   1     -45.940  18.733  -4.643  0.00  0.00     0.170 HD
BRANCH  29  33
ATOM     33  C2  NON d   1     -48.215  15.693  -5.450  0.00  0.00     0.120 C 
ATOM     34  C1  NON d   1     -48.924  15.004  -4.269  0.00  0.00     0.026 C 
ENDBRANCH  29  33
ENDBRANCH  25  27
ENDBRANCH   1  21
TORSDOF 6
ENDMDL
MODEL 5
REMARK VINA RESULT:   -12.731      2.258      3.407
REMARK INTER + INTRA:         -16.673
REMARK INTER:                 -14.521
REMARK INTRA:                  -2.152
REMARK CONF_INDEPENDENT:        1.790
REMARK UNBOUND:                -2.152
REMARK  6 active torsions:
REMARK  status: ('A' for Active; 'I' for Inactive)
REMARK    1  A    between atoms: C2_2  and  N1_3 
REMARK       I    between atoms: N1_3  and  C3_4 
REMARK       I    between atoms: C3_4  and  N2_6 
REMARK    2  A    between atoms: N2_6  and  C4_7 
REMARK    3  A    between atoms: C8_11  and  N3_12 
REMARK       I    between atoms: N3_12  and  C9_13 
REMARK    4  A    between atoms: C9_13  and  C10_15 
REMARK    5  A    between atoms: C15_20  and  C16_21 
REMARK    6  A    between atoms: C16_21  and  C17_23 
ROOT
ATOM      1  N3  NON d   1     -40.664  18.951  -6.153  0.00  0.00    -0.323 N 
ATOM      2  C9  NON d   1     -40.836  19.790  -7.248  0.00  0.00     0.257 C 
ATOM      3  O2  NON d   1     -41.893  20.238  -7.667  0.00  0.00    -0.267 OA
ATOM      4  H11 NON d   1     -39.709  18.722  -5.909  0.00  0.00     0.169 HD
ENDROOT
BRANCH   2   5
ATOM      5  C10 NON d   1     -39.529  20.222  -7.864  0.00  0.00     0.046 C 
ATOM      6  C11 NON d   1     -38.722  19.211  -8.438  0.00  0.00     0.018 C 
ATOM      7  C12 NON d   1     -37.561  19.525  -9.142  0.00  0.00     0.001 C 
ATOM      8  C13 NON d   1     -37.190  20.853  -9.292  0.00  0.00     0.001 C 
ATOM      9  C14 NON d   1     -37.958  21.861  -8.701  0.00  0.00     0.016 C 
ATOM     10  C15 NON d   1     -39.093  21.562  -7.922  0.00  0.00     0.030 C 
BRANCH  10  11
ATOM     11  C16 NON d   1     -39.886  22.677  -7.346  0.00  0.00     0.193 C 
ATOM     12  O3  NON d   1     -40.413  23.445  -8.151  0.00  0.00    -0.287 OA
BRANCH  11  13
ATOM     13  C17 NON d   1     -40.007  22.985  -5.871  0.00  0.00     0.015 C 
ATOM     14  C18 NON d   1     -40.122  24.257  -5.307  0.00  0.00     0.016 C 
ATOM     15  C19 NON d   1     -40.465  24.417  -3.948  0.00  0.00     0.008 C 
ATOM     16  C20 NON d   1     -40.648  23.315  -3.096  0.00  0.00    -0.056 C 
ATOM     17  C21 NON d   1     -41.135  23.495  -1.646  0.00  0.00     0.049 C 
ATOM     18  C22 NON d   1     -40.375  22.035  -3.620  0.00  0.00    -0.055 C 
ATOM     19  C23 NON d   1     -40.318  20.809  -2.748  0.00  0.00     0.049 C 
ATOM     20  C24 NON d   1     -40.084  21.888  -4.998  0.00  0.00     0.022 C 
ENDBRANCH  11  13
ENDBRANCH  10  11
ENDBRANCH   2   5
BRANCH   1  21
ATOM     21  C8  NON d   1     -41.627  18.434  -5.257  0.00  0.00     0.037 A 
ATOM     22  C7  NON d   1     -41.107  17.790  -4.124  0.00  0.00     0.029 A 
ATOM     23  C6  NON d   1     -41.952  17.256  -3.161  0.00  0.00     0.004 A 
ATOM     24  C5  NON d   1     -43.332  17.309  -3.348  0.00  0.00     0.029 A 
ATOM     25  C4  NON d   1     -43.885  17.888  -4.499  0.00  0.00     0.038 A 
ATOM     26  C25 NON d   1     -43.017  18.494  -5.434  0.00  0.00     0.059 A 
BRANCH  25  27
ATOM     27  N2  NON d   1     -45.287  17.871  -4.757  0.00  0.00    -0.309 N 
ATOM     28  C3  NON d   1     -45.988  16.837  -5.353  0.00  0.00     0.320 C 
ATOM     29  N1  NON d   1     -47.363  17.062  -5.390  0.00  0.00    -0.343 N 
ATOM     30  O1  NON d   1     -45.504  15.806  -5.810  0.00  0.00    -0.247 OA
ATOM     31  H6  NON d   1     -47.714  17.634  -4.636  0.00  0.00     0.164 HD
ATOM     32  H7  NON d   1     -45.769  18.754  -4.671  0.00  0.00     0.170 HD
BRANCH  29  33
ATOM     33  C2  NON d   1     -48.178  15.917  -5.775  0.00  0.00     0.120 C 
ATOM     34  C1  NON d   1     -48.787  15.066  -4.645  0.00  0.00     0.026 C 
ENDBRANCH  29  33
ENDBRANCH  25  27
ENDBRANCH   1  21
TORSDOF 6
ENDMDL
MODEL 6
REMARK VINA RESULT:   -12.710      4.292      6.719
REMARK INTER + INTRA:         -15.763
REMARK INTER:                 -14.500
REMARK INTRA:                  -1.263
REMARK CONF_INDEPENDENT:        1.790
REMARK UNBOUND:                -1.263
REMARK  6 active torsions:
REMARK  status: ('A' for Active; 'I' for Inactive)
REMARK    1  A    between atoms: C2_2  and  N1_3 
REMARK       I    between atoms: N1_3  and  C3_4 
REMARK       I    between atoms: C3_4  and  N2_6 
REMARK    2  A    between atoms: N2_6  and  C4_7 
REMARK    3  A    between atoms: C8_11  and  N3_12 
REMARK       I    between atoms: N3_12  and  C9_13 
REMARK    4  A    between atoms: C9_13  and  C10_15 
REMARK    5  A    between atoms: C15_20  and  C16_21 
REMARK    6  A    between atoms: C16_21  and  C17_23 
ROOT
ATOM      1  N3  NON d   1     -40.060  18.871  -2.634  0.00  0.00    -0.323 N 
ATOM      2  C9  NON d   1     -39.250  19.987  -2.807  0.00  0.00     0.257 C 
ATOM      3  O2  NON d   1     -39.207  20.715  -3.788  0.00  0.00    -0.267 OA
ATOM      4  H11 NON d   1     -40.011  18.416  -1.732  0.00  0.00     0.169 HD
ENDROOT
BRANCH   2   5
ATOM      5  C10 NON d   1     -38.450  20.325  -1.574  0.00  0.00     0.046 C 
ATOM      6  C11 NON d   1     -37.244  19.612  -1.375  0.00  0.00     0.018 C 
ATOM      7  C12 NON d   1     -36.372  19.939  -0.337  0.00  0.00     0.001 C 
ATOM      8  C13 NON d   1     -36.687  20.988   0.514  0.00  0.00     0.001 C 
ATOM      9  C14 NON d   1     -37.892  21.679   0.351  0.00  0.00     0.016 C 
ATOM     10  C15 NON d   1     -38.821  21.316  -0.642  0.00  0.00     0.030 C 
BRANCH  10  11
ATOM     11  C16 NON d   1     -40.069  22.108  -0.785  0.00  0.00     0.193 C 
ATOM     12  O3  NON d   1     -40.689  21.963  -1.839  0.00  0.00    -0.287 OA
BRANCH  11  13
ATOM     13  C17 NON d   1     -40.569  23.129   0.211  0.00  0.00     0.015 C 
ATOM     14  C18 NON d   1     -40.830  22.895   1.562  0.00  0.00     0.016 C 
ATOM     15  C19 NON d   1     -41.065  23.966   2.449  0.00  0.00     0.008 C 
ATOM     16  C20 NON d   1     -41.104  25.299   2.007  0.00  0.00    -0.056 C 
ATOM     17  C21 NON d   1     -41.245  26.470   2.998  0.00  0.00     0.049 C 
ATOM     18  C22 NON d   1     -41.002  25.527   0.619  0.00  0.00    -0.055 C 
ATOM     19  C23 NON d   1     -41.254  26.880   0.010  0.00  0.00     0.049 C 
ATOM     20  C24 NON d   1     -40.713  24.448  -0.251  0.00  0.00     0.022 C 
ENDBRANCH  11  13
ENDBRANCH  10  11
ENDBRANCH   2   5
BRANCH   1  21
ATOM     21  C8  NON d   1     -41.024  18.317  -3.506  0.00  0.00     0.037 A 
ATOM     22  C7  NON d   1     -40.650  18.263  -4.858  0.00  0.00     0.029 A 
ATOM     23  C6  NON d   1     -41.505  17.723  -5.810  0.00  0.00     0.004 A 
ATOM     24  C5  NON d   1     -42.772  17.283  -5.430  0.00  0.00     0.029 A 
ATOM     25  C4  NON d   1     -43.203  17.382  -4.100  0.00  0.00     0.038 A 
ATOM     26  C25 NON d   1     -42.297  17.863  -3.129  0.00  0.00     0.059 A 
BRANCH  25  27
ATOM     27  N2  NON d   1     -44.526  17.026  -3.704  0.00  0.00    -0.309 N 
ATOM     28  C3  NON d   1     -45.584  16.765  -4.558  0.00  0.00     0.320 C 
ATOM     29  N1  NON d   1     -46.734  16.350  -3.889  0.00  0.00    -0.343 N 
ATOM     30  O1  NON d   1     -45.565  16.864  -5.781  0.00  0.00    -0.247 OA
ATOM     31  H6  NON d   1     -46.560  15.861  -3.023  0.00  0.00     0.164 HD
ATOM     32  H7  NON d   1     -44.754  17.159  -2.730  0.00  0.00     0.170 HD
BRANCH  29  33
ATOM     33  C2  NON d   1     -47.799  15.826  -4.734  0.00  0.00     0.120 C 
ATOM     34  C1  NON d   1     -49.086  15.344  -4.039  0.00  0.00     0.026 C 
ENDBRANCH  29  33
ENDBRANCH  25  27
ENDBRANCH   1  21
TORSDOF 6
ENDMDL
MODEL 7
REMARK VINA RESULT:   -12.167      1.867      4.192
REMARK INTER + INTRA:         -16.287
REMARK INTER:                 -13.957
REMARK INTRA:                  -2.329
REMARK CONF_INDEPENDENT:        1.790
REMARK UNBOUND:                -2.329
REMARK  6 active torsions:
REMARK  status: ('A' for Active; 'I' for Inactive)
REMARK    1  A    between atoms: C2_2  and  N1_3 
REMARK       I    between atoms: N1_3  and  C3_4 
REMARK       I    between atoms: C3_4  and  N2_6 
REMARK    2  A    between atoms: N2_6  and  C4_7 
REMARK    3  A    between atoms: C8_11  and  N3_12 
REMARK       I    between atoms: N3_12  and  C9_13 
REMARK    4  A    between atoms: C9_13  and  C10_15 
REMARK    5  A    between atoms: C15_20  and  C16_21 
REMARK    6  A    between atoms: C16_21  and  C17_23 
ROOT
ATOM      1  N3  NON d   1     -40.420  18.633  -6.061  0.00  0.00    -0.323 N 
ATOM      2  C9  NON d   1     -39.069  18.838  -5.804  0.00  0.00     0.257 C 
ATOM      3  O2  NON d   1     -38.508  18.738  -4.722  0.00  0.00    -0.267 OA
ATOM      4  H11 NON d   1     -40.707  18.701  -7.029  0.00  0.00     0.169 HD
ENDROOT
BRANCH   2   5
ATOM      5  C10 NON d   1     -38.270  19.108  -7.054  0.00  0.00     0.046 C 
ATOM      6  C11 NON d   1     -37.061  18.391  -7.212  0.00  0.00     0.018 C 
ATOM      7  C12 NON d   1     -36.318  18.475  -8.388  0.00  0.00     0.001 C 
ATOM      8  C13 NON d   1     -36.774  19.270  -9.429  0.00  0.00     0.001 C 
ATOM      9  C14 NON d   1     -37.949  20.012  -9.275  0.00  0.00     0.016 C 
ATOM     10  C15 NON d   1     -38.675  20.001  -8.068  0.00  0.00     0.030 C 
BRANCH  10  11
ATOM     11  C16 NON d   1     -39.932  20.785  -7.975  0.00  0.00     0.193 C 
ATOM     12  O3  NON d   1     -40.948  20.242  -8.408  0.00  0.00    -0.287 OA
BRANCH  11  13
ATOM     13  C17 NON d   1     -40.031  22.212  -7.485  0.00  0.00     0.015 C 
ATOM     14  C18 NON d   1     -39.952  22.629  -6.155  0.00  0.00     0.016 C 
ATOM     15  C19 NON d   1     -39.820  23.995  -5.832  0.00  0.00     0.008 C 
ATOM     16  C20 NON d   1     -39.823  24.994  -6.821  0.00  0.00    -0.056 C 
ATOM     17  C21 NON d   1     -39.563  26.470  -6.470  0.00  0.00     0.049 C 
ATOM     18  C22 NON d   1     -40.065  24.592  -8.150  0.00  0.00    -0.055 C 
ATOM     19  C23 NON d   1     -40.313  25.585  -9.254  0.00  0.00     0.049 C 
ATOM     20  C24 NON d   1     -40.141  23.213  -8.465  0.00  0.00     0.022 C 
ENDBRANCH  11  13
ENDBRANCH  10  11
ENDBRANCH   2   5
BRANCH   1  21
ATOM     21  C8  NON d   1     -41.455  18.249  -5.179  0.00  0.00     0.037 A 
ATOM     22  C7  NON d   1     -41.031  17.663  -3.977  0.00  0.00     0.029 A 
ATOM     23  C6  NON d   1     -41.954  17.260  -3.020  0.00  0.00     0.004 A 
ATOM     24  C5  NON d   1     -43.317  17.385  -3.280  0.00  0.00     0.029 A 
ATOM     25  C4  NON d   1     -43.776  17.905  -4.498  0.00  0.00     0.038 A 
ATOM     26  C25 NON d   1     -42.828  18.381  -5.431  0.00  0.00     0.059 A 
BRANCH  25  27
ATOM     27  N2  NON d   1     -45.164  17.956  -4.825  0.00  0.00    -0.309 N 
ATOM     28  C3  NON d   1     -45.894  16.940  -5.416  0.00  0.00     0.320 C 
ATOM     29  N1  NON d   1     -47.250  17.239  -5.530  0.00  0.00    -0.343 N 
ATOM     30  O1  NON d   1     -45.449  15.866  -5.809  0.00  0.00    -0.247 OA
ATOM     31  H6  NON d   1     -47.603  17.860  -4.816  0.00  0.00     0.164 HD
ATOM     32  H7  NON d   1     -45.597  18.867  -4.797  0.00  0.00     0.170 HD
BRANCH  29  33
ATOM     33  C2  NON d   1     -48.110  16.127  -5.912  0.00  0.00     0.120 C 
ATOM     34  C1  NON d   1     -48.724  15.283  -4.779  0.00  0.00     0.026 C 
ENDBRANCH  29  33
ENDBRANCH  25  27
ENDBRANCH   1  21
TORSDOF 6
ENDMDL
MODEL 8
REMARK VINA RESULT:   -11.414      2.394      4.628
REMARK INTER + INTRA:         -15.537
REMARK INTER:                 -13.204
REMARK INTRA:                  -2.333
REMARK CONF_INDEPENDENT:        1.790
REMARK UNBOUND:                -2.333
REMARK  6 active torsions:
REMARK  status: ('A' for Active; 'I' for Inactive)
REMARK    1  A    between atoms: C2_2  and  N1_3 
REMARK       I    between atoms: N1_3  and  C3_4 
REMARK       I    between atoms: C3_4  and  N2_6 
REMARK    2  A    between atoms: N2_6  and  C4_7 
REMARK    3  A    between atoms: C8_11  and  N3_12 
REMARK       I    between atoms: N3_12  and  C9_13 
REMARK    4  A    between atoms: C9_13  and  C10_15 
REMARK    5  A    between atoms: C15_20  and  C16_21 
REMARK    6  A    between atoms: C16_21  and  C17_23 
ROOT
ATOM      1  N3  NON d   1     -40.684  19.326  -2.919  0.00  0.00    -0.323 N 
ATOM      2  C9  NON d   1     -40.532  20.705  -3.001  0.00  0.00     0.257 C 
ATOM      3  O2  NON d   1     -41.143  21.466  -3.737  0.00  0.00    -0.267 OA
ATOM      4  H11 NON d   1     -40.136  18.855  -2.211  0.00  0.00     0.169 HD
ENDROOT
BRANCH   2   5
ATOM      5  C10 NON d   1     -39.568  21.249  -1.976  0.00  0.00     0.046 C 
ATOM      6  C11 NON d   1     -39.886  21.030  -0.615  0.00  0.00     0.018 C 
ATOM      7  C12 NON d   1     -38.999  21.381   0.401  0.00  0.00     0.001 C 
ATOM      8  C13 NON d   1     -37.775  21.947   0.074  0.00  0.00     0.001 C 
ATOM      9  C14 NON d   1     -37.461  22.201  -1.264  0.00  0.00     0.016 C 
ATOM     10  C15 NON d   1     -38.374  21.925  -2.301  0.00  0.00     0.030 C 
BRANCH  10  11
ATOM     11  C16 NON d   1     -37.971  22.188  -3.705  0.00  0.00     0.193 C 
ATOM     12  O3  NON d   1     -37.524  23.310  -3.944  0.00  0.00    -0.287 OA
BRANCH  11  13
ATOM     13  C17 NON d   1     -38.159  21.227  -4.857  0.00  0.00     0.015 C 
ATOM     14  C18 NON d   1     -37.583  19.960  -4.969  0.00  0.00     0.016 C 
ATOM     15  C19 NON d   1     -38.009  19.057  -5.965  0.00  0.00     0.008 C 
ATOM     16  C20 NON d   1     -38.981  19.409  -6.917  0.00  0.00    -0.056 C 
ATOM     17  C21 NON d   1     -39.524  18.381  -7.927  0.00  0.00     0.049 C 
ATOM     18  C22 NON d   1     -39.447  20.740  -6.908  0.00  0.00    -0.055 C 
ATOM     19  C23 NON d   1     -40.312  21.291  -8.010  0.00  0.00     0.049 C 
ATOM     20  C24 NON d   1     -39.050  21.617  -5.870  0.00  0.00     0.022 C 
ENDBRANCH  11  13
ENDBRANCH  10  11
ENDBRANCH   2   5
BRANCH   1  21
ATOM     21  C8  NON d   1     -41.567  18.476  -3.622  0.00  0.00     0.037 A 
ATOM     22  C7  NON d   1     -41.145  18.102  -4.907  0.00  0.00     0.029 A 
ATOM     23  C6  NON d   1     -41.918  17.255  -5.689  0.00  0.00     0.004 A 
ATOM     24  C5  NON d   1     -43.154  16.816  -5.218  0.00  0.00     0.029 A 
ATOM     25  C4  NON d   1     -43.636  17.222  -3.966  0.00  0.00     0.038 A 
ATOM     26  C25 NON d   1     -42.807  18.022  -3.149  0.00  0.00     0.059 A 
BRANCH  25  27
ATOM     27  N2  NON d   1     -44.936  16.862  -3.502  0.00  0.00    -0.309 N 
ATOM     28  C3  NON d   1     -46.010  16.505  -4.299  0.00  0.00     0.320 C 
ATOM     29  N1  NON d   1     -47.127  16.113  -3.564  0.00  0.00    -0.343 N 
ATOM     30  O1  NON d   1     -46.029  16.506  -5.526  0.00  0.00    -0.247 OA
ATOM     31  H6  NON d   1     -46.914  15.700  -2.668  0.00  0.00     0.164 HD
ATOM     32  H7  NON d   1     -45.139  17.067  -2.535  0.00  0.00     0.170 HD
BRANCH  29  33
ATOM     33  C2  NON d   1     -48.200  15.494  -4.331  0.00  0.00     0.120 C 
ATOM     34  C1  NON d   1     -49.438  15.006  -3.556  0.00  0.00     0.026 C 
ENDBRANCH  29  33
ENDBRANCH  25  27
ENDBRANCH   1  21
TORSDOF 6
ENDMDL
MODEL 9
REMARK VINA RESULT:   -11.327      2.403      4.652
REMARK INTER + INTRA:         -15.705
REMARK INTER:                 -13.117
REMARK INTRA:                  -2.588
REMARK CONF_INDEPENDENT:        1.790
REMARK UNBOUND:                -2.588
REMARK  6 active torsions:
REMARK  status: ('A' for Active; 'I' for Inactive)
REMARK    1  A    between atoms: C2_2  and  N1_3 
REMARK       I    between atoms: N1_3  and  C3_4 
REMARK       I    between atoms: C3_4  and  N2_6 
REMARK    2  A    between atoms: N2_6  and  C4_7 
REMARK    3  A    between atoms: C8_11  and  N3_12 
REMARK       I    between atoms: N3_12  and  C9_13 
REMARK    4  A    between atoms: C9_13  and  C10_15 
REMARK    5  A    between atoms: C15_20  and  C16_21 
REMARK    6  A    between atoms: C16_21  and  C17_23 
ROOT
ATOM      1  N3  NON d   1     -40.976  19.724  -3.053  0.00  0.00    -0.323 N 
ATOM      2  C9  NON d   1     -39.711  19.648  -2.483  0.00  0.00     0.257 C 
ATOM      3  O2  NON d   1     -38.985  18.666  -2.441  0.00  0.00    -0.267 OA
ATOM      4  H11 NON d   1     -41.416  20.634  -3.051  0.00  0.00     0.169 HD
ENDROOT
BRANCH   2   5
ATOM      5  C10 NON d   1     -39.218  20.981  -1.977  0.00  0.00     0.046 C 
ATOM      6  C11 NON d   1     -38.639  21.005  -0.686  0.00  0.00     0.018 C 
ATOM      7  C12 NON d   1     -38.040  22.158  -0.182  0.00  0.00     0.001 C 
ATOM      8  C13 NON d   1     -38.002  23.305  -0.963  0.00  0.00     0.001 C 
ATOM      9  C14 NON d   1     -38.600  23.306  -2.227  0.00  0.00     0.016 C 
ATOM     10  C15 NON d   1     -39.276  22.176  -2.724  0.00  0.00     0.030 C 
BRANCH  10  11
ATOM     11  C16 NON d   1     -39.864  22.228  -4.086  0.00  0.00     0.193 C 
ATOM     12  O3  NON d   1     -40.827  22.980  -4.236  0.00  0.00    -0.287 OA
BRANCH  11  13
ATOM     13  C17 NON d   1     -39.434  21.368  -5.252  0.00  0.00     0.015 C 
ATOM     14  C18 NON d   1     -38.269  20.600  -5.317  0.00  0.00     0.016 C 
ATOM     15  C19 NON d   1     -38.082  19.657  -6.348  0.00  0.00     0.008 C 
ATOM     16  C20 NON d   1     -39.022  19.490  -7.380  0.00  0.00    -0.056 C 
ATOM     17  C21 NON d   1     -38.867  18.380  -8.435  0.00  0.00     0.049 C 
ATOM     18  C22 NON d   1     -40.120  20.375  -7.408  0.00  0.00    -0.055 C 
ATOM     19  C23 NON d   1     -41.064  20.441  -8.578  0.00  0.00     0.049 C 
ATOM     20  C24 NON d   1     -40.321  21.280  -6.337  0.00  0.00     0.022 C 
ENDBRANCH  11  13
ENDBRANCH  10  11
ENDBRANCH   2   5
BRANCH   1  21
ATOM     21  C8  NON d   1     -41.718  18.728  -3.727  0.00  0.00     0.037 A 
ATOM     22  C7  NON d   1     -41.169  18.289  -4.942  0.00  0.00     0.029 A 
ATOM     23  C6  NON d   1     -41.796  17.301  -5.688  0.00  0.00     0.004 A 
ATOM     24  C5  NON d   1     -43.014  16.779  -5.258  0.00  0.00     0.029 A 
ATOM     25  C4  NON d   1     -43.624  17.240  -4.084  0.00  0.00     0.038 A 
ATOM     26  C25 NON d   1     -42.940  18.191  -3.294  0.00  0.00     0.059 A 
BRANCH  25  27
ATOM     27  N2  NON d   1     -44.913  16.789  -3.672  0.00  0.00    -0.309 N 
ATOM     28  C3  NON d   1     -45.977  16.505  -4.511  0.00  0.00     0.320 C 
ATOM     29  N1  NON d   1     -47.083  15.993  -3.834  0.00  0.00    -0.343 N 
ATOM     30  O1  NON d   1     -45.997  16.659  -5.728  0.00  0.00    -0.247 OA
ATOM     31  H6  NON d   1     -46.857  15.477  -2.995  0.00  0.00     0.164 HD
ATOM     32  H7  NON d   1     -45.122  16.866  -2.687  0.00  0.00     0.170 HD
BRANCH  29  33
ATOM     33  C2  NON d   1     -48.138  15.445  -4.676  0.00  0.00     0.120 C 
ATOM     34  C1  NON d   1     -49.429  14.975  -3.980  0.00  0.00     0.026 C 
ENDBRANCH  29  33
ENDBRANCH  25  27
ENDBRANCH   1  21
TORSDOF 6
ENDMDL
