MODEL 1
REMARK VINA RESULT:   -31.471      0.000      0.000
REMARK INTER + INTRA:         -34.276
REMARK INTER:                 -32.962
REMARK INTRA:                  -1.314
REMARK CONF_INDEPENDENT:        1.492
REMARK UNBOUND:                -1.314
REMARK  5 active torsions:
REMARK  status: ('A' for Active; 'I' for Inactive)
REMARK    1  A    between atoms: C2_4  and  N3_5 
REMARK       I    between atoms: N3_5  and  C3_6 
REMARK    2  A    between atoms: C3_6  and  C4_8 
REMARK    3  A    between atoms: C4_8  and  N4_9 
REMARK    4  A    between atoms: C6_11  and  C7_12 
REMARK    5  A    between atoms: C11_17  and  N6_18 
ROOT
ATOM      1  N4  NON d   1     -43.398  17.467  -4.123  0.00  0.00    -0.272 N 
ATOM      2  C5  NON d   1     -44.453  16.882  -3.473  0.00  0.00     0.126 C 
ATOM      3  C6  NON d   1     -45.605  17.279  -4.124  0.00  0.00     0.014 C 
ATOM      4  C12 NON d   1     -45.138  18.208  -5.081  0.00  0.00     0.152 C 
ATOM      5  N7  NON d   1     -43.811  18.354  -5.056  0.00  0.00    -0.184 NA
ENDROOT
BRANCH   1   6
ATOM      6  C4  NON d   1     -41.962  17.319  -3.903  0.00  0.00     0.253 C 
BRANCH   6   7
ATOM      7  C3  NON d   1     -41.073  18.431  -4.438  0.00  0.00     0.243 C 
ATOM      8  N3  NON d   1     -41.366  18.724  -5.765  0.00  0.00    -0.308 N 
ATOM      9  H4  NON d   1     -42.083  18.207  -6.254  0.00  0.00     0.170 HD
ATOM     10  O1  NON d   1     -40.222  18.985  -3.748  0.00  0.00    -0.271 OA
BRANCH   8  11
ATOM     11  C2  NON d   1     -40.733  19.705  -6.514  0.00  0.00     0.163 A 
ATOM     12  N2  NON d   1     -40.325  19.545  -7.773  0.00  0.00    -0.153 NA
ATOM     13  N1  NON d   1     -39.772  20.722  -8.106  0.00  0.00    -0.271 N 
ATOM     14  C1  NON d   1     -39.232  20.889  -9.435  0.00  0.00     0.180 C 
ATOM     15  C18 NON d   1     -39.808  21.660  -7.108  0.00  0.00     0.066 A 
ATOM     16  C17 NON d   1     -39.360  22.989  -7.044  0.00  0.00     0.032 A 
ATOM     17  C13 NON d   1     -40.432  21.020  -6.039  0.00  0.00     0.040 A 
ATOM     18  C16 NON d   1     -39.556  23.679  -5.844  0.00  0.00     0.002 A 
ATOM     19  C15 NON d   1     -40.175  23.065  -4.758  0.00  0.00     0.001 A 
ATOM     20  C14 NON d   1     -40.620  21.738  -4.838  0.00  0.00     0.018 A 
ENDBRANCH   8  11
ENDBRANCH   6   7
ENDBRANCH   1   6
BRANCH   3  21
ATOM     21  C7  NON d   1     -46.931  16.742  -3.844  0.00  0.00     0.013 A 
ATOM     22  C8  NON d   1     -47.355  16.696  -2.509  0.00  0.00     0.101 A 
ATOM     23  N5  NON d   1     -48.528  16.137  -2.176  0.00  0.00    -0.374 N 
ATOM     24  C9  NON d   1     -49.334  15.574  -3.084  0.00  0.00     0.089 A 
ATOM     25  H9  NON d   1     -48.800  16.121  -1.191  0.00  0.00     0.164 HD
ATOM     26  C10 NON d   1     -48.973  15.586  -4.424  0.00  0.00     0.041 A 
ATOM     27  C11 NON d   1     -47.794  16.224  -4.832  0.00  0.00     0.019 A 
BRANCH  27  28
ATOM     28  N6  NON d   1     -47.440  16.130  -6.185  0.00  0.00    -0.302 NA
ATOM     29  H12 NON d   1     -47.047  16.982  -6.582  0.00  0.00     0.124 HD
ATOM     30  H13 NON d   1     -48.140  15.737  -6.808  0.00  0.00     0.124 HD
ENDBRANCH  27  28
ENDBRANCH   3  21
TORSDOF 5
ENDMDL
MODEL 2
REMARK VINA RESULT:   -31.430      1.837      2.711
REMARK INTER + INTRA:         -33.419
REMARK INTER:                 -32.922
REMARK INTRA:                  -0.497
REMARK CONF_INDEPENDENT:        1.492
REMARK UNBOUND:                -0.497
REMARK  5 active torsions:
REMARK  status: ('A' for Active; 'I' for Inactive)
REMARK    1  A    between atoms: C2_4  and  N3_5 
REMARK       I    between atoms: N3_5  and  C3_6 
REMARK    2  A    between atoms: C3_6  and  C4_8 
REMARK    3  A    between atoms: C4_8  and  N4_9 
REMARK    4  A    between atoms: C6_11  and  C7_12 
REMARK    5  A    between atoms: C11_17  and  N6_18 
ROOT
ATOM      1  N4  NON d   1     -43.645  18.361  -4.942  0.00  0.00    -0.272 N 
ATOM      2  C5  NON d   1     -45.014  18.307  -4.932  0.00  0.00     0.126 C 
ATOM      3  C6  NON d   1     -45.373  17.145  -4.276  0.00  0.00     0.014 C 
ATOM      4  C12 NON d   1     -44.135  16.506  -4.039  0.00  0.00     0.152 C 
ATOM      5  N7  NON d   1     -43.094  17.218  -4.476  0.00  0.00    -0.184 NA
ENDROOT
BRANCH   1   6
ATOM      6  C4  NON d   1     -42.752  19.408  -5.430  0.00  0.00     0.253 C 
BRANCH   6   7
ATOM      7  C3  NON d   1     -41.375  18.963  -5.899  0.00  0.00     0.243 C 
ATOM      8  N3  NON d   1     -40.922  19.739  -6.960  0.00  0.00    -0.308 N 
ATOM      9  H4  NON d   1     -41.501  20.479  -7.333  0.00  0.00     0.170 HD
ATOM     10  O1  NON d   1     -40.765  18.038  -5.370  0.00  0.00    -0.271 OA
BRANCH   8  11
ATOM     11  C2  NON d   1     -39.693  19.581  -7.584  0.00  0.00     0.163 A 
ATOM     12  N2  NON d   1     -38.782  18.674  -7.233  0.00  0.00    -0.153 NA
ATOM     13  N1  NON d   1     -37.761  18.867  -8.083  0.00  0.00    -0.271 N 
ATOM     14  C1  NON d   1     -36.594  18.023  -7.977  0.00  0.00     0.180 C 
ATOM     15  C18 NON d   1     -37.972  19.870  -8.993  0.00  0.00     0.066 A 
ATOM     16  C17 NON d   1     -37.185  20.378 -10.038  0.00  0.00     0.032 A 
ATOM     17  C13 NON d   1     -39.238  20.366  -8.690  0.00  0.00     0.040 A 
ATOM     18  C16 NON d   1     -37.714  21.430 -10.791  0.00  0.00     0.002 A 
ATOM     19  C15 NON d   1     -38.976  21.949 -10.510  0.00  0.00     0.001 A 
ATOM     20  C14 NON d   1     -39.751  21.428  -9.465  0.00  0.00     0.018 A 
ENDBRANCH   8  11
ENDBRANCH   6   7
ENDBRANCH   1   6
BRANCH   3  21
ATOM     21  C7  NON d   1     -46.741  16.800  -3.908  0.00  0.00     0.013 A 
ATOM     22  C8  NON d   1     -47.100  16.880  -2.555  0.00  0.00     0.101 A 
ATOM     23  N5  NON d   1     -48.317  16.497  -2.140  0.00  0.00    -0.374 N 
ATOM     24  C9  NON d   1     -49.232  15.997  -2.978  0.00  0.00     0.089 A 
ATOM     25  H9  NON d   1     -48.539  16.569  -1.146  0.00  0.00     0.164 HD
ATOM     26  C10 NON d   1     -48.940  15.891  -4.331  0.00  0.00     0.041 A 
ATOM     27  C11 NON d   1     -47.712  16.348  -4.826  0.00  0.00     0.019 A 
BRANCH  27  28
ATOM     28  N6  NON d   1     -47.440  16.136  -6.185  0.00  0.00    -0.302 NA
ATOM     29  H12 NON d   1     -47.102  16.958  -6.684  0.00  0.00     0.124 HD
ATOM     30  H13 NON d   1     -48.164  15.666  -6.722  0.00  0.00     0.124 HD
ENDBRANCH  27  28
ENDBRANCH   3  21
TORSDOF 5
ENDMDL
MODEL 3
REMARK VINA RESULT:   -31.372      1.621      1.904
REMARK INTER + INTRA:         -34.168
REMARK INTER:                 -32.863
REMARK INTRA:                  -1.304
REMARK CONF_INDEPENDENT:        1.492
REMARK UNBOUND:                -1.304
REMARK  5 active torsions:
REMARK  status: ('A' for Active; 'I' for Inactive)
REMARK    1  A    between atoms: C2_4  and  N3_5 
REMARK       I    between atoms: N3_5  and  C3_6 
REMARK    2  A    between atoms: C3_6  and  C4_8 
REMARK    3  A    between atoms: C4_8  and  N4_9 
REMARK    4  A    between atoms: C6_11  and  C7_12 
REMARK    5  A    between atoms: C11_17  and  N6_18 
ROOT
ATOM      1  N4  NON d   1     -43.454  17.524  -3.854  0.00  0.00    -0.272 N 
ATOM      2  C5  NON d   1     -44.570  17.054  -3.212  0.00  0.00     0.126 C 
ATOM      3  C6  NON d   1     -45.641  17.242  -4.064  0.00  0.00     0.014 C 
ATOM      4  C12 NON d   1     -45.078  17.950  -5.149  0.00  0.00     0.152 C 
ATOM      5  N7  NON d   1     -43.766  18.157  -5.006  0.00  0.00    -0.184 NA
ENDROOT
BRANCH   1   6
ATOM      6  C4  NON d   1     -42.053  17.494  -3.442  0.00  0.00     0.253 C 
BRANCH   6   7
ATOM      7  C3  NON d   1     -41.105  18.423  -4.186  0.00  0.00     0.243 C 
ATOM      8  N3  NON d   1     -41.231  18.284  -5.563  0.00  0.00    -0.308 N 
ATOM      9  H4  NON d   1     -41.881  17.614  -5.950  0.00  0.00     0.170 HD
ATOM     10  O1  NON d   1     -40.348  19.195  -3.605  0.00  0.00    -0.271 OA
BRANCH   8  11
ATOM     11  C2  NON d   1     -40.510  19.013  -6.498  0.00  0.00     0.163 A 
ATOM     12  N2  NON d   1     -41.053  19.652  -7.534  0.00  0.00    -0.153 NA
ATOM     13  N1  NON d   1     -40.014  20.215  -8.171  0.00  0.00    -0.271 N 
ATOM     14  C1  NON d   1     -40.263  21.005  -9.355  0.00  0.00     0.180 C 
ATOM     15  C18 NON d   1     -38.799  19.975  -7.583  0.00  0.00     0.066 A 
ATOM     16  C17 NON d   1     -37.495  20.375  -7.912  0.00  0.00     0.032 A 
ATOM     17  C13 NON d   1     -39.090  19.180  -6.476  0.00  0.00     0.040 A 
ATOM     18  C16 NON d   1     -36.458  19.942  -7.080  0.00  0.00     0.002 A 
ATOM     19  C15 NON d   1     -36.718  19.144  -5.968  0.00  0.00     0.001 A 
ATOM     20  C14 NON d   1     -38.026  18.755  -5.651  0.00  0.00     0.018 A 
ENDBRANCH   8  11
ENDBRANCH   6   7
ENDBRANCH   1   6
BRANCH   3  21
ATOM     21  C7  NON d   1     -46.982  16.723  -3.822  0.00  0.00     0.013 A 
ATOM     22  C8  NON d   1     -47.440  16.673  -2.498  0.00  0.00     0.101 A 
ATOM     23  N5  NON d   1     -48.630  16.130  -2.199  0.00  0.00    -0.374 N 
ATOM     24  C9  NON d   1     -49.420  15.587  -3.132  0.00  0.00     0.089 A 
ATOM     25  H9  NON d   1     -48.927  16.111  -1.222  0.00  0.00     0.164 HD
ATOM     26  C10 NON d   1     -49.025  15.603  -4.462  0.00  0.00     0.041 A 
ATOM     27  C11 NON d   1     -47.827  16.226  -4.836  0.00  0.00     0.019 A 
BRANCH  27  28
ATOM     28  N6  NON d   1     -47.440  16.136  -6.180  0.00  0.00    -0.302 NA
ATOM     29  H12 NON d   1     -47.236  17.030  -6.624  0.00  0.00     0.124 HD
ATOM     30  H13 NON d   1     -48.029  15.566  -6.781  0.00  0.00     0.124 HD
ENDBRANCH  27  28
ENDBRANCH   3  21
TORSDOF 5
ENDMDL
MODEL 4
REMARK VINA RESULT:   -31.362      1.159      2.101
REMARK INTER + INTRA:         -34.255
REMARK INTER:                 -32.854
REMARK INTRA:                  -1.401
REMARK CONF_INDEPENDENT:        1.492
REMARK UNBOUND:                -1.401
REMARK  5 active torsions:
REMARK  status: ('A' for Active; 'I' for Inactive)
REMARK    1  A    between atoms: C2_4  and  N3_5 
REMARK       I    between atoms: N3_5  and  C3_6 
REMARK    2  A    between atoms: C3_6  and  C4_8 
REMARK    3  A    between atoms: C4_8  and  N4_9 
REMARK    4  A    between atoms: C6_11  and  C7_12 
REMARK    5  A    between atoms: C11_17  and  N6_18 
ROOT
ATOM      1  N4  NON d   1     -43.419  17.510  -3.929  0.00  0.00    -0.272 N 
ATOM      2  C5  NON d   1     -44.521  17.026  -3.273  0.00  0.00     0.126 C 
ATOM      3  C6  NON d   1     -45.614  17.254  -4.086  0.00  0.00     0.014 C 
ATOM      4  C12 NON d   1     -45.075  17.998  -5.160  0.00  0.00     0.152 C 
ATOM      5  N7  NON d   1     -43.758  18.189  -5.047  0.00  0.00    -0.184 NA
ENDROOT
BRANCH   1   6
ATOM      6  C4  NON d   1     -42.007  17.453  -3.559  0.00  0.00     0.253 C 
BRANCH   6   7
ATOM      7  C3  NON d   1     -41.075  18.413  -4.283  0.00  0.00     0.243 C 
ATOM      8  N3  NON d   1     -41.676  19.650  -4.487  0.00  0.00    -0.308 N 
ATOM      9  H4  NON d   1     -42.625  19.812  -4.182  0.00  0.00     0.170 HD
ATOM     10  O1  NON d   1     -39.936  18.101  -4.616  0.00  0.00    -0.271 OA
BRANCH   8  11
ATOM     11  C2  NON d   1     -41.063  20.732  -5.104  0.00  0.00     0.163 A 
ATOM     12  N2  NON d   1     -40.766  21.878  -4.492  0.00  0.00    -0.153 NA
ATOM     13  N1  NON d   1     -40.195  22.635  -5.442  0.00  0.00    -0.271 N 
ATOM     14  C1  NON d   1     -39.738  23.961  -5.098  0.00  0.00     0.180 C 
ATOM     15  C18 NON d   1     -40.098  22.022  -6.664  0.00  0.00     0.066 A 
ATOM     16  C17 NON d   1     -39.572  22.446  -7.894  0.00  0.00     0.032 A 
ATOM     17  C13 NON d   1     -40.666  20.763  -6.478  0.00  0.00     0.040 A 
ATOM     18  C16 NON d   1     -39.636  21.550  -8.966  0.00  0.00     0.002 A 
ATOM     19  C15 NON d   1     -40.200  20.286  -8.811  0.00  0.00     0.001 A 
ATOM     20  C14 NON d   1     -40.718  19.876  -7.574  0.00  0.00     0.018 A 
ENDBRANCH   8  11
ENDBRANCH   6   7
ENDBRANCH   1   6
BRANCH   3  21
ATOM     21  C7  NON d   1     -46.952  16.738  -3.825  0.00  0.00     0.013 A 
ATOM     22  C8  NON d   1     -47.394  16.695  -2.495  0.00  0.00     0.101 A 
ATOM     23  N5  NON d   1     -48.580  16.154  -2.179  0.00  0.00    -0.374 N 
ATOM     24  C9  NON d   1     -49.382  15.607  -3.098  0.00  0.00     0.089 A 
ATOM     25  H9  NON d   1     -48.865  16.140  -1.198  0.00  0.00     0.164 HD
ATOM     26  C10 NON d   1     -49.004  15.616  -4.434  0.00  0.00     0.041 A 
ATOM     27  C11 NON d   1     -47.811  16.236  -4.825  0.00  0.00     0.019 A 
BRANCH  27  28
ATOM     28  N6  NON d   1     -47.440  16.139  -6.174  0.00  0.00    -0.302 NA
ATOM     29  H12 NON d   1     -47.254  17.032  -6.629  0.00  0.00     0.124 HD
ATOM     30  H13 NON d   1     -48.029  15.556  -6.762  0.00  0.00     0.124 HD
ENDBRANCH  27  28
ENDBRANCH   3  21
TORSDOF 5
ENDMDL
MODEL 5
REMARK VINA RESULT:   -30.497      2.599      3.463
REMARK INTER + INTRA:         -33.232
REMARK INTER:                 -31.989
REMARK INTRA:                  -1.244
REMARK CONF_INDEPENDENT:        1.492
REMARK UNBOUND:                -1.244
REMARK  5 active torsions:
REMARK  status: ('A' for Active; 'I' for Inactive)
REMARK    1  A    between atoms: C2_4  and  N3_5 
REMARK       I    between atoms: N3_5  and  C3_6 
REMARK    2  A    between atoms: C3_6  and  C4_8 
REMARK    3  A    between atoms: C4_8  and  N4_9 
REMARK    4  A    between atoms: C6_11  and  C7_12 
REMARK    5  A    between atoms: C11_17  and  N6_18 
ROOT
ATOM      1  N4  NON d   1     -43.775  18.321  -5.014  0.00  0.00    -0.272 N 
ATOM      2  C5  NON d   1     -45.120  18.085  -5.129  0.00  0.00     0.126 C 
ATOM      3  C6  NON d   1     -45.465  17.189  -4.135  0.00  0.00     0.014 C 
ATOM      4  C12 NON d   1     -44.223  16.852  -3.552  0.00  0.00     0.152 C 
ATOM      5  N7  NON d   1     -43.197  17.502  -4.107  0.00  0.00    -0.184 NA
ENDROOT
BRANCH   1   6
ATOM      6  C4  NON d   1     -42.917  19.243  -5.754  0.00  0.00     0.253 C 
BRANCH   6   7
ATOM      7  C3  NON d   1     -41.427  19.170  -5.460  0.00  0.00     0.243 C 
ATOM      8  N3  NON d   1     -41.178  19.126  -4.093  0.00  0.00    -0.308 N 
ATOM      9  H4  NON d   1     -41.943  19.161  -3.435  0.00  0.00     0.170 HD
ATOM     10  O1  NON d   1     -40.580  19.142  -6.349  0.00  0.00    -0.271 OA
BRANCH   8  11
ATOM     11  C2  NON d   1     -39.915  19.038  -3.524  0.00  0.00     0.163 A 
ATOM     12  N2  NON d   1     -38.992  18.144  -3.877  0.00  0.00    -0.153 NA
ATOM     13  N1  NON d   1     -37.940  18.409  -3.086  0.00  0.00    -0.271 N 
ATOM     14  C1  NON d   1     -36.743  17.612  -3.225  0.00  0.00     0.180 C 
ATOM     15  C18 NON d   1     -38.136  19.457  -2.225  0.00  0.00     0.066 A 
ATOM     16  C17 NON d   1     -37.310  20.054  -1.260  0.00  0.00     0.032 A 
ATOM     17  C13 NON d   1     -39.433  19.894  -2.485  0.00  0.00     0.040 A 
ATOM     18  C16 NON d   1     -37.835  21.130  -0.538  0.00  0.00     0.002 A 
ATOM     19  C15 NON d   1     -39.129  21.587  -0.773  0.00  0.00     0.001 A 
ATOM     20  C14 NON d   1     -39.941  20.982  -1.743  0.00  0.00     0.018 A 
ENDBRANCH   8  11
ENDBRANCH   6   7
ENDBRANCH   1   6
BRANCH   3  21
ATOM     21  C7  NON d   1     -46.835  16.810  -3.814  0.00  0.00     0.013 A 
ATOM     22  C8  NON d   1     -47.242  16.880  -2.474  0.00  0.00     0.101 A 
ATOM     23  N5  NON d   1     -48.461  16.466  -2.100  0.00  0.00    -0.374 N 
ATOM     24  C9  NON d   1     -49.335  15.944  -2.968  0.00  0.00     0.089 A 
ATOM     25  H9  NON d   1     -48.719  16.532  -1.113  0.00  0.00     0.164 HD
ATOM     26  C10 NON d   1     -48.995  15.846  -4.310  0.00  0.00     0.041 A 
ATOM     27  C11 NON d   1     -47.762  16.334  -4.764  0.00  0.00     0.019 A 
BRANCH  27  28
ATOM     28  N6  NON d   1     -47.440  16.130  -6.113  0.00  0.00    -0.302 NA
ATOM     29  H12 NON d   1     -47.065  16.949  -6.589  0.00  0.00     0.124 HD
ATOM     30  H13 NON d   1     -48.152  15.681  -6.683  0.00  0.00     0.124 HD
ENDBRANCH  27  28
ENDBRANCH   3  21
TORSDOF 5
ENDMDL
MODEL 6
REMARK VINA RESULT:   -30.212      2.236      2.853
REMARK INTER + INTRA:         -32.311
REMARK INTER:                 -31.704
REMARK INTRA:                  -0.607
REMARK CONF_INDEPENDENT:        1.492
REMARK UNBOUND:                -0.607
REMARK  5 active torsions:
REMARK  status: ('A' for Active; 'I' for Inactive)
REMARK    1  A    between atoms: C2_4  and  N3_5 
REMARK       I    between atoms: N3_5  and  C3_6 
REMARK    2  A    between atoms: C3_6  and  C4_8 
REMARK    3  A    between atoms: C4_8  and  N4_9 
REMARK    4  A    between atoms: C6_11  and  C7_12 
REMARK    5  A    between atoms: C11_17  and  N6_18 
ROOT
ATOM      1  N4  NON d   1     -43.455  17.561  -3.882  0.00  0.00    -0.272 N 
ATOM      2  C5  NON d   1     -44.559  17.074  -3.234  0.00  0.00     0.126 C 
ATOM      3  C6  NON d   1     -45.640  17.253  -4.076  0.00  0.00     0.014 C 
ATOM      4  C12 NON d   1     -45.095  17.975  -5.161  0.00  0.00     0.152 C 
ATOM      5  N7  NON d   1     -43.785  18.198  -5.028  0.00  0.00    -0.184 NA
ENDROOT
BRANCH   1   6
ATOM      6  C4  NON d   1     -42.050  17.546  -3.483  0.00  0.00     0.253 C 
BRANCH   6   7
ATOM      7  C3  NON d   1     -41.185  18.688  -3.994  0.00  0.00     0.243 C 
ATOM      8  N3  NON d   1     -40.947  19.632  -3.001  0.00  0.00    -0.308 N 
ATOM      9  H4  NON d   1     -41.349  19.515  -2.082  0.00  0.00     0.170 HD
ATOM     10  O1  NON d   1     -40.758  18.728  -5.144  0.00  0.00    -0.271 OA
BRANCH   8  11
ATOM     11  C2  NON d   1     -40.176  20.773  -3.167  0.00  0.00     0.163 A 
ATOM     12  N2  NON d   1     -39.582  21.121  -4.308  0.00  0.00    -0.153 NA
ATOM     13  N1  NON d   1     -38.950  22.271  -4.029  0.00  0.00    -0.271 N 
ATOM     14  C1  NON d   1     -38.204  22.932  -5.075  0.00  0.00     0.180 C 
ATOM     15  C18 NON d   1     -39.113  22.701  -2.737  0.00  0.00     0.066 A 
ATOM     16  C17 NON d   1     -38.642  23.831  -2.051  0.00  0.00     0.032 A 
ATOM     17  C13 NON d   1     -39.916  21.732  -2.138  0.00  0.00     0.040 A 
ATOM     18  C16 NON d   1     -39.003  23.967  -0.707  0.00  0.00     0.002 A 
ATOM     19  C15 NON d   1     -39.802  23.013  -0.080  0.00  0.00     0.001 A 
ATOM     20  C14 NON d   1     -40.267  21.891  -0.780  0.00  0.00     0.018 A 
ENDBRANCH   8  11
ENDBRANCH   6   7
ENDBRANCH   1   6
BRANCH   3  21
ATOM     21  C7  NON d   1     -46.972  16.716  -3.825  0.00  0.00     0.013 A 
ATOM     22  C8  NON d   1     -47.420  16.656  -2.498  0.00  0.00     0.101 A 
ATOM     23  N5  NON d   1     -48.600  16.096  -2.192  0.00  0.00    -0.374 N 
ATOM     24  C9  NON d   1     -49.390  15.545  -3.121  0.00  0.00     0.089 A 
ATOM     25  H9  NON d   1     -48.890  16.070  -1.213  0.00  0.00     0.164 HD
ATOM     26  C10 NON d   1     -49.006  15.571  -4.454  0.00  0.00     0.041 A 
ATOM     27  C11 NON d   1     -47.819  16.211  -4.834  0.00  0.00     0.019 A 
BRANCH  27  28
ATOM     28  N6  NON d   1     -47.440  16.130  -6.181  0.00  0.00    -0.302 NA
ATOM     29  H12 NON d   1     -46.956  16.953  -6.537  0.00  0.00     0.124 HD
ATOM     30  H13 NON d   1     -48.159  15.830  -6.834  0.00  0.00     0.124 HD
ENDBRANCH  27  28
ENDBRANCH   3  21
TORSDOF 5
ENDMDL
MODEL 7
REMARK VINA RESULT:   -29.580      2.767      3.977
REMARK INTER + INTRA:         -32.367
REMARK INTER:                 -31.072
REMARK INTRA:                  -1.295
REMARK CONF_INDEPENDENT:        1.492
REMARK UNBOUND:                -1.295
REMARK  5 active torsions:
REMARK  status: ('A' for Active; 'I' for Inactive)
REMARK    1  A    between atoms: C2_4  and  N3_5 
REMARK       I    between atoms: N3_5  and  C3_6 
REMARK    2  A    between atoms: C3_6  and  C4_8 
REMARK    3  A    between atoms: C4_8  and  N4_9 
REMARK    4  A    between atoms: C6_11  and  C7_12 
REMARK    5  A    between atoms: C11_17  and  N6_18 
ROOT
ATOM      1  N4  NON d   1     -43.426  18.231  -5.006  0.00  0.00    -0.272 N 
ATOM      2  C5  NON d   1     -44.768  18.009  -5.175  0.00  0.00     0.126 C 
ATOM      3  C6  NON d   1     -45.194  17.241  -4.108  0.00  0.00     0.014 C 
ATOM      4  C12 NON d   1     -43.998  16.950  -3.415  0.00  0.00     0.152 C 
ATOM      5  N7  NON d   1     -42.924  17.512  -3.977  0.00  0.00    -0.184 NA
ENDROOT
BRANCH   1   6
ATOM      6  C4  NON d   1     -42.503  19.044  -5.793  0.00  0.00     0.253 C 
BRANCH   6   7
ATOM      7  C3  NON d   1     -41.169  19.379  -5.144  0.00  0.00     0.243 C 
ATOM      8  N3  NON d   1     -41.292  19.519  -3.767  0.00  0.00    -0.308 N 
ATOM      9  H4  NON d   1     -42.194  19.415  -3.323  0.00  0.00     0.170 HD
ATOM     10  O1  NON d   1     -40.131  19.491  -5.790  0.00  0.00    -0.271 OA
BRANCH   8  11
ATOM     11  C2  NON d   1     -40.243  19.806  -2.906  0.00  0.00     0.163 A 
ATOM     12  N2  NON d   1     -40.332  20.623  -1.857  0.00  0.00    -0.153 NA
ATOM     13  N1  NON d   1     -39.105  20.615  -1.312  0.00  0.00    -0.271 N 
ATOM     14  C1  NON d   1     -38.861  21.405  -0.128  0.00  0.00     0.180 C 
ATOM     15  C18 NON d   1     -38.207  19.811  -1.965  0.00  0.00     0.066 A 
ATOM     16  C17 NON d   1     -36.856  19.516  -1.726  0.00  0.00     0.032 A 
ATOM     17  C13 NON d   1     -38.925  19.263  -3.026  0.00  0.00     0.040 A 
ATOM     18  C16 NON d   1     -36.223  18.634  -2.607  0.00  0.00     0.002 A 
ATOM     19  C15 NON d   1     -36.913  18.073  -3.679  0.00  0.00     0.001 A 
ATOM     20  C14 NON d   1     -38.264  18.375  -3.902  0.00  0.00     0.018 A 
ENDBRANCH   8  11
ENDBRANCH   6   7
ENDBRANCH   1   6
BRANCH   3  21
ATOM     21  C7  NON d   1     -46.590  16.928  -3.830  0.00  0.00     0.013 A 
ATOM     22  C8  NON d   1     -47.006  16.903  -2.491  0.00  0.00     0.101 A 
ATOM     23  N5  NON d   1     -48.255  16.541  -2.163  0.00  0.00    -0.374 N 
ATOM     24  C9  NON d   1     -49.152  16.160  -3.080  0.00  0.00     0.089 A 
ATOM     25  H9  NON d   1     -48.518  16.533  -1.176  0.00  0.00     0.164 HD
ATOM     26  C10 NON d   1     -48.804  16.163  -4.424  0.00  0.00     0.041 A 
ATOM     27  C11 NON d   1     -47.537  16.605  -4.824  0.00  0.00     0.019 A 
BRANCH  27  28
ATOM     28  N6  NON d   1     -47.213  16.505  -6.185  0.00  0.00    -0.302 NA
ATOM     29  H12 NON d   1     -47.067  17.397  -6.654  0.00  0.00     0.124 HD
ATOM     30  H13 NON d   1     -47.808  15.901  -6.746  0.00  0.00     0.124 HD
ENDBRANCH  27  28
ENDBRANCH   3  21
TORSDOF 5
ENDMDL
MODEL 8
REMARK VINA RESULT:   -29.443      3.774     10.479
REMARK INTER + INTRA:         -31.575
REMARK INTER:                 -30.934
REMARK INTRA:                  -0.641
REMARK CONF_INDEPENDENT:        1.492
REMARK UNBOUND:                -0.641
REMARK  5 active torsions:
REMARK  status: ('A' for Active; 'I' for Inactive)
REMARK    1  A    between atoms: C2_4  and  N3_5 
REMARK       I    between atoms: N3_5  and  C3_6 
REMARK    2  A    between atoms: C3_6  and  C4_8 
REMARK    3  A    between atoms: C4_8  and  N4_9 
REMARK    4  A    between atoms: C6_11  and  C7_12 
REMARK    5  A    between atoms: C11_17  and  N6_18 
ROOT
ATOM      1  N4  NON d   1     -47.298  16.136  -4.154  0.00  0.00    -0.272 N 
ATOM      2  C5  NON d   1     -46.016  16.307  -3.701  0.00  0.00     0.126 C 
ATOM      3  C6  NON d   1     -45.317  16.972  -4.690  0.00  0.00     0.014 C 
ATOM      4  C12 NON d   1     -46.244  17.045  -5.754  0.00  0.00     0.152 C 
ATOM      5  N7  NON d   1     -47.426  16.505  -5.448  0.00  0.00    -0.184 NA
ENDROOT
BRANCH   1   6
ATOM      6  C4  NON d   1     -48.464  15.571  -3.481  0.00  0.00     0.253 C 
BRANCH   6   7
ATOM      7  C3  NON d   1     -49.092  16.417  -2.384  0.00  0.00     0.243 C 
ATOM      8  N3  NON d   1     -50.469  16.524  -2.547  0.00  0.00    -0.308 N 
ATOM      9  H4  NON d   1     -50.924  16.081  -3.333  0.00  0.00     0.170 HD
ATOM     10  O1  NON d   1     -48.433  16.915  -1.476  0.00  0.00    -0.271 OA
BRANCH   8  11
ATOM     11  C2  NON d   1     -51.313  17.217  -1.692  0.00  0.00     0.163 A 
ATOM     12  N2  NON d   1     -50.910  17.861  -0.596  0.00  0.00    -0.153 NA
ATOM     13  N1  NON d   1     -52.032  18.381  -0.074  0.00  0.00    -0.271 N 
ATOM     14  C1  NON d   1     -51.941  19.164   1.137  0.00  0.00     0.180 C 
ATOM     15  C18 NON d   1     -53.165  18.108  -0.795  0.00  0.00     0.066 A 
ATOM     16  C17 NON d   1     -54.511  18.461  -0.609  0.00  0.00     0.032 A 
ATOM     17  C13 NON d   1     -52.727  17.337  -1.869  0.00  0.00     0.040 A 
ATOM     18  C16 NON d   1     -55.434  18.004  -1.554  0.00  0.00     0.002 A 
ATOM     19  C15 NON d   1     -55.026  17.229  -2.637  0.00  0.00     0.001 A 
ATOM     20  C14 NON d   1     -53.678  16.887  -2.810  0.00  0.00     0.018 A 
ENDBRANCH   8  11
ENDBRANCH   6   7
ENDBRANCH   1   6
BRANCH   3  21
ATOM     21  C7  NON d   1     -43.964  17.490  -4.530  0.00  0.00     0.013 A 
ATOM     22  C8  NON d   1     -43.061  16.749  -3.756  0.00  0.00     0.101 A 
ATOM     23  N5  NON d   1     -41.828  17.211  -3.501  0.00  0.00    -0.374 N 
ATOM     24  C9  NON d   1     -41.409  18.403  -3.940  0.00  0.00     0.089 A 
ATOM     25  H9  NON d   1     -41.201  16.641  -2.931  0.00  0.00     0.164 HD
ATOM     26  C10 NON d   1     -42.254  19.187  -4.713  0.00  0.00     0.041 A 
ATOM     27  C11 NON d   1     -43.524  18.716  -5.070  0.00  0.00     0.019 A 
BRANCH  27  28
ATOM     28  N6  NON d   1     -44.364  19.587  -5.778  0.00  0.00    -0.302 NA
ATOM     29  H12 NON d   1     -45.330  19.602  -5.456  0.00  0.00     0.124 HD
ATOM     30  H13 NON d   1     -44.328  19.523  -6.792  0.00  0.00     0.124 HD
ENDBRANCH  27  28
ENDBRANCH   3  21
TORSDOF 5
ENDMDL
MODEL 9
REMARK VINA RESULT:   -28.554      2.016      2.789
REMARK INTER + INTRA:         -31.000
REMARK INTER:                 -30.045
REMARK INTRA:                  -0.954
REMARK CONF_INDEPENDENT:        1.492
REMARK UNBOUND:                -0.954
REMARK  5 active torsions:
REMARK  status: ('A' for Active; 'I' for Inactive)
REMARK    1  A    between atoms: C2_4  and  N3_5 
REMARK       I    between atoms: N3_5  and  C3_6 
REMARK    2  A    between atoms: C3_6  and  C4_8 
REMARK    3  A    between atoms: C4_8  and  N4_9 
REMARK    4  A    between atoms: C6_11  and  C7_12 
REMARK    5  A    between atoms: C11_17  and  N6_18 
ROOT
ATOM      1  N4  NON d   1     -43.265  17.278  -4.082  0.00  0.00    -0.272 N 
ATOM      2  C5  NON d   1     -44.380  16.860  -3.404  0.00  0.00     0.126 C 
ATOM      3  C6  NON d   1     -45.480  17.254  -4.142  0.00  0.00     0.014 C 
ATOM      4  C12 NON d   1     -44.916  18.016  -5.190  0.00  0.00     0.152 C 
ATOM      5  N7  NON d   1     -43.583  18.067  -5.133  0.00  0.00    -0.184 NA
ENDROOT
BRANCH   1   6
ATOM      6  C4  NON d   1     -41.852  17.055  -3.791  0.00  0.00     0.253 C 
BRANCH   6   7
ATOM      7  C3  NON d   1     -41.103  18.202  -3.132  0.00  0.00     0.243 C 
ATOM      8  N3  NON d   1     -40.897  19.253  -4.018  0.00  0.00    -0.308 N 
ATOM      9  H4  NON d   1     -41.217  19.184  -4.974  0.00  0.00     0.170 HD
ATOM     10  O1  NON d   1     -40.754  18.172  -1.955  0.00  0.00    -0.271 OA
BRANCH   8  11
ATOM     11  C2  NON d   1     -40.258  20.442  -3.696  0.00  0.00     0.163 A 
ATOM     12  N2  NON d   1     -40.659  21.276  -2.736  0.00  0.00    -0.153 NA
ATOM     13  N1  NON d   1     -39.773  22.283  -2.766  0.00  0.00    -0.271 N 
ATOM     14  C1  NON d   1     -39.918  23.370  -1.825  0.00  0.00     0.180 C 
ATOM     15  C18 NON d   1     -38.792  22.139  -3.711  0.00  0.00     0.066 A 
ATOM     16  C17 NON d   1     -37.692  22.938  -4.060  0.00  0.00     0.032 A 
ATOM     17  C13 NON d   1     -39.084  20.934  -4.347  0.00  0.00     0.040 A 
ATOM     18  C16 NON d   1     -36.870  22.486  -5.098  0.00  0.00     0.002 A 
ATOM     19  C15 NON d   1     -37.139  21.288  -5.754  0.00  0.00     0.001 A 
ATOM     20  C14 NON d   1     -38.239  20.499  -5.392  0.00  0.00     0.018 A 
ENDBRANCH   8  11
ENDBRANCH   6   7
ENDBRANCH   1   6
BRANCH   3  21
ATOM     21  C7  NON d   1     -46.851  16.856  -3.847  0.00  0.00     0.013 A 
ATOM     22  C8  NON d   1     -47.266  16.862  -2.508  0.00  0.00     0.101 A 
ATOM     23  N5  NON d   1     -48.486  16.427  -2.161  0.00  0.00    -0.374 N 
ATOM     24  C9  NON d   1     -49.352  15.942  -3.058  0.00  0.00     0.089 A 
ATOM     25  H9  NON d   1     -48.749  16.446  -1.174  0.00  0.00     0.164 HD
ATOM     26  C10 NON d   1     -49.004  15.908  -4.401  0.00  0.00     0.041 A 
ATOM     27  C11 NON d   1     -47.771  16.421  -4.824  0.00  0.00     0.019 A 
BRANCH  27  28
ATOM     28  N6  NON d   1     -47.440  16.281  -6.179  0.00  0.00    -0.302 NA
ATOM     29  H12 NON d   1     -47.296  15.320  -6.485  0.00  0.00     0.124 HD
ATOM     30  H13 NON d   1     -46.694  16.879  -6.525  0.00  0.00     0.124 HD
ENDBRANCH  27  28
ENDBRANCH   3  21
TORSDOF 5
ENDMDL
