MODEL 1
REMARK VINA RESULT:    -9.351      0.000      0.000
REMARK INTER + INTRA:         -13.508
REMARK INTER:                 -11.141
REMARK INTRA:                  -2.367
REMARK CONF_INDEPENDENT:        1.790
REMARK UNBOUND:                -2.367
REMARK  6 active torsions:
REMARK  status: ('A' for Active; 'I' for Inactive)
REMARK    1  A    between atoms: C5_5  and  N1_6 
REMARK       I    between atoms: N1_6  and  C6_7 
REMARK    2  A    between atoms: C7_9  and  C6_7 
REMARK    3  A    between atoms: C7_9  and  C8_10 
REMARK    4  A    between atoms: C7_9  and  N2_14 
REMARK    5  A    between atoms: C8_10  and  C9_11 
REMARK       I    between atoms: N2_14  and  C12_15 
REMARK    6  A    between atoms: C13_17  and  C12_15 
ROOT
ATOM      1  C7  NON d   1     -42.016  17.877  -3.931  0.00  0.00     0.155 C 
ENDROOT
BRANCH   1   2
ATOM      2  C6  NON d   1     -41.240  18.230  -5.213  0.00  0.00     0.240 C 
ATOM      3  N1  NON d   1     -40.053  18.982  -5.296  0.00  0.00    -0.325 N 
ATOM      4  H6  NON d   1     -39.651  19.336  -4.439  0.00  0.00     0.169 HD
ATOM      5  O1  NON d   1     -41.532  17.349  -6.053  0.00  0.00    -0.271 OA
BRANCH   3   6
ATOM      6  C5  NON d   1     -39.207  19.141  -6.496  0.00  0.00     0.040 A 
ATOM      7  C4  NON d   1     -37.841  18.755  -6.556  0.00  0.00     0.030 A 
ATOM      8  C3  NON d   1     -36.942  18.960  -7.722  0.00  0.00     0.009 A 
ATOM      9  C2  NON d   1     -37.321  19.597  -8.919  0.00  0.00    -0.061 A 
ATOM     10  C1  NON d   1     -36.423  19.972 -10.113  0.00  0.00     0.048 C 
ATOM     11  C24 NON d   1     -38.730  19.975  -8.826  0.00  0.00     0.015 A 
ATOM     12  C22 NON d   1     -39.664  19.751  -7.654  0.00  0.00    -0.035 A 
ATOM     13  C23 NON d   1     -41.109  20.279  -7.582  0.00  0.00     0.050 C 
ENDBRANCH   3   6
ENDBRANCH   1   2
BRANCH   1  14
ATOM     14  C8  NON d   1     -43.119  16.692  -4.157  0.00  0.00     0.033 C 
BRANCH  14  15
ATOM     15  C9  NON d   1     -44.647  17.593  -4.266  0.00  0.00    -0.021 C 
ATOM     16  C10 NON d   1     -44.697  18.785  -5.302  0.00  0.00     0.009 C 
ATOM     17  C11 NON d   1     -45.539  16.620  -5.059  0.00  0.00     0.009 C 
ENDBRANCH  14  15
ENDBRANCH   1  14
BRANCH   1  18
ATOM     18  N2  NON d   1     -40.823  17.857  -2.977  0.00  0.00    -0.247 NA
ATOM     19  C12 NON d   1     -40.769  18.707  -1.864  0.00  0.00     0.231 C 
ATOM     20  O2  NON d   1     -41.439  18.464  -0.870  0.00  0.00    -0.277 OA
ATOM     21  H17 NON d   1     -39.989  17.928  -3.557  0.00  0.00     0.131 HD
BRANCH  19  22
ATOM     22  C13 NON d   1     -39.959  20.044  -2.070  0.00  0.00     0.310 C 
ATOM     23  C14 NON d   1     -40.675  20.987  -3.084  0.00  0.00     0.084 C 
ATOM     24  C15 NON d   1     -40.606  22.459  -2.773  0.00  0.00    -0.048 A 
ATOM     25  C16 NON d   1     -40.821  23.427  -3.768  0.00  0.00     0.008 A 
ATOM     26  C20 NON d   1     -40.407  22.861  -1.445  0.00  0.00    -0.024 A 
ATOM     27  C17 NON d   1     -40.830  24.785  -3.449  0.00  0.00     0.001 A 
ATOM     28  C18 NON d   1     -40.632  25.187  -2.131  0.00  0.00     0.001 A 
ATOM     29  C19 NON d   1     -40.426  24.228  -1.138  0.00  0.00     0.009 A 
ATOM     30  C21 NON d   1     -40.314  21.805  -0.376  0.00  0.00     0.309 C 
ATOM     31  N3  NON d   1     -39.541  20.631  -0.777  0.00  0.00     0.101 N 
ATOM     32  H27 NON d   1     -39.587  19.939  -0.035  0.00  0.00     0.317 HD
ENDBRANCH  19  22
ENDBRANCH   1  18
TORSDOF 6
ENDMDL
MODEL 2
REMARK VINA RESULT:    -9.223      1.252      1.802
REMARK INTER + INTRA:         -13.488
REMARK INTER:                 -11.012
REMARK INTRA:                  -2.476
REMARK CONF_INDEPENDENT:        1.790
REMARK UNBOUND:                -2.476
REMARK  6 active torsions:
REMARK  status: ('A' for Active; 'I' for Inactive)
REMARK    1  A    between atoms: C5_5  and  N1_6 
REMARK       I    between atoms: N1_6  and  C6_7 
REMARK    2  A    between atoms: C7_9  and  C6_7 
REMARK    3  A    between atoms: C7_9  and  C8_10 
REMARK    4  A    between atoms: C7_9  and  N2_14 
REMARK    5  A    between atoms: C8_10  and  C9_11 
REMARK       I    between atoms: N2_14  and  C12_15 
REMARK    6  A    between atoms: C13_17  and  C12_15 
ROOT
ATOM      1  C7  NON d   1     -42.197  18.290  -4.251  0.00  0.00     0.155 C 
ENDROOT
BRANCH   1   2
ATOM      2  C6  NON d   1     -41.747  19.301  -5.321  0.00  0.00     0.240 C 
ATOM      3  N1  NON d   1     -40.430  19.519  -5.770  0.00  0.00    -0.325 N 
ATOM      4  H6  NON d   1     -39.689  18.966  -5.362  0.00  0.00     0.169 HD
ATOM      5  O1  NON d   1     -42.744  19.505  -6.051  0.00  0.00    -0.271 OA
BRANCH   3   6
ATOM      6  C5  NON d   1     -40.033  20.336  -6.935  0.00  0.00     0.040 A 
ATOM      7  C4  NON d   1     -40.199  21.744  -7.005  0.00  0.00     0.030 A 
ATOM      8  C3  NON d   1     -39.873  22.589  -8.183  0.00  0.00     0.009 A 
ATOM      9  C2  NON d   1     -39.382  22.095  -9.408  0.00  0.00    -0.061 A 
ATOM     10  C1  NON d   1     -39.152  22.875 -10.716  0.00  0.00     0.048 C 
ATOM     11  C24 NON d   1     -39.218  20.646  -9.299  0.00  0.00     0.015 A 
ATOM     12  C22 NON d   1     -39.523  19.776  -8.097  0.00  0.00    -0.035 A 
ATOM     13  C23 NON d   1     -39.435  18.239  -8.092  0.00  0.00     0.050 C 
ENDBRANCH   3   6
ENDBRANCH   1   2
BRANCH   1  14
ATOM     14  C8  NON d   1     -43.113  17.081  -4.859  0.00  0.00     0.033 C 
BRANCH  14  15
ATOM     15  C9  NON d   1     -44.766  17.710  -4.679  0.00  0.00    -0.021 C 
ATOM     16  C10 NON d   1     -45.911  16.927  -5.435  0.00  0.00     0.009 C 
ATOM     17  C11 NON d   1     -45.133  17.248  -3.256  0.00  0.00     0.009 C 
ENDBRANCH  14  15
ENDBRANCH   1  14
BRANCH   1  18
ATOM     18  N2  NON d   1     -40.858  18.158  -3.528  0.00  0.00    -0.247 NA
ATOM     19  C12 NON d   1     -40.621  18.817  -2.314  0.00  0.00     0.231 C 
ATOM     20  O2  NON d   1     -41.108  18.391  -1.276  0.00  0.00    -0.277 OA
ATOM     21  H17 NON d   1     -40.137  18.353  -4.219  0.00  0.00     0.131 HD
BRANCH  19  22
ATOM     22  C13 NON d   1     -39.869  20.198  -2.426  0.00  0.00     0.310 C 
ATOM     23  C14 NON d   1     -40.691  21.221  -3.267  0.00  0.00     0.084 C 
ATOM     24  C15 NON d   1     -40.640  22.651  -2.797  0.00  0.00    -0.048 A 
ATOM     25  C16 NON d   1     -40.962  23.715  -3.654  0.00  0.00     0.008 A 
ATOM     26  C20 NON d   1     -40.346  22.908  -1.450  0.00  0.00    -0.024 A 
ATOM     27  C17 NON d   1     -40.984  25.027  -3.183  0.00  0.00     0.001 A 
ATOM     28  C18 NON d   1     -40.693  25.286  -1.846  0.00  0.00     0.001 A 
ATOM     29  C19 NON d   1     -40.380  24.231  -0.988  0.00  0.00     0.009 A 
ATOM     30  C21 NON d   1     -40.137  21.743  -0.520  0.00  0.00     0.309 C 
ATOM     31  N3  NON d   1     -39.365  20.651  -1.110  0.00  0.00     0.101 N 
ATOM     32  H27 NON d   1     -39.332  19.880  -0.451  0.00  0.00     0.317 HD
ENDBRANCH  19  22
ENDBRANCH   1  18
TORSDOF 6
ENDMDL
MODEL 3
REMARK VINA RESULT:    -8.980      0.969      1.513
REMARK INTER + INTRA:         -13.730
REMARK INTER:                 -10.769
REMARK INTRA:                  -2.961
REMARK CONF_INDEPENDENT:        1.790
REMARK UNBOUND:                -2.961
REMARK  6 active torsions:
REMARK  status: ('A' for Active; 'I' for Inactive)
REMARK    1  A    between atoms: C5_5  and  N1_6 
REMARK       I    between atoms: N1_6  and  C6_7 
REMARK    2  A    between atoms: C7_9  and  C6_7 
REMARK    3  A    between atoms: C7_9  and  C8_10 
REMARK    4  A    between atoms: C7_9  and  N2_14 
REMARK    5  A    between atoms: C8_10  and  C9_11 
REMARK       I    between atoms: N2_14  and  C12_15 
REMARK    6  A    between atoms: C13_17  and  C12_15 
ROOT
ATOM      1  C7  NON d   1     -42.197  18.036  -3.842  0.00  0.00     0.155 C 
ENDROOT
BRANCH   1   2
ATOM      2  C6  NON d   1     -41.524  18.512  -5.143  0.00  0.00     0.240 C 
ATOM      3  N1  NON d   1     -41.411  19.842  -5.591  0.00  0.00    -0.325 N 
ATOM      4  H6  NON d   1     -41.803  20.575  -5.016  0.00  0.00     0.169 HD
ATOM      5  O1  NON d   1     -40.690  17.630  -5.448  0.00  0.00    -0.271 OA
BRANCH   3   6
ATOM      6  C5  NON d   1     -40.590  20.309  -6.726  0.00  0.00     0.040 A 
ATOM      7  C4  NON d   1     -41.116  20.612  -8.010  0.00  0.00     0.030 A 
ATOM      8  C3  NON d   1     -40.313  21.020  -9.192  0.00  0.00     0.009 A 
ATOM      9  C2  NON d   1     -38.909  21.130  -9.203  0.00  0.00    -0.061 A 
ATOM     10  C1  NON d   1     -37.994  21.408 -10.411  0.00  0.00     0.048 C 
ATOM     11  C24 NON d   1     -38.402  20.818  -7.868  0.00  0.00     0.015 A 
ATOM     12  C22 NON d   1     -39.210  20.425  -6.649  0.00  0.00    -0.035 A 
ATOM     13  C23 NON d   1     -38.598  19.998  -5.302  0.00  0.00     0.050 C 
ENDBRANCH   3   6
ENDBRANCH   1   2
BRANCH   1  14
ATOM     14  C8  NON d   1     -43.306  16.861  -4.089  0.00  0.00     0.033 C 
BRANCH  14  15
ATOM     15  C9  NON d   1     -44.811  17.781  -4.310  0.00  0.00    -0.021 C 
ATOM     16  C10 NON d   1     -44.804  18.896  -5.429  0.00  0.00     0.009 C 
ATOM     17  C11 NON d   1     -45.699  16.770  -5.060  0.00  0.00     0.009 C 
ENDBRANCH  14  15
ENDBRANCH   1  14
BRANCH   1  18
ATOM     18  N2  NON d   1     -40.934  17.946  -2.987  0.00  0.00    -0.247 NA
ATOM     19  C12 NON d   1     -40.779  18.732  -1.837  0.00  0.00     0.231 C 
ATOM     20  O2  NON d   1     -41.374  18.443  -0.808  0.00  0.00    -0.277 OA
ATOM     21  H17 NON d   1     -40.147  18.039  -3.625  0.00  0.00     0.131 HD
BRANCH  19  22
ATOM     22  C13 NON d   1     -39.965  20.068  -2.032  0.00  0.00     0.310 C 
ATOM     23  C14 NON d   1     -40.690  21.032  -3.019  0.00  0.00     0.084 C 
ATOM     24  C15 NON d   1     -40.608  22.498  -2.685  0.00  0.00    -0.048 A 
ATOM     25  C16 NON d   1     -40.832  23.484  -3.659  0.00  0.00     0.008 A 
ATOM     26  C20 NON d   1     -40.387  22.877  -1.352  0.00  0.00    -0.024 A 
ATOM     27  C17 NON d   1     -40.828  24.837  -3.318  0.00  0.00     0.001 A 
ATOM     28  C18 NON d   1     -40.609  25.215  -1.996  0.00  0.00     0.001 A 
ATOM     29  C19 NON d   1     -40.394  24.238  -1.023  0.00  0.00     0.009 A 
ATOM     30  C21 NON d   1     -40.285  21.802  -0.303  0.00  0.00     0.309 C 
ATOM     31  N3  NON d   1     -39.525  20.630  -0.735  0.00  0.00     0.101 N 
ATOM     32  H27 NON d   1     -39.564  19.927  -0.005  0.00  0.00     0.317 HD
ENDBRANCH  19  22
ENDBRANCH   1  18
TORSDOF 6
ENDMDL
MODEL 4
REMARK VINA RESULT:    -8.936      1.542      2.133
REMARK INTER + INTRA:         -13.310
REMARK INTER:                 -10.725
REMARK INTRA:                  -2.585
REMARK CONF_INDEPENDENT:        1.790
REMARK UNBOUND:                -2.585
REMARK  6 active torsions:
REMARK  status: ('A' for Active; 'I' for Inactive)
REMARK    1  A    between atoms: C5_5  and  N1_6 
REMARK       I    between atoms: N1_6  and  C6_7 
REMARK    2  A    between atoms: C7_9  and  C6_7 
REMARK    3  A    between atoms: C7_9  and  C8_10 
REMARK    4  A    between atoms: C7_9  and  N2_14 
REMARK    5  A    between atoms: C8_10  and  C9_11 
REMARK       I    between atoms: N2_14  and  C12_15 
REMARK    6  A    between atoms: C13_17  and  C12_15 
ROOT
ATOM      1  C7  NON d   1     -41.258  18.789  -4.720  0.00  0.00     0.155 C 
ENDROOT
BRANCH   1   2
ATOM      2  C6  NON d   1     -40.372  19.431  -5.803  0.00  0.00     0.240 C 
ATOM      3  N1  NON d   1     -40.737  19.696  -7.137  0.00  0.00    -0.325 N 
ATOM      4  H6  NON d   1     -41.670  19.449  -7.435  0.00  0.00     0.169 HD
ATOM      5  O1  NON d   1     -39.516  20.113  -5.196  0.00  0.00    -0.271 OA
BRANCH   3   6
ATOM      6  C5  NON d   1     -39.961  20.495  -8.107  0.00  0.00     0.040 A 
ATOM      7  C4  NON d   1     -40.314  21.811  -8.508  0.00  0.00     0.030 A 
ATOM      8  C3  NON d   1     -39.596  22.619  -9.528  0.00  0.00     0.009 A 
ATOM      9  C2  NON d   1     -38.481  22.169 -10.263  0.00  0.00    -0.061 A 
ATOM     10  C1  NON d   1     -37.770  22.881 -11.428  0.00  0.00     0.048 C 
ATOM     11  C24 NON d   1     -38.142  20.816  -9.822  0.00  0.00     0.015 A 
ATOM     12  C22 NON d   1     -38.849  19.992  -8.766  0.00  0.00    -0.035 A 
ATOM     13  C23 NON d   1     -38.507  18.528  -8.435  0.00  0.00     0.050 C 
ENDBRANCH   3   6
ENDBRANCH   1   2
BRANCH   1  14
ATOM     14  C8  NON d   1     -42.251  17.633  -5.309  0.00  0.00     0.033 C 
BRANCH  14  15
ATOM     15  C9  NON d   1     -43.801  18.008  -4.524  0.00  0.00    -0.021 C 
ATOM     16  C10 NON d   1     -45.073  17.237  -5.058  0.00  0.00     0.009 C 
ATOM     17  C11 NON d   1     -43.675  17.254  -3.187  0.00  0.00     0.009 C 
ENDBRANCH  14  15
ENDBRANCH   1  14
BRANCH   1  18
ATOM     18  N2  NON d   1     -40.177  18.621  -3.653  0.00  0.00    -0.247 NA
ATOM     19  C12 NON d   1     -40.341  19.144  -2.364  0.00  0.00     0.231 C 
ATOM     20  O2  NON d   1     -41.077  18.587  -1.562  0.00  0.00    -0.277 OA
ATOM     21  H17 NON d   1     -39.302  18.917  -4.081  0.00  0.00     0.131 HD
BRANCH  19  22
ATOM     22  C13 NON d   1     -39.680  20.554  -2.115  0.00  0.00     0.310 C 
ATOM     23  C14 NON d   1     -40.466  21.683  -2.848  0.00  0.00     0.084 C 
ATOM     24  C15 NON d   1     -40.572  22.993  -2.113  0.00  0.00    -0.048 A 
ATOM     25  C16 NON d   1     -40.863  24.189  -2.789  0.00  0.00     0.008 A 
ATOM     26  C20 NON d   1     -40.461  22.996  -0.715  0.00  0.00    -0.024 A 
ATOM     27  C17 NON d   1     -41.034  25.382  -2.086  0.00  0.00     0.001 A 
ATOM     28  C18 NON d   1     -40.924  25.386  -0.698  0.00  0.00     0.001 A 
ATOM     29  C19 NON d   1     -40.643  24.199  -0.021  0.00  0.00     0.009 A 
ATOM     30  C21 NON d   1     -40.283  21.681  -0.002  0.00  0.00     0.309 C 
ATOM     31  N3  NON d   1     -39.371  20.763  -0.682  0.00  0.00     0.101 N 
ATOM     32  H27 NON d   1     -39.363  19.880  -0.182  0.00  0.00     0.317 HD
ENDBRANCH  19  22
ENDBRANCH   1  18
TORSDOF 6
ENDMDL
MODEL 5
REMARK VINA RESULT:    -8.633      2.451      5.561
REMARK INTER + INTRA:         -12.878
REMARK INTER:                 -10.423
REMARK INTRA:                  -2.456
REMARK CONF_INDEPENDENT:        1.790
REMARK UNBOUND:                -2.456
REMARK  6 active torsions:
REMARK  status: ('A' for Active; 'I' for Inactive)
REMARK    1  A    between atoms: C5_5  and  N1_6 
REMARK       I    between atoms: N1_6  and  C6_7 
REMARK    2  A    between atoms: C7_9  and  C6_7 
REMARK    3  A    between atoms: C7_9  and  C8_10 
REMARK    4  A    between atoms: C7_9  and  N2_14 
REMARK    5  A    between atoms: C8_10  and  C9_11 
REMARK       I    between atoms: N2_14  and  C12_15 
REMARK    6  A    between atoms: C13_17  and  C12_15 
ROOT
ATOM      1  C7  NON d   1     -39.207  21.608  -4.639  0.00  0.00     0.155 C 
ENDROOT
BRANCH   1   2
ATOM      2  C6  NON d   1     -40.498  20.785  -4.794  0.00  0.00     0.240 C 
ATOM      3  N1  NON d   1     -40.681  19.435  -4.437  0.00  0.00    -0.325 N 
ATOM      4  H6  NON d   1     -39.899  18.937  -4.036  0.00  0.00     0.169 HD
ATOM      5  O1  NON d   1     -41.440  21.609  -4.795  0.00  0.00    -0.271 OA
BRANCH   3   6
ATOM      6  C5  NON d   1     -41.970  18.715  -4.394  0.00  0.00     0.040 A 
ATOM      7  C4  NON d   1     -43.120  19.109  -5.129  0.00  0.00     0.030 A 
ATOM      8  C3  NON d   1     -44.450  18.450  -5.060  0.00  0.00     0.009 A 
ATOM      9  C2  NON d   1     -44.757  17.357  -4.225  0.00  0.00    -0.061 A 
ATOM     10  C1  NON d   1     -46.133  16.708  -3.990  0.00  0.00     0.048 C 
ATOM     11  C24 NON d   1     -43.552  16.975  -3.490  0.00  0.00     0.015 A 
ATOM     12  C22 NON d   1     -42.185  17.622  -3.569  0.00  0.00    -0.035 A 
ATOM     13  C23 NON d   1     -40.990  17.238  -2.677  0.00  0.00     0.050 C 
ENDBRANCH   3   6
ENDBRANCH   1   2
BRANCH   1  14
ATOM     14  C8  NON d   1     -39.455  23.219  -4.768  0.00  0.00     0.033 C 
BRANCH  14  15
ATOM     15  C9  NON d   1     -39.110  23.534  -6.483  0.00  0.00    -0.021 C 
ATOM     16  C10 NON d   1     -39.880  22.645  -7.537  0.00  0.00     0.009 C 
ATOM     17  C11 NON d   1     -39.891  24.838  -6.734  0.00  0.00     0.009 C 
ENDBRANCH  14  15
ENDBRANCH   1  14
BRANCH   1  18
ATOM     18  N2  NON d   1     -38.635  20.856  -3.439  0.00  0.00    -0.247 NA
ATOM     19  C12 NON d   1     -39.347  20.760  -2.236  0.00  0.00     0.231 C 
ATOM     20  O2  NON d   1     -40.293  19.990  -2.139  0.00  0.00    -0.277 OA
ATOM     21  H17 NON d   1     -37.691  21.210  -3.300  0.00  0.00     0.131 HD
BRANCH  19  22
ATOM     22  C13 NON d   1     -38.965  21.821  -1.134  0.00  0.00     0.310 C 
ATOM     23  C14 NON d   1     -39.628  23.202  -1.427  0.00  0.00     0.084 C 
ATOM     24  C15 NON d   1     -40.104  23.971  -0.223  0.00  0.00    -0.048 A 
ATOM     25  C16 NON d   1     -40.324  25.356  -0.280  0.00  0.00     0.008 A 
ATOM     26  C20 NON d   1     -40.414  23.266   0.950  0.00  0.00    -0.024 A 
ATOM     27  C17 NON d   1     -40.838  26.042   0.821  0.00  0.00     0.001 A 
ATOM     28  C18 NON d   1     -41.146  25.345   1.986  0.00  0.00     0.001 A 
ATOM     29  C19 NON d   1     -40.937  23.966   2.045  0.00  0.00     0.009 A 
ATOM     30  C21 NON d   1     -40.299  21.765   0.943  0.00  0.00     0.309 C 
ATOM     31  N3  NON d   1     -39.123  21.270   0.230  0.00  0.00     0.101 N 
ATOM     32  H27 NON d   1     -39.157  20.255   0.208  0.00  0.00     0.317 HD
ENDBRANCH  19  22
ENDBRANCH   1  18
TORSDOF 6
ENDMDL
MODEL 6
REMARK VINA RESULT:    -8.374      2.907      5.666
REMARK INTER + INTRA:         -12.722
REMARK INTER:                 -10.164
REMARK INTRA:                  -2.558
REMARK CONF_INDEPENDENT:        1.790
REMARK UNBOUND:                -2.558
REMARK  6 active torsions:
REMARK  status: ('A' for Active; 'I' for Inactive)
REMARK    1  A    between atoms: C5_5  and  N1_6 
REMARK       I    between atoms: N1_6  and  C6_7 
REMARK    2  A    between atoms: C7_9  and  C6_7 
REMARK    3  A    between atoms: C7_9  and  C8_10 
REMARK    4  A    between atoms: C7_9  and  N2_14 
REMARK    5  A    between atoms: C8_10  and  C9_11 
REMARK       I    between atoms: N2_14  and  C12_15 
REMARK    6  A    between atoms: C13_17  and  C12_15 
ROOT
ATOM      1  C7  NON d   1     -38.382  20.175  -6.014  0.00  0.00     0.155 C 
ENDROOT
BRANCH   1   2
ATOM      2  C6  NON d   1     -38.991  21.169  -7.020  0.00  0.00     0.240 C 
ATOM      3  N1  NON d   1     -38.374  21.671  -8.181  0.00  0.00    -0.325 N 
ATOM      4  H6  NON d   1     -37.437  21.360  -8.398  0.00  0.00     0.169 HD
ATOM      5  O1  NON d   1     -40.233  21.050  -6.920  0.00  0.00    -0.271 OA
BRANCH   3   6
ATOM      6  C5  NON d   1     -39.034  22.456  -9.245  0.00  0.00     0.040 A 
ATOM      7  C4  NON d   1     -38.972  22.125 -10.624  0.00  0.00     0.030 A 
ATOM      8  C3  NON d   1     -39.565  22.926 -11.727  0.00  0.00     0.009 A 
ATOM      9  C2  NON d   1     -40.246  24.146 -11.549  0.00  0.00    -0.061 A 
ATOM     10  C1  NON d   1     -40.766  25.104 -12.638  0.00  0.00     0.048 C 
ATOM     11  C24 NON d   1     -40.296  24.453 -10.120  0.00  0.00     0.015 A 
ATOM     12  C22 NON d   1     -39.717  23.634  -8.985  0.00  0.00    -0.035 A 
ATOM     13  C23 NON d   1     -39.708  24.077  -7.511  0.00  0.00     0.050 C 
ENDBRANCH   3   6
ENDBRANCH   1   2
BRANCH   1  14
ATOM     14  C8  NON d   1     -36.941  19.576  -6.500  0.00  0.00     0.033 C 
BRANCH  14  15
ATOM     15  C9  NON d   1     -37.410  18.309  -7.655  0.00  0.00    -0.021 C 
ATOM     16  C10 NON d   1     -38.879  18.383  -8.232  0.00  0.00     0.009 C 
ATOM     17  C11 NON d   1     -36.684  18.756  -8.937  0.00  0.00     0.009 C 
ENDBRANCH  14  15
ENDBRANCH   1  14
BRANCH   1  18
ATOM     18  N2  NON d   1     -38.668  20.976  -4.745  0.00  0.00    -0.247 NA
ATOM     19  C12 NON d   1     -38.828  20.342  -3.506  0.00  0.00     0.231 C 
ATOM     20  O2  NON d   1     -37.853  19.920  -2.899  0.00  0.00    -0.277 OA
ATOM     21  H17 NON d   1     -39.445  21.595  -4.964  0.00  0.00     0.131 HD
BRANCH  19  22
ATOM     22  C13 NON d   1     -40.318  20.058  -3.076  0.00  0.00     0.310 C 
ATOM     23  C14 NON d   1     -41.263  20.010  -4.315  0.00  0.00     0.084 C 
ATOM     24  C15 NON d   1     -42.368  18.988  -4.260  0.00  0.00    -0.048 A 
ATOM     25  C16 NON d   1     -43.511  19.102  -5.067  0.00  0.00     0.008 A 
ATOM     26  C20 NON d   1     -42.204  17.858  -3.445  0.00  0.00    -0.024 A 
ATOM     27  C17 NON d   1     -44.490  18.108  -5.060  0.00  0.00     0.001 A 
ATOM     28  C18 NON d   1     -44.329  16.986  -4.252  0.00  0.00     0.001 A 
ATOM     29  C19 NON d   1     -43.191  16.864  -3.454  0.00  0.00     0.009 A 
ATOM     30  C21 NON d   1     -40.910  17.692  -2.692  0.00  0.00     0.309 C 
ATOM     31  N3  NON d   1     -40.403  18.935  -2.116  0.00  0.00     0.101 N 
ATOM     32  H27 NON d   1     -39.498  18.754  -1.692  0.00  0.00     0.317 HD
ENDBRANCH  19  22
ENDBRANCH   1  18
TORSDOF 6
ENDMDL
MODEL 7
REMARK VINA RESULT:    -7.986      3.031      8.709
REMARK INTER + INTRA:         -12.621
REMARK INTER:                  -9.776
REMARK INTRA:                  -2.845
REMARK CONF_INDEPENDENT:        1.790
REMARK UNBOUND:                -2.845
REMARK  6 active torsions:
REMARK  status: ('A' for Active; 'I' for Inactive)
REMARK    1  A    between atoms: C5_5  and  N1_6 
REMARK       I    between atoms: N1_6  and  C6_7 
REMARK    2  A    between atoms: C7_9  and  C6_7 
REMARK    3  A    between atoms: C7_9  and  C8_10 
REMARK    4  A    between atoms: C7_9  and  N2_14 
REMARK    5  A    between atoms: C8_10  and  C9_11 
REMARK       I    between atoms: N2_14  and  C12_15 
REMARK    6  A    between atoms: C13_17  and  C12_15 
ROOT
ATOM      1  C7  NON d   1     -39.988  22.167  -1.373  0.00  0.00     0.155 C 
ENDROOT
BRANCH   1   2
ATOM      2  C6  NON d   1     -40.200  22.823   0.003  0.00  0.00     0.240 C 
ATOM      3  N1  NON d   1     -40.512  24.174   0.250  0.00  0.00    -0.325 N 
ATOM      4  H6  NON d   1     -40.611  24.794  -0.542  0.00  0.00     0.169 HD
ATOM      5  O1  NON d   1     -40.550  21.904   0.778  0.00  0.00    -0.271 OA
BRANCH   3   6
ATOM      6  C5  NON d   1     -40.917  24.748   1.549  0.00  0.00     0.040 A 
ATOM      7  C4  NON d   1     -40.975  24.005   2.757  0.00  0.00     0.030 A 
ATOM      8  C3  NON d   1     -41.440  24.532   4.067  0.00  0.00     0.009 A 
ATOM      9  C2  NON d   1     -41.919  25.840   4.276  0.00  0.00    -0.061 A 
ATOM     10  C1  NON d   1     -42.546  26.421   5.558  0.00  0.00     0.048 C 
ATOM     11  C24 NON d   1     -41.840  26.577   3.016  0.00  0.00     0.015 A 
ATOM     12  C22 NON d   1     -41.345  26.060   1.681  0.00  0.00    -0.035 A 
ATOM     13  C23 NON d   1     -41.398  26.861   0.367  0.00  0.00     0.050 C 
ENDBRANCH   3   6
ENDBRANCH   1   2
BRANCH   1  14
ATOM     14  C8  NON d   1     -39.647  23.248  -2.551  0.00  0.00     0.033 C 
BRANCH  14  15
ATOM     15  C9  NON d   1     -41.159  23.304  -3.484  0.00  0.00    -0.021 C 
ATOM     16  C10 NON d   1     -41.435  24.622  -4.310  0.00  0.00     0.009 C 
ATOM     17  C11 NON d   1     -40.829  22.397  -4.685  0.00  0.00     0.009 C 
ENDBRANCH  14  15
ENDBRANCH   1  14
BRANCH   1  18
ATOM     18  N2  NON d   1     -39.112  21.005  -0.906  0.00  0.00    -0.247 NA
ATOM     19  C12 NON d   1     -38.325  20.280  -1.811  0.00  0.00     0.231 C 
ATOM     20  O2  NON d   1     -37.284  20.758  -2.243  0.00  0.00    -0.277 OA
ATOM     21  H17 NON d   1     -39.710  20.401  -0.347  0.00  0.00     0.131 HD
BRANCH  19  22
ATOM     22  C13 NON d   1     -38.964  18.943  -2.348  0.00  0.00     0.310 C 
ATOM     23  C14 NON d   1     -40.491  18.884  -2.039  0.00  0.00     0.084 C 
ATOM     24  C15 NON d   1     -41.353  18.258  -3.104  0.00  0.00    -0.048 A 
ATOM     25  C16 NON d   1     -42.633  17.762  -2.810  0.00  0.00     0.008 A 
ATOM     26  C20 NON d   1     -40.893  18.252  -4.429  0.00  0.00    -0.024 A 
ATOM     27  C17 NON d   1     -43.450  17.255  -3.821  0.00  0.00     0.001 A 
ATOM     28  C18 NON d   1     -42.996  17.248  -5.137  0.00  0.00     0.001 A 
ATOM     29  C19 NON d   1     -41.727  17.747  -5.435  0.00  0.00     0.009 A 
ATOM     30  C21 NON d   1     -39.576  18.911  -4.740  0.00  0.00     0.309 C 
ATOM     31  N3  NON d   1     -38.542  18.659  -3.738  0.00  0.00     0.101 N 
ATOM     32  H27 NON d   1     -37.714  19.193  -3.980  0.00  0.00     0.317 HD
ENDBRANCH  19  22
ENDBRANCH   1  18
TORSDOF 6
ENDMDL
MODEL 8
REMARK VINA RESULT:    -7.869      2.443      5.707
REMARK INTER + INTRA:         -13.165
REMARK INTER:                  -9.659
REMARK INTRA:                  -3.506
REMARK CONF_INDEPENDENT:        1.790
REMARK UNBOUND:                -3.506
REMARK  6 active torsions:
REMARK  status: ('A' for Active; 'I' for Inactive)
REMARK    1  A    between atoms: C5_5  and  N1_6 
REMARK       I    between atoms: N1_6  and  C6_7 
REMARK    2  A    between atoms: C7_9  and  C6_7 
REMARK    3  A    between atoms: C7_9  and  C8_10 
REMARK    4  A    between atoms: C7_9  and  N2_14 
REMARK    5  A    between atoms: C8_10  and  C9_11 
REMARK       I    between atoms: N2_14  and  C12_15 
REMARK    6  A    between atoms: C13_17  and  C12_15 
ROOT
ATOM      1  C7  NON d   1     -38.371  19.421  -2.737  0.00  0.00     0.155 C 
ENDROOT
BRANCH   1   2
ATOM      2  C6  NON d   1     -39.869  19.260  -3.053  0.00  0.00     0.240 C 
ATOM      3  N1  NON d   1     -40.448  18.303  -3.909  0.00  0.00    -0.325 N 
ATOM      4  H6  NON d   1     -39.837  17.645  -4.372  0.00  0.00     0.169 HD
ATOM      5  O1  NON d   1     -40.486  19.745  -2.078  0.00  0.00    -0.271 OA
BRANCH   3   6
ATOM      6  C5  NON d   1     -41.891  18.021  -4.046  0.00  0.00     0.040 A 
ATOM      7  C4  NON d   1     -42.550  16.944  -3.396  0.00  0.00     0.030 A 
ATOM      8  C3  NON d   1     -43.984  16.590  -3.563  0.00  0.00     0.009 A 
ATOM      9  C2  NON d   1     -44.878  17.263  -4.418  0.00  0.00    -0.061 A 
ATOM     10  C1  NON d   1     -46.332  16.880  -4.754  0.00  0.00     0.048 C 
ATOM     11  C24 NON d   1     -44.170  18.367  -5.064  0.00  0.00     0.015 A 
ATOM     12  C22 NON d   1     -42.716  18.754  -4.886  0.00  0.00    -0.035 A 
ATOM     13  C23 NON d   1     -42.007  19.860  -5.688  0.00  0.00     0.050 C 
ENDBRANCH   3   6
ENDBRANCH   1   2
BRANCH   1  14
ATOM     14  C8  NON d   1     -37.406  18.640  -3.800  0.00  0.00     0.033 C 
BRANCH  14  15
ATOM     15  C9  NON d   1     -37.390  19.738  -5.198  0.00  0.00    -0.021 C 
ATOM     16  C10 NON d   1     -36.205  19.561  -6.227  0.00  0.00     0.009 C 
ATOM     17  C11 NON d   1     -38.499  19.144  -6.087  0.00  0.00     0.009 C 
ENDBRANCH  14  15
ENDBRANCH   1  14
BRANCH   1  18
ATOM     18  N2  NON d   1     -38.391  20.919  -2.438  0.00  0.00    -0.247 NA
ATOM     19  C12 NON d   1     -37.427  21.507  -1.607  0.00  0.00     0.231 C 
ATOM     20  O2  NON d   1     -36.295  21.708  -2.024  0.00  0.00    -0.277 OA
ATOM     21  H17 NON d   1     -39.340  21.141  -2.143  0.00  0.00     0.131 HD
BRANCH  19  22
ATOM     22  C13 NON d   1     -37.853  21.696  -0.101  0.00  0.00     0.310 C 
ATOM     23  C14 NON d   1     -37.734  23.188   0.335  0.00  0.00     0.084 C 
ATOM     24  C15 NON d   1     -38.804  23.686   1.271  0.00  0.00    -0.048 A 
ATOM     25  C16 NON d   1     -38.609  24.831   2.061  0.00  0.00     0.008 A 
ATOM     26  C20 NON d   1     -40.047  23.038   1.284  0.00  0.00    -0.024 A 
ATOM     27  C17 NON d   1     -39.636  25.324   2.866  0.00  0.00     0.001 A 
ATOM     28  C18 NON d   1     -40.871  24.682   2.881  0.00  0.00     0.001 A 
ATOM     29  C19 NON d   1     -41.072  23.548   2.091  0.00  0.00     0.009 A 
ATOM     30  C21 NON d   1     -40.276  21.896   0.329  0.00  0.00     0.309 C 
ATOM     31  N3  NON d   1     -39.127  21.003   0.195  0.00  0.00     0.101 N 
ATOM     32  H27 NON d   1     -39.334  20.308  -0.516  0.00  0.00     0.317 HD
ENDBRANCH  19  22
ENDBRANCH   1  18
TORSDOF 6
ENDMDL
MODEL 9
REMARK VINA RESULT:    -7.869      1.976      2.648
REMARK INTER + INTRA:         -12.950
REMARK INTER:                  -9.658
REMARK INTRA:                  -3.291
REMARK CONF_INDEPENDENT:        1.790
REMARK UNBOUND:                -3.291
REMARK  6 active torsions:
REMARK  status: ('A' for Active; 'I' for Inactive)
REMARK    1  A    between atoms: C5_5  and  N1_6 
REMARK       I    between atoms: N1_6  and  C6_7 
REMARK    2  A    between atoms: C7_9  and  C6_7 
REMARK    3  A    between atoms: C7_9  and  C8_10 
REMARK    4  A    between atoms: C7_9  and  N2_14 
REMARK    5  A    between atoms: C8_10  and  C9_11 
REMARK       I    between atoms: N2_14  and  C12_15 
REMARK    6  A    between atoms: C13_17  and  C12_15 
ROOT
ATOM      1  C7  NON d   1     -41.333  18.400  -4.101  0.00  0.00     0.155 C 
ENDROOT
BRANCH   1   2
ATOM      2  C6  NON d   1     -40.259  18.742  -5.150  0.00  0.00     0.240 C 
ATOM      3  N1  NON d   1     -40.317  18.468  -6.530  0.00  0.00    -0.325 N 
ATOM      4  H6  NON d   1     -41.138  18.003  -6.891  0.00  0.00     0.169 HD
ATOM      5  O1  NON d   1     -39.612  19.707  -4.687  0.00  0.00    -0.271 OA
BRANCH   3   6
ATOM      6  C5  NON d   1     -39.386  18.979  -7.557  0.00  0.00     0.040 A 
ATOM      7  C4  NON d   1     -38.079  18.463  -7.764  0.00  0.00     0.030 A 
ATOM      8  C3  NON d   1     -37.092  18.994  -8.740  0.00  0.00     0.009 A 
ATOM      9  C2  NON d   1     -37.313  20.109  -9.573  0.00  0.00    -0.061 A 
ATOM     10  C1  NON d   1     -36.304  20.806 -10.504  0.00  0.00     0.048 C 
ATOM     11  C24 NON d   1     -38.667  20.610  -9.338  0.00  0.00     0.015 A 
ATOM     12  C22 NON d   1     -39.691  20.064  -8.365  0.00  0.00    -0.035 A 
ATOM     13  C23 NON d   1     -41.059  20.715  -8.088  0.00  0.00     0.050 C 
ENDBRANCH   3   6
ENDBRANCH   1   2
BRANCH   1  14
ATOM     14  C8  NON d   1     -42.383  17.255  -4.610  0.00  0.00     0.033 C 
BRANCH  14  15
ATOM     15  C9  NON d   1     -43.964  18.009  -4.310  0.00  0.00    -0.021 C 
ATOM     16  C10 NON d   1     -44.440  19.098  -5.350  0.00  0.00     0.009 C 
ATOM     17  C11 NON d   1     -44.938  16.898  -4.745  0.00  0.00     0.009 C 
ENDBRANCH  14  15
ENDBRANCH   1  14
BRANCH   1  18
ATOM     18  N2  NON d   1     -40.409  18.330  -2.887  0.00  0.00    -0.247 NA
ATOM     19  C12 NON d   1     -40.690  19.051  -1.719  0.00  0.00     0.231 C 
ATOM     20  O2  NON d   1     -41.561  18.667  -0.951  0.00  0.00    -0.277 OA
ATOM     21  H17 NON d   1     -39.468  18.506  -3.231  0.00  0.00     0.131 HD
BRANCH  19  22
ATOM     22  C13 NON d   1     -39.956  20.440  -1.585  0.00  0.00     0.310 C 
ATOM     23  C14 NON d   1     -40.076  21.005  -0.137  0.00  0.00     0.084 C 
ATOM     24  C15 NON d   1     -38.863  21.724   0.391  0.00  0.00    -0.048 A 
ATOM     25  C16 NON d   1     -38.955  22.623   1.466  0.00  0.00     0.008 A 
ATOM     26  C20 NON d   1     -37.606  21.418  -0.153  0.00  0.00    -0.024 A 
ATOM     27  C17 NON d   1     -37.812  23.223   1.993  0.00  0.00     0.001 A 
ATOM     28  C18 NON d   1     -36.563  22.921   1.455  0.00  0.00     0.001 A 
ATOM     29  C19 NON d   1     -36.465  22.022   0.392  0.00  0.00     0.009 A 
ATOM     30  C21 NON d   1     -37.517  20.352  -1.212  0.00  0.00     0.309 C 
ATOM     31  N3  NON d   1     -38.604  20.401  -2.187  0.00  0.00     0.101 N 
ATOM     32  H27 NON d   1     -38.513  19.611  -2.818  0.00  0.00     0.317 HD
ENDBRANCH  19  22
ENDBRANCH   1  18
TORSDOF 6
ENDMDL
