MODEL 1
REMARK VINA RESULT:   -28.715      0.000      0.000
REMARK INTER + INTRA:         -30.464
REMARK INTER:                 -30.207
REMARK INTRA:                  -0.257
REMARK CONF_INDEPENDENT:        1.492
REMARK UNBOUND:                -0.257
REMARK  5 active torsions:
REMARK  status: ('A' for Active; 'I' for Inactive)
REMARK    1  A    between atoms: C3_4  and  N2_5 
REMARK    2  A    between atoms: C6_9  and  N4_10 
REMARK    3  A    between atoms: N4_10  and  C7_11 
REMARK    4  A    between atoms: C7_11  and  C8_12 
REMARK    5  A    between atoms: C8_12  and  C9_13 
ROOT
ATOM      1  C7  NON d   1     -43.675  17.346  -5.023  0.00  0.00     0.101 C 
ENDROOT
BRANCH   1   2
ATOM      2  N4  NON d   1     -42.889  18.321  -4.258  0.00  0.00    -0.276 NA
ATOM      3  H10 NON d   1     -42.971  18.263  -3.241  0.00  0.00     0.129 HD
BRANCH   2   4
ATOM      4  C6  NON d   1     -41.501  18.510  -4.476  0.00  0.00     0.130 A 
ATOM      5  N3  NON d   1     -41.242  18.909  -5.796  0.00  0.00    -0.050 NA
ATOM      6  C3  NON d   1     -39.978  19.055  -6.245  0.00  0.00     0.725 A 
ATOM      7  N1  NON d   1     -38.958  18.856  -5.247  0.00  0.00    -0.067 NA
ATOM      8  C2  NON d   1     -39.210  18.475  -3.818  0.00  0.00     0.059 A 
ATOM      9  C1  NON d   1     -38.057  18.172  -2.843  0.00  0.00     0.072 C 
ATOM     10  C17 NON d   1     -40.521  18.235  -3.470  0.00  0.00     0.004 A 
ATOM     11  C18 NON d   1     -40.818  17.695  -2.101  0.00  0.00     0.054 C 
BRANCH   6  12
ATOM     12  N2  NON d   1     -39.757  19.402  -7.748  0.00  0.00    -0.223 N 
ATOM     13  C4  NON d   1     -38.713  18.615  -8.354  0.00  0.00     0.168 C 
ATOM     14  C5  NON d   1     -40.690  20.331  -8.546  0.00  0.00     0.168 C 
ENDBRANCH   6  12
ENDBRANCH   2   4
ENDBRANCH   1   2
BRANCH   1  15
ATOM     15  C8  NON d   1     -45.047  17.854  -5.455  0.00  0.00     0.093 C 
BRANCH  15  16
ATOM     16  C9  NON d   1     -46.255  17.253  -4.757  0.00  0.00     0.108 A 
ATOM     17  N5  NON d   1     -47.067  16.505  -5.435  0.00  0.00    -0.234 NA
ATOM     18  C10 NON d   1     -48.114  15.866  -4.746  0.00  0.00     0.074 A 
ATOM     19  C11 NON d   1     -48.972  15.012  -5.448  0.00  0.00     0.032 A 
ATOM     20  C15 NON d   1     -48.310  16.018  -3.373  0.00  0.00     0.061 A 
ATOM     21  C12 NON d   1     -49.990  14.315  -4.787  0.00  0.00     0.002 A 
ATOM     22  C13 NON d   1     -50.166  14.472  -3.411  0.00  0.00     0.001 A 
ATOM     23  C14 NON d   1     -49.327  15.329  -2.698  0.00  0.00     0.019 A 
ATOM     24  C16 NON d   1     -47.386  16.914  -2.657  0.00  0.00     0.259 A 
ATOM     25  O1  NON d   1     -47.505  17.140  -1.456  0.00  0.00    -0.267 OA
ATOM     26  N6  NON d   1     -46.384  17.467  -3.415  0.00  0.00    -0.311 N 
ATOM     27  H19 NON d   1     -45.740  18.082  -2.926  0.00  0.00     0.170 HD
ENDBRANCH  15  16
ENDBRANCH   1  15
TORSDOF 5
ENDMDL
MODEL 2
REMARK VINA RESULT:   -28.264      0.921      2.995
REMARK INTER + INTRA:         -29.947
REMARK INTER:                 -29.755
REMARK INTRA:                  -0.192
REMARK CONF_INDEPENDENT:        1.492
REMARK UNBOUND:                -0.192
REMARK  5 active torsions:
REMARK  status: ('A' for Active; 'I' for Inactive)
REMARK    1  A    between atoms: C3_4  and  N2_5 
REMARK    2  A    between atoms: C6_9  and  N4_10 
REMARK    3  A    between atoms: N4_10  and  C7_11 
REMARK    4  A    between atoms: C7_11  and  C8_12 
REMARK    5  A    between atoms: C8_12  and  C9_13 
ROOT
ATOM      1  C7  NON d   1     -43.902  18.221  -4.626  0.00  0.00     0.101 C 
ENDROOT
BRANCH   1   2
ATOM      2  N4  NON d   1     -43.037  19.247  -5.218  0.00  0.00    -0.276 NA
ATOM      3  H10 NON d   1     -43.150  20.194  -4.852  0.00  0.00     0.129 HD
BRANCH   2   4
ATOM      4  C6  NON d   1     -41.631  19.086  -5.313  0.00  0.00     0.130 A 
ATOM      5  N3  NON d   1     -41.103  18.523  -4.141  0.00  0.00    -0.050 NA
ATOM      6  C3  NON d   1     -39.772  18.367  -3.981  0.00  0.00     0.725 A 
ATOM      7  N1  NON d   1     -38.981  18.738  -5.127  0.00  0.00    -0.067 NA
ATOM      8  C2  NON d   1     -39.525  19.298  -6.408  0.00  0.00     0.059 A 
ATOM      9  C1  NON d   1     -38.600  19.773  -7.544  0.00  0.00     0.072 C 
ATOM     10  C17 NON d   1     -40.882  19.531  -6.447  0.00  0.00     0.004 A 
ATOM     11  C18 NON d   1     -41.459  20.238  -7.639  0.00  0.00     0.054 C 
BRANCH   6  12
ATOM     12  N2  NON d   1     -39.243  17.830  -2.617  0.00  0.00    -0.223 N 
ATOM     13  C4  NON d   1     -40.284  17.256  -1.803  0.00  0.00     0.168 C 
ATOM     14  C5  NON d   1     -37.746  17.736  -2.271  0.00  0.00     0.168 C 
ENDBRANCH   6  12
ENDBRANCH   2   4
ENDBRANCH   1   2
BRANCH   1  15
ATOM     15  C8  NON d   1     -45.116  17.863  -5.477  0.00  0.00     0.093 C 
BRANCH  15  16
ATOM     16  C9  NON d   1     -46.300  17.237  -4.761  0.00  0.00     0.108 A 
ATOM     17  N5  NON d   1     -47.129  16.505  -5.435  0.00  0.00    -0.234 NA
ATOM     18  C10 NON d   1     -48.152  15.841  -4.733  0.00  0.00     0.074 A 
ATOM     19  C11 NON d   1     -49.028  15.004  -5.434  0.00  0.00     0.032 A 
ATOM     20  C15 NON d   1     -48.306  15.952  -3.351  0.00  0.00     0.061 A 
ATOM     21  C12 NON d   1     -50.023  14.283  -4.762  0.00  0.00     0.002 A 
ATOM     22  C13 NON d   1     -50.157  14.399  -3.378  0.00  0.00     0.001 A 
ATOM     23  C14 NON d   1     -49.300  15.239  -2.666  0.00  0.00     0.019 A 
ATOM     24  C16 NON d   1     -47.364  16.831  -2.638  0.00  0.00     0.259 A 
ATOM     25  O1  NON d   1     -47.447  17.021  -1.428  0.00  0.00    -0.267 OA
ATOM     26  N6  NON d   1     -46.388  17.411  -3.410  0.00  0.00    -0.311 N 
ATOM     27  H19 NON d   1     -45.732  18.014  -2.923  0.00  0.00     0.170 HD
ENDBRANCH  15  16
ENDBRANCH   1  15
TORSDOF 5
ENDMDL
MODEL 3
REMARK VINA RESULT:   -27.367      1.936      2.181
REMARK INTER + INTRA:         -29.074
REMARK INTER:                 -28.859
REMARK INTRA:                  -0.215
REMARK CONF_INDEPENDENT:        1.492
REMARK UNBOUND:                -0.215
REMARK  5 active torsions:
REMARK  status: ('A' for Active; 'I' for Inactive)
REMARK    1  A    between atoms: C3_4  and  N2_5 
REMARK    2  A    between atoms: C6_9  and  N4_10 
REMARK    3  A    between atoms: N4_10  and  C7_11 
REMARK    4  A    between atoms: C7_11  and  C8_12 
REMARK    5  A    between atoms: C8_12  and  C9_13 
ROOT
ATOM      1  C7  NON d   1     -44.503  19.152  -5.001  0.00  0.00     0.101 C 
ENDROOT
BRANCH   1   2
ATOM      2  N4  NON d   1     -43.128  19.459  -5.413  0.00  0.00    -0.276 NA
ATOM      3  H10 NON d   1     -43.000  20.330  -5.930  0.00  0.00     0.129 HD
BRANCH   2   4
ATOM      4  C6  NON d   1     -42.045  19.445  -4.497  0.00  0.00     0.130 A 
ATOM      5  N3  NON d   1     -41.258  20.599  -4.620  0.00  0.00    -0.050 NA
ATOM      6  C3  NON d   1     -40.123  20.749  -3.906  0.00  0.00     0.725 A 
ATOM      7  N1  NON d   1     -39.855  19.685  -2.972  0.00  0.00    -0.067 NA
ATOM      8  C2  NON d   1     -40.705  18.463  -2.787  0.00  0.00     0.059 A 
ATOM      9  C1  NON d   1     -40.289  17.318  -1.845  0.00  0.00     0.072 C 
ATOM     10  C17 NON d   1     -41.785  18.334  -3.634  0.00  0.00     0.004 A 
ATOM     11  C18 NON d   1     -42.576  17.058  -3.606  0.00  0.00     0.054 C 
BRANCH   6  12
ATOM     12  N2  NON d   1     -39.241  22.007  -4.164  0.00  0.00    -0.223 N 
ATOM     13  C4  NON d   1     -37.883  21.838  -3.713  0.00  0.00     0.168 C 
ATOM     14  C5  NON d   1     -39.714  23.214  -4.995  0.00  0.00     0.168 C 
ENDBRANCH   6  12
ENDBRANCH   2   4
ENDBRANCH   1   2
BRANCH   1  15
ATOM     15  C8  NON d   1     -45.004  17.790  -5.470  0.00  0.00     0.093 C 
BRANCH  15  16
ATOM     16  C9  NON d   1     -46.223  17.224  -4.763  0.00  0.00     0.108 A 
ATOM     17  N5  NON d   1     -47.065  16.505  -5.435  0.00  0.00    -0.234 NA
ATOM     18  C10 NON d   1     -48.124  15.894  -4.738  0.00  0.00     0.074 A 
ATOM     19  C11 NON d   1     -49.015  15.071  -5.435  0.00  0.00     0.032 A 
ATOM     20  C15 NON d   1     -48.300  16.046  -3.363  0.00  0.00     0.061 A 
ATOM     21  C12 NON d   1     -50.048  14.403  -4.766  0.00  0.00     0.002 A 
ATOM     22  C13 NON d   1     -50.204  14.557  -3.388  0.00  0.00     0.001 A 
ATOM     23  C14 NON d   1     -49.331  15.385  -2.680  0.00  0.00     0.019 A 
ATOM     24  C16 NON d   1     -47.341  16.908  -2.652  0.00  0.00     0.259 A 
ATOM     25  O1  NON d   1     -47.440  17.131  -1.449  0.00  0.00    -0.267 OA
ATOM     26  N6  NON d   1     -46.331  17.434  -3.418  0.00  0.00    -0.311 N 
ATOM     27  H19 NON d   1     -45.663  18.026  -2.933  0.00  0.00     0.170 HD
ENDBRANCH  15  16
ENDBRANCH   1  15
TORSDOF 5
ENDMDL
