MODEL 1
REMARK VINA RESULT:   -12.925      0.000      0.000
REMARK INTER + INTRA:         -16.953
REMARK INTER:                 -15.908
REMARK INTRA:                  -1.045
REMARK CONF_INDEPENDENT:        2.983
REMARK UNBOUND:                -1.045
REMARK  10 active torsions:
REMARK  status: ('A' for Active; 'I' for Inactive)
REMARK    1  A    between atoms: C2_2  and  C3_3 
REMARK    2  A    between atoms: C3_3  and  O1_4 
REMARK    3  A    between atoms: C7_9  and  N1_10 
REMARK    4  A    between atoms: N1_10  and  C8_11 
REMARK    5  A    between atoms: C12_15  and  O2_16 
REMARK    6  A    between atoms: C15_20  and  C16_21 
REMARK    7  A    between atoms: C16_21  and  C17_22 
REMARK       I    between atoms: C17_22  and  N3_24 
REMARK    8  A    between atoms: N3_24  and  C18_25 
REMARK    9  A    between atoms: C18_25  and  C19_26 
REMARK   10  A    between atoms: C27_35  and  O5_36 
ROOT
ATOM      1  C1  NON d   1     -39.182  23.799  -7.862  0.00  0.00     0.020 C 
ATOM      2  C2  NON d   1     -38.796  22.290  -7.784  0.00  0.00     0.008 C 
ATOM      3  C4  NON d   1     -39.335  21.565  -6.394  0.00  0.00     0.012 C 
ATOM      4  C5  NON d   1     -39.388  22.694  -5.317  0.00  0.00     0.054 C 
ATOM      5  C6  NON d   1     -39.384  22.102  -3.983  0.00  0.00     0.012 A 
ATOM      6  S1  NON d   1     -38.940  22.895  -2.562  0.00  0.00    -0.055 SA
ATOM      7  C7  NON d   1     -39.372  21.499  -1.639  0.00  0.00     0.171 A 
ATOM      8  N2  NON d   1     -39.705  20.468  -2.398  0.00  0.00    -0.227 NA
ATOM      9  C14 NON d   1     -39.781  20.833  -3.737  0.00  0.00     0.056 A 
ATOM     10  C15 NON d   1     -40.466  19.958  -4.760  0.00  0.00     0.056 C 
ATOM     11  C23 NON d   1     -40.578  20.660  -6.480  0.00  0.00    -0.030 C 
ATOM     12  C24 NON d   1     -41.821  19.755  -6.565  0.00  0.00     0.016 C 
ATOM     13  C25 NON d   1     -39.874  19.711  -7.625  0.00  0.00     0.013 C 
ATOM     14  C26 NON d   1     -40.146  20.423  -8.951  0.00  0.00     0.033 C 
ATOM     15  C27 NON d   1     -39.178  21.565  -9.121  0.00  0.00     0.128 C 
ENDROOT
BRANCH  10  16
ATOM     16  C16 NON d   1     -41.850  19.619  -3.977  0.00  0.00     0.114 C 
BRANCH  16  17
ATOM     17  C17 NON d   1     -42.210  18.148  -3.917  0.00  0.00     0.218 C 
ATOM     18  O3  NON d   1     -41.489  17.302  -3.395  0.00  0.00    -0.274 OA
ATOM     19  N3  NON d   1     -43.390  17.854  -4.538  0.00  0.00    -0.355 N 
ATOM     20  H19 NON d   1     -43.863  18.580  -5.067  0.00  0.00     0.162 HD
BRANCH  19  21
ATOM     21  C18 NON d   1     -43.868  16.505  -4.691  0.00  0.00     0.187 C 
BRANCH  21  22
ATOM     22  C19 NON d   1     -45.352  16.505  -4.654  0.00  0.00     0.070 A 
ATOM     23  C20 NON d   1     -46.269  16.762  -3.655  0.00  0.00     0.036 A 
ATOM     24  C21 NON d   1     -47.552  16.579  -4.231  0.00  0.00     0.027 A 
ATOM     25  C22 NON d   1     -47.339  16.224  -5.540  0.00  0.00     0.142 A 
ATOM     26  O4  NON d   1     -46.011  16.181  -5.810  0.00  0.00    -0.325 OA
ENDBRANCH  21  22
ENDBRANCH  19  21
ENDBRANCH  16  17
ENDBRANCH  10  16
BRANCH   7  27
ATOM     27  N1  NON d   1     -39.481  21.418  -0.287  0.00  0.00    -0.335 N 
ATOM     28  H10 NON d   1     -39.394  20.471   0.060  0.00  0.00     0.168 HD
BRANCH  27  29
ATOM     29  C8  NON d   1     -39.537  22.378   0.740  0.00  0.00     0.036 A 
ATOM     30  C9  NON d   1     -40.707  22.977   1.219  0.00  0.00     0.029 A 
ATOM     31  C10 NON d   1     -40.677  23.966   2.211  0.00  0.00     0.005 A 
ATOM     32  C11 NON d   1     -39.467  24.380   2.753  0.00  0.00     0.036 A 
ATOM     33  C12 NON d   1     -38.298  23.775   2.316  0.00  0.00     0.067 A 
ATOM     34  C13 NON d   1     -38.328  22.779   1.337  0.00  0.00     0.066 A 
BRANCH  33  35
ATOM     35  O2  NON d   1     -37.084  24.143   2.816  0.00  0.00    -0.361 OA
ATOM     36  H14 NON d   1     -37.229  24.743   3.565  0.00  0.00     0.217 HD
ENDBRANCH  33  35
ENDBRANCH  27  29
ENDBRANCH   7  27
BRANCH   2  37
ATOM     37  C3  NON d   1     -37.226  22.232  -7.728  0.00  0.00     0.176 C 
BRANCH  37  38
ATOM     38  O1  NON d   1     -36.673  21.947  -9.011  0.00  0.00    -0.400 OA
ATOM     39  H6  NON d   1     -37.246  22.379  -9.668  0.00  0.00     0.209 HD
ENDBRANCH  37  38
ENDBRANCH   2  37
BRANCH  15  40
ATOM     40  O5  NON d   1     -39.718  22.440 -10.112  0.00  0.00    -0.395 OA
ATOM     41  H33 NON d   1     -40.616  22.114 -10.305  0.00  0.00     0.210 HD
ENDBRANCH  15  40
TORSDOF 10
ENDMDL
MODEL 2
REMARK VINA RESULT:   -12.146      2.169      8.114
REMARK INTER + INTRA:         -16.471
REMARK INTER:                 -15.129
REMARK INTRA:                  -1.342
REMARK CONF_INDEPENDENT:        2.983
REMARK UNBOUND:                -1.342
REMARK  10 active torsions:
REMARK  status: ('A' for Active; 'I' for Inactive)
REMARK    1  A    between atoms: C2_2  and  C3_3 
REMARK    2  A    between atoms: C3_3  and  O1_4 
REMARK    3  A    between atoms: C7_9  and  N1_10 
REMARK    4  A    between atoms: N1_10  and  C8_11 
REMARK    5  A    between atoms: C12_15  and  O2_16 
REMARK    6  A    between atoms: C15_20  and  C16_21 
REMARK    7  A    between atoms: C16_21  and  C17_22 
REMARK       I    between atoms: C17_22  and  N3_24 
REMARK    8  A    between atoms: N3_24  and  C18_25 
REMARK    9  A    between atoms: C18_25  and  C19_26 
REMARK   10  A    between atoms: C27_35  and  O5_36 
ROOT
ATOM      1  C1  NON d   1     -38.190  18.438  -8.317  0.00  0.00     0.020 C 
ATOM      2  C2  NON d   1     -38.762  19.840  -7.941  0.00  0.00     0.008 C 
ATOM      3  C4  NON d   1     -39.639  19.813  -6.534  0.00  0.00     0.012 C 
ATOM      4  C5  NON d   1     -40.230  18.372  -6.427  0.00  0.00     0.054 C 
ATOM      5  C6  NON d   1     -41.370  18.375  -5.516  0.00  0.00     0.012 A 
ATOM      6  S1  NON d   1     -42.591  17.212  -5.473  0.00  0.00    -0.055 SA
ATOM      7  C7  NON d   1     -43.296  17.991  -4.100  0.00  0.00     0.171 A 
ATOM      8  N2  NON d   1     -42.697  19.131  -3.796  0.00  0.00    -0.227 NA
ATOM      9  C14 NON d   1     -41.551  19.316  -4.561  0.00  0.00     0.056 A 
ATOM     10  C15 NON d   1     -40.505  20.339  -4.188  0.00  0.00     0.056 C 
ATOM     11  C23 NON d   1     -38.981  20.366  -5.256  0.00  0.00    -0.030 C 
ATOM     12  C24 NON d   1     -38.323  20.919  -3.978  0.00  0.00     0.016 C 
ATOM     13  C25 NON d   1     -38.701  21.824  -5.966  0.00  0.00     0.013 C 
ATOM     14  C26 NON d   1     -37.382  21.649  -6.720  0.00  0.00     0.033 C 
ATOM     15  C27 NON d   1     -37.631  20.923  -8.017  0.00  0.00     0.128 C 
ENDROOT
BRANCH  10  16
ATOM     16  C16 NON d   1     -40.327  20.014  -2.605  0.00  0.00     0.114 C 
BRANCH  16  17
ATOM     17  C17 NON d   1     -40.296  21.228  -1.699  0.00  0.00     0.218 C 
ATOM     18  O3  NON d   1     -40.797  22.307  -2.007  0.00  0.00    -0.274 OA
ATOM     19  N3  NON d   1     -39.621  21.016  -0.531  0.00  0.00    -0.355 N 
ATOM     20  H19 NON d   1     -39.116  20.145  -0.407  0.00  0.00     0.162 HD
BRANCH  19  21
ATOM     21  C18 NON d   1     -39.379  22.065   0.424  0.00  0.00     0.187 C 
BRANCH  21  22
ATOM     22  C19 NON d   1     -38.082  21.818   1.104  0.00  0.00     0.070 A 
ATOM     23  C20 NON d   1     -37.389  22.497   2.085  0.00  0.00     0.036 A 
ATOM     24  C21 NON d   1     -36.190  21.773   2.304  0.00  0.00     0.027 A 
ATOM     25  C22 NON d   1     -36.227  20.699   1.448  0.00  0.00     0.142 A 
ATOM     26  O4  NON d   1     -37.370  20.713   0.719  0.00  0.00    -0.325 OA
ENDBRANCH  21  22
ENDBRANCH  19  21
ENDBRANCH  16  17
ENDBRANCH  10  16
BRANCH   7  27
ATOM     27  N1  NON d   1     -44.287  17.506  -3.308  0.00  0.00    -0.335 N 
ATOM     28  H10 NON d   1     -44.081  17.590  -2.320  0.00  0.00     0.168 HD
BRANCH  27  29
ATOM     29  C8  NON d   1     -45.596  17.053  -3.561  0.00  0.00     0.036 A 
ATOM     30  C9  NON d   1     -46.693  17.255  -2.719  0.00  0.00     0.029 A 
ATOM     31  C10 NON d   1     -47.958  16.727  -3.015  0.00  0.00     0.005 A 
ATOM     32  C11 NON d   1     -48.154  15.982  -4.171  0.00  0.00     0.036 A 
ATOM     33  C12 NON d   1     -47.085  15.799  -5.036  0.00  0.00     0.067 A 
ATOM     34  C13 NON d   1     -45.829  16.336  -4.749  0.00  0.00     0.066 A 
BRANCH  33  35
ATOM     35  O2  NON d   1     -47.224  15.077  -6.185  0.00  0.00    -0.361 OA
ATOM     36  H14 NON d   1     -47.676  15.630  -6.843  0.00  0.00     0.217 HD
ENDBRANCH  33  35
ENDBRANCH  27  29
ENDBRANCH   7  27
BRANCH   2  37
ATOM     37  C3  NON d   1     -39.773  20.231  -9.079  0.00  0.00     0.176 C 
BRANCH  37  38
ATOM     38  O1  NON d   1     -39.512  21.542  -9.574  0.00  0.00    -0.400 OA
ATOM     39  H6  NON d   1     -40.334  21.855  -9.993  0.00  0.00     0.209 HD
ENDBRANCH  37  38
ENDBRANCH   2  37
BRANCH  15  40
ATOM     40  O5  NON d   1     -36.377  20.410  -8.468  0.00  0.00    -0.395 OA
ATOM     41  H33 NON d   1     -36.572  19.570  -8.921  0.00  0.00     0.210 HD
ENDBRANCH  15  40
TORSDOF 10
ENDMDL
MODEL 3
REMARK VINA RESULT:   -11.961      2.691      8.439
REMARK INTER + INTRA:         -16.523
REMARK INTER:                 -14.944
REMARK INTRA:                  -1.579
REMARK CONF_INDEPENDENT:        2.983
REMARK UNBOUND:                -1.579
REMARK  10 active torsions:
REMARK  status: ('A' for Active; 'I' for Inactive)
REMARK    1  A    between atoms: C2_2  and  C3_3 
REMARK    2  A    between atoms: C3_3  and  O1_4 
REMARK    3  A    between atoms: C7_9  and  N1_10 
REMARK    4  A    between atoms: N1_10  and  C8_11 
REMARK    5  A    between atoms: C12_15  and  O2_16 
REMARK    6  A    between atoms: C15_20  and  C16_21 
REMARK    7  A    between atoms: C16_21  and  C17_22 
REMARK       I    between atoms: C17_22  and  N3_24 
REMARK    8  A    between atoms: N3_24  and  C18_25 
REMARK    9  A    between atoms: C18_25  and  C19_26 
REMARK   10  A    between atoms: C27_35  and  O5_36 
ROOT
ATOM      1  C1  NON d   1     -38.539  21.476  -0.629  0.00  0.00     0.020 C 
ATOM      2  C2  NON d   1     -37.748  20.851  -1.820  0.00  0.00     0.008 C 
ATOM      3  C4  NON d   1     -38.741  20.342  -3.046  0.00  0.00     0.012 C 
ATOM      4  C5  NON d   1     -40.096  19.962  -2.370  0.00  0.00     0.054 C 
ATOM      5  C6  NON d   1     -40.854  19.078  -3.248  0.00  0.00     0.012 A 
ATOM      6  S1  NON d   1     -42.095  18.044  -2.761  0.00  0.00    -0.055 SA
ATOM      7  C7  NON d   1     -42.380  17.599  -4.407  0.00  0.00     0.171 A 
ATOM      8  N2  NON d   1     -41.491  18.118  -5.238  0.00  0.00    -0.227 NA
ATOM      9  C14 NON d   1     -40.660  19.021  -4.585  0.00  0.00     0.056 A 
ATOM     10  C15 NON d   1     -39.799  20.001  -5.347  0.00  0.00     0.056 C 
ATOM     11  C23 NON d   1     -38.843  21.215  -4.311  0.00  0.00    -0.030 C 
ATOM     12  C24 NON d   1     -38.946  22.088  -5.575  0.00  0.00     0.016 C 
ATOM     13  C25 NON d   1     -37.217  21.149  -4.553  0.00  0.00     0.013 C 
ATOM     14  C26 NON d   1     -36.641  22.263  -3.677  0.00  0.00     0.033 C 
ATOM     15  C27 NON d   1     -36.574  21.799  -2.245  0.00  0.00     0.128 C 
ENDROOT
BRANCH  10  16
ATOM     16  C16 NON d   1     -40.886  20.584  -6.407  0.00  0.00     0.114 C 
BRANCH  16  17
ATOM     17  C17 NON d   1     -40.468  20.510  -7.861  0.00  0.00     0.218 C 
ATOM     18  O3  NON d   1     -40.426  19.458  -8.494  0.00  0.00    -0.274 OA
ATOM     19  N3  NON d   1     -40.103  21.718  -8.383  0.00  0.00    -0.355 N 
ATOM     20  H19 NON d   1     -40.030  22.519  -7.763  0.00  0.00     0.162 HD
BRANCH  19  21
ATOM     21  C18 NON d   1     -39.571  21.858  -9.713  0.00  0.00     0.187 C 
BRANCH  21  22
ATOM     22  C19 NON d   1     -39.689  23.276 -10.139  0.00  0.00     0.070 A 
ATOM     23  C20 NON d   1     -39.630  23.897 -11.371  0.00  0.00     0.036 A 
ATOM     24  C21 NON d   1     -39.792  25.284 -11.128  0.00  0.00     0.027 A 
ATOM     25  C22 NON d   1     -39.940  25.423  -9.770  0.00  0.00     0.142 A 
ATOM     26  O4  NON d   1     -39.884  24.214  -9.161  0.00  0.00    -0.325 OA
ENDBRANCH  21  22
ENDBRANCH  19  21
ENDBRANCH  16  17
ENDBRANCH  10  16
BRANCH   7  27
ATOM     27  N1  NON d   1     -43.431  16.886  -4.888  0.00  0.00    -0.335 N 
ATOM     28  H10 NON d   1     -43.160  16.197  -5.578  0.00  0.00     0.168 HD
BRANCH  27  29
ATOM     29  C8  NON d   1     -44.789  16.796  -4.525  0.00  0.00     0.036 A 
ATOM     30  C9  NON d   1     -45.332  17.255  -3.321  0.00  0.00     0.029 A 
ATOM     31  C10 NON d   1     -46.688  17.082  -3.009  0.00  0.00     0.005 A 
ATOM     32  C11 NON d   1     -47.537  16.444  -3.904  0.00  0.00     0.036 A 
ATOM     33  C12 NON d   1     -47.025  16.011  -5.118  0.00  0.00     0.067 A 
ATOM     34  C13 NON d   1     -45.678  16.195  -5.435  0.00  0.00     0.066 A 
BRANCH  33  35
ATOM     35  O2  NON d   1     -47.816  15.380  -6.033  0.00  0.00    -0.361 OA
ATOM     36  H14 NON d   1     -48.166  16.046  -6.648  0.00  0.00     0.217 HD
ENDBRANCH  33  35
ENDBRANCH  27  29
ENDBRANCH   7  27
BRANCH   2  37
ATOM     37  C3  NON d   1     -37.044  19.562  -1.262  0.00  0.00     0.176 C 
BRANCH  37  38
ATOM     38  O1  NON d   1     -37.502  18.391  -1.935  0.00  0.00    -0.400 OA
ATOM     39  H6  NON d   1     -38.073  17.910  -1.309  0.00  0.00     0.209 HD
ENDBRANCH  37  38
ENDBRANCH   2  37
BRANCH  15  40
ATOM     40  O5  NON d   1     -36.452  22.962  -1.425  0.00  0.00    -0.395 OA
ATOM     41  H33 NON d   1     -36.598  22.666  -0.507  0.00  0.00     0.210 HD
ENDBRANCH  15  40
TORSDOF 10
ENDMDL
MODEL 4
REMARK VINA RESULT:   -11.595      2.646      7.718
REMARK INTER + INTRA:         -16.347
REMARK INTER:                 -14.578
REMARK INTRA:                  -1.768
REMARK CONF_INDEPENDENT:        2.983
REMARK UNBOUND:                -1.768
REMARK  10 active torsions:
REMARK  status: ('A' for Active; 'I' for Inactive)
REMARK    1  A    between atoms: C2_2  and  C3_3 
REMARK    2  A    between atoms: C3_3  and  O1_4 
REMARK    3  A    between atoms: C7_9  and  N1_10 
REMARK    4  A    between atoms: N1_10  and  C8_11 
REMARK    5  A    between atoms: C12_15  and  O2_16 
REMARK    6  A    between atoms: C15_20  and  C16_21 
REMARK    7  A    between atoms: C16_21  and  C17_22 
REMARK       I    between atoms: C17_22  and  N3_24 
REMARK    8  A    between atoms: N3_24  and  C18_25 
REMARK    9  A    between atoms: C18_25  and  C19_26 
REMARK   10  A    between atoms: C27_35  and  O5_36 
ROOT
ATOM      1  C1  NON d   1     -38.188  18.557  -8.366  0.00  0.00     0.020 C 
ATOM      2  C2  NON d   1     -38.762  19.933  -7.907  0.00  0.00     0.008 C 
ATOM      3  C4  NON d   1     -39.628  19.824  -6.497  0.00  0.00     0.012 C 
ATOM      4  C5  NON d   1     -40.215  18.378  -6.467  0.00  0.00     0.054 C 
ATOM      5  C6  NON d   1     -41.348  18.325  -5.550  0.00  0.00     0.012 A 
ATOM      6  S1  NON d   1     -42.565  17.158  -5.564  0.00  0.00    -0.055 SA
ATOM      7  C7  NON d   1     -43.262  17.856  -4.144  0.00  0.00     0.171 A 
ATOM      8  N2  NON d   1     -42.664  18.979  -3.781  0.00  0.00    -0.227 NA
ATOM      9  C14 NON d   1     -41.524  19.211  -4.542  0.00  0.00     0.056 A 
ATOM     10  C15 NON d   1     -40.478  20.215  -4.119  0.00  0.00     0.056 C 
ATOM     11  C23 NON d   1     -38.962  20.306  -5.195  0.00  0.00    -0.030 C 
ATOM     12  C24 NON d   1     -38.297  20.788  -3.893  0.00  0.00     0.016 C 
ATOM     13  C25 NON d   1     -38.692  21.803  -5.824  0.00  0.00     0.013 C 
ATOM     14  C26 NON d   1     -37.378  21.675  -6.596  0.00  0.00     0.033 C 
ATOM     15  C27 NON d   1     -37.635  21.023  -7.930  0.00  0.00     0.128 C 
ENDROOT
BRANCH  10  16
ATOM     16  C16 NON d   1     -40.288  19.802  -2.558  0.00  0.00     0.114 C 
BRANCH  16  17
ATOM     17  C17 NON d   1     -40.314  20.958  -1.580  0.00  0.00     0.218 C 
ATOM     18  O3  NON d   1     -40.143  20.818  -0.372  0.00  0.00    -0.274 OA
ATOM     19  N3  NON d   1     -40.590  22.159  -2.168  0.00  0.00    -0.355 N 
ATOM     20  H19 NON d   1     -40.857  22.178  -3.147  0.00  0.00     0.162 HD
BRANCH  19  21
ATOM     21  C18 NON d   1     -40.768  23.369  -1.410  0.00  0.00     0.187 C 
BRANCH  21  22
ATOM     22  C19 NON d   1     -40.914  24.515  -2.343  0.00  0.00     0.070 A 
ATOM     23  C20 NON d   1     -40.668  25.867  -2.220  0.00  0.00     0.036 A 
ATOM     24  C21 NON d   1     -41.025  26.455  -3.460  0.00  0.00     0.027 A 
ATOM     25  C22 NON d   1     -41.464  25.428  -4.260  0.00  0.00     0.142 A 
ATOM     26  O4  NON d   1     -41.396  24.248  -3.597  0.00  0.00    -0.325 OA
ENDBRANCH  21  22
ENDBRANCH  19  21
ENDBRANCH  16  17
ENDBRANCH  10  16
BRANCH   7  27
ATOM     27  N1  NON d   1     -44.246  17.325  -3.374  0.00  0.00    -0.335 N 
ATOM     28  H10 NON d   1     -44.003  17.287  -2.391  0.00  0.00     0.168 HD
BRANCH  27  29
ATOM     29  C8  NON d   1     -45.581  16.956  -3.625  0.00  0.00     0.036 A 
ATOM     30  C9  NON d   1     -46.669  17.264  -2.802  0.00  0.00     0.029 A 
ATOM     31  C10 NON d   1     -47.964  16.814  -3.093  0.00  0.00     0.005 A 
ATOM     32  C11 NON d   1     -48.203  16.044  -4.224  0.00  0.00     0.036 A 
ATOM     33  C12 NON d   1     -47.142  15.756  -5.071  0.00  0.00     0.067 A 
ATOM     34  C13 NON d   1     -45.854  16.214  -4.789  0.00  0.00     0.066 A 
BRANCH  33  35
ATOM     35  O2  NON d   1     -47.321  15.004  -6.195  0.00  0.00    -0.361 OA
ATOM     36  H14 NON d   1     -47.489  15.603  -6.942  0.00  0.00     0.217 HD
ENDBRANCH  33  35
ENDBRANCH  27  29
ENDBRANCH   7  27
BRANCH   2  37
ATOM     37  C3  NON d   1     -39.782  20.384  -9.014  0.00  0.00     0.176 C 
BRANCH  37  38
ATOM     38  O1  NON d   1     -41.123  20.338  -8.532  0.00  0.00    -0.400 OA
ATOM     39  H6  NON d   1     -41.706  20.433  -9.306  0.00  0.00     0.209 HD
ENDBRANCH  37  38
ENDBRANCH   2  37
BRANCH  15  40
ATOM     40  O5  NON d   1     -36.382  20.540  -8.418  0.00  0.00    -0.395 OA
ATOM     41  H33 NON d   1     -36.554  20.186  -9.310  0.00  0.00     0.210 HD
ENDBRANCH  15  40
TORSDOF 10
ENDMDL
MODEL 5
REMARK VINA RESULT:   -11.351      2.726      8.388
REMARK INTER + INTRA:         -15.645
REMARK INTER:                 -14.334
REMARK INTRA:                  -1.311
REMARK CONF_INDEPENDENT:        2.983
REMARK UNBOUND:                -1.311
REMARK  10 active torsions:
REMARK  status: ('A' for Active; 'I' for Inactive)
REMARK    1  A    between atoms: C2_2  and  C3_3 
REMARK    2  A    between atoms: C3_3  and  O1_4 
REMARK    3  A    between atoms: C7_9  and  N1_10 
REMARK    4  A    between atoms: N1_10  and  C8_11 
REMARK    5  A    between atoms: C12_15  and  O2_16 
REMARK    6  A    between atoms: C15_20  and  C16_21 
REMARK    7  A    between atoms: C16_21  and  C17_22 
REMARK       I    between atoms: C17_22  and  N3_24 
REMARK    8  A    between atoms: N3_24  and  C18_25 
REMARK    9  A    between atoms: C18_25  and  C19_26 
REMARK   10  A    between atoms: C27_35  and  O5_36 
ROOT
ATOM      1  C1  NON d   1     -38.511  21.318  -0.613  0.00  0.00     0.020 C 
ATOM      2  C2  NON d   1     -37.774  20.694  -1.838  0.00  0.00     0.008 C 
ATOM      3  C4  NON d   1     -38.817  20.225  -3.038  0.00  0.00     0.012 C 
ATOM      4  C5  NON d   1     -40.157  19.865  -2.322  0.00  0.00     0.054 C 
ATOM      5  C6  NON d   1     -40.964  19.011  -3.187  0.00  0.00     0.012 A 
ATOM      6  S1  NON d   1     -42.211  17.998  -2.674  0.00  0.00    -0.055 SA
ATOM      7  C7  NON d   1     -42.560  17.583  -4.316  0.00  0.00     0.171 A 
ATOM      8  N2  NON d   1     -41.687  18.094  -5.168  0.00  0.00    -0.227 NA
ATOM      9  C14 NON d   1     -40.815  18.969  -4.531  0.00  0.00     0.056 A 
ATOM     10  C15 NON d   1     -39.958  19.941  -5.307  0.00  0.00     0.056 C 
ATOM     11  C23 NON d   1     -38.941  21.118  -4.286  0.00  0.00    -0.030 C 
ATOM     12  C24 NON d   1     -39.065  22.012  -5.534  0.00  0.00     0.016 C 
ATOM     13  C25 NON d   1     -37.325  21.020  -4.582  0.00  0.00     0.013 C 
ATOM     14  C26 NON d   1     -36.697  22.108  -3.711  0.00  0.00     0.033 C 
ATOM     15  C27 NON d   1     -36.593  21.622  -2.289  0.00  0.00     0.128 C 
ENDROOT
BRANCH  10  16
ATOM     16  C16 NON d   1     -41.065  20.563  -6.322  0.00  0.00     0.114 C 
BRANCH  16  17
ATOM     17  C17 NON d   1     -40.680  20.537  -7.787  0.00  0.00     0.218 C 
ATOM     18  O3  NON d   1     -40.671  19.509  -8.460  0.00  0.00    -0.274 OA
ATOM     19  N3  NON d   1     -40.303  21.758  -8.270  0.00  0.00    -0.355 N 
ATOM     20  H19 NON d   1     -40.203  22.533  -7.623  0.00  0.00     0.162 HD
BRANCH  19  21
ATOM     21  C18 NON d   1     -39.798  21.939  -9.606  0.00  0.00     0.187 C 
BRANCH  21  22
ATOM     22  C19 NON d   1     -38.395  21.457  -9.667  0.00  0.00     0.070 A 
ATOM     23  C20 NON d   1     -37.599  21.005 -10.700  0.00  0.00     0.036 A 
ATOM     24  C21 NON d   1     -36.349  20.664 -10.124  0.00  0.00     0.027 A 
ATOM     25  C22 NON d   1     -36.459  20.931  -8.781  0.00  0.00     0.142 A 
ATOM     26  O4  NON d   1     -37.691  21.416  -8.493  0.00  0.00    -0.325 OA
ENDBRANCH  21  22
ENDBRANCH  19  21
ENDBRANCH  16  17
ENDBRANCH  10  16
BRANCH   7  27
ATOM     27  N1  NON d   1     -43.643  16.901  -4.771  0.00  0.00    -0.335 N 
ATOM     28  H10 NON d   1     -43.399  16.146  -5.401  0.00  0.00     0.168 HD
BRANCH  27  29
ATOM     29  C8  NON d   1     -45.011  16.921  -4.440  0.00  0.00     0.036 A 
ATOM     30  C9  NON d   1     -45.531  17.254  -3.185  0.00  0.00     0.029 A 
ATOM     31  C10 NON d   1     -46.906  17.200  -2.918  0.00  0.00     0.005 A 
ATOM     32  C11 NON d   1     -47.799  16.811  -3.909  0.00  0.00     0.036 A 
ATOM     33  C12 NON d   1     -47.306  16.509  -5.170  0.00  0.00     0.067 A 
ATOM     34  C13 NON d   1     -45.938  16.576  -5.441  0.00  0.00     0.066 A 
BRANCH  33  35
ATOM     35  O2  NON d   1     -48.139  16.124  -6.179  0.00  0.00    -0.361 OA
ATOM     36  H14 NON d   1     -48.076  15.159  -6.278  0.00  0.00     0.217 HD
ENDBRANCH  33  35
ENDBRANCH  27  29
ENDBRANCH   7  27
BRANCH   2  37
ATOM     37  C3  NON d   1     -37.081  19.381  -1.322  0.00  0.00     0.176 C 
BRANCH  37  38
ATOM     38  O1  NON d   1     -36.588  19.545   0.006  0.00  0.00    -0.400 OA
ATOM     39  H6  NON d   1     -37.364  19.651   0.585  0.00  0.00     0.209 HD
ENDBRANCH  37  38
ENDBRANCH   2  37
BRANCH  15  40
ATOM     40  O5  NON d   1     -36.418  22.769  -1.457  0.00  0.00    -0.395 OA
ATOM     41  H33 NON d   1     -37.275  23.234  -1.446  0.00  0.00     0.210 HD
ENDBRANCH  15  40
TORSDOF 10
ENDMDL
MODEL 6
REMARK VINA RESULT:   -10.390      2.890      7.611
REMARK INTER + INTRA:         -15.903
REMARK INTER:                 -13.373
REMARK INTRA:                  -2.530
REMARK CONF_INDEPENDENT:        2.983
REMARK UNBOUND:                -2.530
REMARK  10 active torsions:
REMARK  status: ('A' for Active; 'I' for Inactive)
REMARK    1  A    between atoms: C2_2  and  C3_3 
REMARK    2  A    between atoms: C3_3  and  O1_4 
REMARK    3  A    between atoms: C7_9  and  N1_10 
REMARK    4  A    between atoms: N1_10  and  C8_11 
REMARK    5  A    between atoms: C12_15  and  O2_16 
REMARK    6  A    between atoms: C15_20  and  C16_21 
REMARK    7  A    between atoms: C16_21  and  C17_22 
REMARK       I    between atoms: C17_22  and  N3_24 
REMARK    8  A    between atoms: N3_24  and  C18_25 
REMARK    9  A    between atoms: C18_25  and  C19_26 
REMARK   10  A    between atoms: C27_35  and  O5_36 
ROOT
ATOM      1  C1  NON d   1     -39.433  24.081  -4.714  0.00  0.00     0.020 C 
ATOM      2  C2  NON d   1     -39.580  23.610  -3.234  0.00  0.00     0.008 C 
ATOM      3  C4  NON d   1     -39.923  21.993  -3.111  0.00  0.00     0.012 C 
ATOM      4  C5  NON d   1     -40.697  21.620  -4.414  0.00  0.00     0.054 C 
ATOM      5  C6  NON d   1     -41.444  20.384  -4.207  0.00  0.00     0.012 A 
ATOM      6  S1  NON d   1     -42.769  19.877  -5.118  0.00  0.00    -0.055 SA
ATOM      7  C7  NON d   1     -42.818  18.392  -4.236  0.00  0.00     0.171 A 
ATOM      8  N2  NON d   1     -41.955  18.364  -3.234  0.00  0.00    -0.227 NA
ATOM      9  C14 NON d   1     -41.119  19.474  -3.259  0.00  0.00     0.056 A 
ATOM     10  C15 NON d   1     -39.841  19.524  -2.457  0.00  0.00     0.056 C 
ATOM     11  C23 NON d   1     -38.786  21.036  -2.707  0.00  0.00    -0.030 C 
ATOM     12  C24 NON d   1     -37.648  20.079  -2.304  0.00  0.00     0.016 C 
ATOM     13  C25 NON d   1     -38.500  21.875  -1.320  0.00  0.00     0.013 C 
ATOM     14  C26 NON d   1     -37.566  23.013  -1.733  0.00  0.00     0.033 C 
ATOM     15  C27 NON d   1     -38.363  24.114  -2.383  0.00  0.00     0.128 C 
ENDROOT
BRANCH  10  16
ATOM     16  C16 NON d   1     -39.204  18.074  -2.829  0.00  0.00     0.114 C 
BRANCH  16  17
ATOM     17  C17 NON d   1     -38.367  18.045  -4.091  0.00  0.00     0.218 C 
ATOM     18  O3  NON d   1     -37.213  17.624  -4.120  0.00  0.00    -0.274 OA
ATOM     19  N3  NON d   1     -39.005  18.571  -5.177  0.00  0.00    -0.355 N 
ATOM     20  H19 NON d   1     -39.903  19.025  -5.047  0.00  0.00     0.162 HD
BRANCH  19  21
ATOM     21  C18 NON d   1     -38.355  18.739  -6.450  0.00  0.00     0.187 C 
BRANCH  21  22
ATOM     22  C19 NON d   1     -39.221  19.556  -7.337  0.00  0.00     0.070 A 
ATOM     23  C20 NON d   1     -38.953  20.415  -8.384  0.00  0.00     0.036 A 
ATOM     24  C21 NON d   1     -40.204  20.915  -8.823  0.00  0.00     0.027 A 
ATOM     25  C22 NON d   1     -41.155  20.332  -8.022  0.00  0.00     0.142 A 
ATOM     26  O4  NON d   1     -40.572  19.503  -7.121  0.00  0.00    -0.325 OA
ENDBRANCH  21  22
ENDBRANCH  19  21
ENDBRANCH  16  17
ENDBRANCH  10  16
BRANCH   7  27
ATOM     27  N1  NON d   1     -43.557  17.291  -4.533  0.00  0.00    -0.335 N 
ATOM     28  H10 NON d   1     -42.998  16.520  -4.876  0.00  0.00     0.168 HD
BRANCH  27  29
ATOM     29  C8  NON d   1     -44.906  16.944  -4.327  0.00  0.00     0.036 A 
ATOM     30  C9  NON d   1     -45.651  17.255  -3.185  0.00  0.00     0.029 A 
ATOM     31  C10 NON d   1     -46.977  16.828  -3.031  0.00  0.00     0.005 A 
ATOM     32  C11 NON d   1     -47.593  16.077  -4.024  0.00  0.00     0.036 A 
ATOM     33  C12 NON d   1     -46.881  15.787  -5.179  0.00  0.00     0.067 A 
ATOM     34  C13 NON d   1     -45.565  16.223  -5.340  0.00  0.00     0.066 A 
BRANCH  33  35
ATOM     35  O2  NON d   1     -47.439  15.054  -6.185  0.00  0.00    -0.361 OA
ATOM     36  H14 NON d   1     -47.027  15.321  -7.024  0.00  0.00     0.217 HD
ENDBRANCH  33  35
ENDBRANCH  27  29
ENDBRANCH   7  27
BRANCH   2  37
ATOM     37  C3  NON d   1     -40.825  24.368  -2.645  0.00  0.00     0.176 C 
BRANCH  37  38
ATOM     38  O1  NON d   1     -40.620  25.779  -2.646  0.00  0.00    -0.400 OA
ATOM     39  H6  NON d   1     -39.659  25.925  -2.709  0.00  0.00     0.209 HD
ENDBRANCH  37  38
ENDBRANCH   2  37
BRANCH  15  40
ATOM     40  O5  NON d   1     -37.449  24.927  -3.119  0.00  0.00    -0.395 OA
ATOM     41  H33 NON d   1     -37.521  25.826  -2.747  0.00  0.00     0.210 HD
ENDBRANCH  15  40
TORSDOF 10
ENDMDL
