MODEL 1
REMARK VINA RESULT:    -9.731      0.000      0.000
REMARK INTER + INTRA:         -17.052
REMARK INTER:                 -12.416
REMARK INTRA:                  -4.636
REMARK CONF_INDEPENDENT:        2.685
REMARK UNBOUND:                -4.636
REMARK  9 active torsions:
REMARK  status: ('A' for Active; 'I' for Inactive)
REMARK       I    between atoms: C1_2  and  N1_3 
REMARK    1  A    between atoms: C1_2  and  C14_23 
REMARK    2  A    between atoms: N1_3  and  N2_4 
REMARK    3  A    between atoms: C2_5  and  C3_6 
REMARK    4  A    between atoms: C11_17  and  C2_5 
REMARK    5  A    between atoms: C11_17  and  O3_18 
REMARK    6  A    between atoms: C11_17  and  C12_19 
REMARK    7  A    between atoms: C12_19  and  O4_20 
REMARK    8  A    between atoms: C12_19  and  C13_21 
REMARK    9  A    between atoms: C13_21  and  O5_22 
ROOT
ATOM      1  N2  NON d   1     -41.476  18.797  -2.767  0.00  0.00    -0.171 NA
ATOM      2  C2  NON d   1     -41.279  18.507  -4.034  0.00  0.00     0.120 C 
ENDROOT
BRANCH   2   3
ATOM      3  C3  NON d   1     -39.712  18.677  -4.808  0.00  0.00     0.154 C 
ATOM      4  N3  NON d   1     -39.703  19.084  -6.064  0.00  0.00    -0.239 NA
ATOM      5  C4  NON d   1     -38.569  19.037  -6.881  0.00  0.00     0.084 A 
ATOM      6  C5  NON d   1     -38.715  19.219  -8.259  0.00  0.00     0.034 A 
ATOM      7  C9  NON d   1     -37.309  18.738  -6.375  0.00  0.00     0.064 A 
ATOM      8  C6  NON d   1     -37.609  19.138  -9.109  0.00  0.00     0.002 A 
ATOM      9  C7  NON d   1     -36.343  18.883  -8.581  0.00  0.00     0.002 A 
ATOM     10  C8  NON d   1     -36.190  18.684  -7.206  0.00  0.00     0.032 A 
ATOM     11  N4  NON d   1     -37.210  18.452  -5.021  0.00  0.00    -0.320 N 
ATOM     12  C10 NON d   1     -38.313  18.365  -4.199  0.00  0.00     0.277 C 
ATOM     13  H6  NON d   1     -36.318  18.234  -4.600  0.00  0.00     0.169 HD
ATOM     14  O2  NON d   1     -38.151  18.074  -3.027  0.00  0.00    -0.266 OA
ENDBRANCH   2   3
BRANCH   2  15
ATOM     15  C11 NON d   1     -42.677  17.902  -5.053  0.00  0.00     0.205 C 
BRANCH  15  16
ATOM     16  O3  NON d   1     -42.921  19.247  -5.816  0.00  0.00    -0.387 OA
ATOM     17  H8  NON d   1     -43.332  19.843  -5.162  0.00  0.00     0.210 HD
ENDBRANCH  15  16
BRANCH  15  18
ATOM     18  C12 NON d   1     -44.041  17.971  -4.340  0.00  0.00     0.176 C 
BRANCH  18  19
ATOM     19  O4  NON d   1     -44.807  19.135  -4.944  0.00  0.00    -0.390 OA
ATOM     20  H10 NON d   1     -44.952  18.881  -5.874  0.00  0.00     0.210 HD
ENDBRANCH  18  19
BRANCH  18  21
ATOM     21  C13 NON d   1     -45.131  16.932  -4.664  0.00  0.00     0.198 C 
BRANCH  21  22
ATOM     22  O5  NON d   1     -45.903  17.255  -5.810  0.00  0.00    -0.398 OA
ATOM     23  H13 NON d   1     -46.504  17.971  -5.521  0.00  0.00     0.209 HD
ENDBRANCH  21  22
ENDBRANCH  18  21
ENDBRANCH  15  18
ENDBRANCH   2  15
BRANCH   1  24
ATOM     24  N1  NON d   1     -40.474  19.203  -1.949  0.00  0.00    -0.242 N 
ATOM     25  C1  NON d   1     -39.935  20.464  -1.770  0.00  0.00     0.273 C 
ATOM     26  O1  NON d   1     -39.019  20.643  -0.967  0.00  0.00    -0.266 OA
ATOM     27  H1  NON d   1     -40.014  18.564  -1.310  0.00  0.00     0.192 HD
BRANCH  25  28
ATOM     28  C14 NON d   1     -40.354  21.611  -2.576  0.00  0.00     0.055 A 
ATOM     29  C15 NON d   1     -40.162  21.492  -3.963  0.00  0.00     0.019 A 
ATOM     30  C16 NON d   1     -40.489  22.544  -4.814  0.00  0.00     0.001 A 
ATOM     31  C17 NON d   1     -41.027  23.713  -4.283  0.00  0.00     0.002 A 
ATOM     32  C18 NON d   1     -41.162  23.856  -2.899  0.00  0.00     0.025 A 
ATOM     33  C19 NON d   1     -40.774  22.825  -2.037  0.00  0.00     0.049 A 
ATOM     34 Cl1  NON d   1     -40.697  23.172  -0.344  0.00  0.00    -0.083 Cl
ENDBRANCH  25  28
ENDBRANCH   1  24
TORSDOF 9
ENDMDL
MODEL 2
REMARK VINA RESULT:    -9.502      1.917      3.034
REMARK INTER + INTRA:         -16.040
REMARK INTER:                 -12.187
REMARK INTRA:                  -3.852
REMARK CONF_INDEPENDENT:        2.685
REMARK UNBOUND:                -3.852
REMARK  9 active torsions:
REMARK  status: ('A' for Active; 'I' for Inactive)
REMARK       I    between atoms: C1_2  and  N1_3 
REMARK    1  A    between atoms: C1_2  and  C14_23 
REMARK    2  A    between atoms: N1_3  and  N2_4 
REMARK    3  A    between atoms: C2_5  and  C3_6 
REMARK    4  A    between atoms: C11_17  and  C2_5 
REMARK    5  A    between atoms: C11_17  and  O3_18 
REMARK    6  A    between atoms: C11_17  and  C12_19 
REMARK    7  A    between atoms: C12_19  and  O4_20 
REMARK    8  A    between atoms: C12_19  and  C13_21 
REMARK    9  A    between atoms: C13_21  and  O5_22 
ROOT
ATOM      1  N2  NON d   1     -41.710  20.458  -3.939  0.00  0.00    -0.171 NA
ATOM      2  C2  NON d   1     -41.630  19.384  -4.693  0.00  0.00     0.120 C 
ENDROOT
BRANCH   2   3
ATOM      3  C3  NON d   1     -40.674  19.332  -6.165  0.00  0.00     0.154 C 
ATOM      4  N3  NON d   1     -39.469  18.801  -6.081  0.00  0.00    -0.239 NA
ATOM      5  C4  NON d   1     -38.509  18.904  -7.092  0.00  0.00     0.084 A 
ATOM      6  C5  NON d   1     -37.183  18.563  -6.810  0.00  0.00     0.034 A 
ATOM      7  C9  NON d   1     -38.816  19.411  -8.350  0.00  0.00     0.064 A 
ATOM      8  C6  NON d   1     -36.191  18.693  -7.785  0.00  0.00     0.002 A 
ATOM      9  C7  NON d   1     -36.524  19.159  -9.057  0.00  0.00     0.002 A 
ATOM     10  C8  NON d   1     -37.843  19.518  -9.344  0.00  0.00     0.032 A 
ATOM     11  N4  NON d   1     -40.114  19.847  -8.569  0.00  0.00    -0.320 N 
ATOM     12  C10 NON d   1     -41.064  19.879  -7.571  0.00  0.00     0.277 C 
ATOM     13  H6  NON d   1     -40.394  20.218  -9.466  0.00  0.00     0.169 HD
ATOM     14  O2  NON d   1     -42.174  20.310  -7.829  0.00  0.00    -0.266 OA
ENDBRANCH   2   3
BRANCH   2  15
ATOM     15  C11 NON d   1     -42.545  17.871  -4.212  0.00  0.00     0.205 C 
BRANCH  15  16
ATOM     16  O3  NON d   1     -42.578  17.234  -5.642  0.00  0.00    -0.387 OA
ATOM     17  H8  NON d   1     -43.503  17.317  -5.938  0.00  0.00     0.210 HD
ENDBRANCH  15  16
BRANCH  15  18
ATOM     18  C12 NON d   1     -44.074  18.053  -4.174  0.00  0.00     0.176 C 
BRANCH  18  19
ATOM     19  O4  NON d   1     -44.455  18.913  -5.367  0.00  0.00    -0.390 OA
ATOM     20  H10 NON d   1     -45.409  19.083  -5.256  0.00  0.00     0.210 HD
ENDBRANCH  18  19
BRANCH  18  21
ATOM     21  C13 NON d   1     -44.998  16.887  -4.569  0.00  0.00     0.198 C 
BRANCH  21  22
ATOM     22  O5  NON d   1     -45.665  17.084  -5.806  0.00  0.00    -0.398 OA
ATOM     23  H13 NON d   1     -46.313  17.798  -5.638  0.00  0.00     0.209 HD
ENDBRANCH  21  22
ENDBRANCH  18  21
ENDBRANCH  15  18
ENDBRANCH   2  15
BRANCH   1  24
ATOM     24  N1  NON d   1     -41.020  21.593  -4.215  0.00  0.00    -0.242 N 
ATOM     25  C1  NON d   1     -40.358  22.454  -3.359  0.00  0.00     0.273 C 
ATOM     26  O1  NON d   1     -39.775  23.445  -3.800  0.00  0.00    -0.266 OA
ATOM     27  H1  NON d   1     -40.884  21.918  -5.166  0.00  0.00     0.192 HD
BRANCH  25  28
ATOM     28  C14 NON d   1     -40.394  22.288  -1.906  0.00  0.00     0.055 A 
ATOM     29  C15 NON d   1     -41.073  23.288  -1.189  0.00  0.00     0.019 A 
ATOM     30  C16 NON d   1     -41.128  23.244   0.201  0.00  0.00     0.001 A 
ATOM     31  C17 NON d   1     -40.520  22.191   0.880  0.00  0.00     0.002 A 
ATOM     32  C18 NON d   1     -39.793  21.229   0.172  0.00  0.00     0.025 A 
ATOM     33  C19 NON d   1     -39.682  21.306  -1.221  0.00  0.00     0.049 A 
ATOM     34 Cl1  NON d   1     -38.541  20.264  -1.999  0.00  0.00    -0.083 Cl
ENDBRANCH  25  28
ENDBRANCH   1  24
TORSDOF 9
ENDMDL
MODEL 3
REMARK VINA RESULT:    -9.136      1.458      2.472
REMARK INTER + INTRA:         -16.593
REMARK INTER:                 -11.821
REMARK INTRA:                  -4.772
REMARK CONF_INDEPENDENT:        2.685
REMARK UNBOUND:                -4.772
REMARK  9 active torsions:
REMARK  status: ('A' for Active; 'I' for Inactive)
REMARK       I    between atoms: C1_2  and  N1_3 
REMARK    1  A    between atoms: C1_2  and  C14_23 
REMARK    2  A    between atoms: N1_3  and  N2_4 
REMARK    3  A    between atoms: C2_5  and  C3_6 
REMARK    4  A    between atoms: C11_17  and  C2_5 
REMARK    5  A    between atoms: C11_17  and  O3_18 
REMARK    6  A    between atoms: C11_17  and  C12_19 
REMARK    7  A    between atoms: C12_19  and  O4_20 
REMARK    8  A    between atoms: C12_19  and  C13_21 
REMARK    9  A    between atoms: C13_21  and  O5_22 
ROOT
ATOM      1  N2  NON d   1     -40.972  18.101  -2.509  0.00  0.00    -0.171 NA
ATOM      2  C2  NON d   1     -41.783  18.152  -3.544  0.00  0.00     0.120 C 
ENDROOT
BRANCH   2   3
ATOM      3  C3  NON d   1     -41.252  18.674  -5.134  0.00  0.00     0.154 C 
ATOM      4  N3  NON d   1     -40.016  18.372  -5.484  0.00  0.00    -0.239 NA
ATOM      5  C4  NON d   1     -39.376  18.918  -6.601  0.00  0.00     0.084 A 
ATOM      6  C5  NON d   1     -37.993  18.765  -6.737  0.00  0.00     0.034 A 
ATOM      7  C9  NON d   1     -40.060  19.677  -7.544  0.00  0.00     0.064 A 
ATOM      8  C6  NON d   1     -37.316  19.332  -7.819  0.00  0.00     0.002 A 
ATOM      9  C7  NON d   1     -38.024  20.052  -8.782  0.00  0.00     0.002 A 
ATOM     10  C8  NON d   1     -39.404  20.224  -8.646  0.00  0.00     0.032 A 
ATOM     11  N4  NON d   1     -41.410  19.908  -7.327  0.00  0.00    -0.320 N 
ATOM     12  C10 NON d   1     -42.059  19.496  -6.182  0.00  0.00     0.277 C 
ATOM     13  H6  NON d   1     -41.957  20.447  -7.983  0.00  0.00     0.169 HD
ATOM     14  O2  NON d   1     -43.238  19.767  -6.045  0.00  0.00    -0.266 OA
ENDBRANCH   2   3
BRANCH   2  15
ATOM     15  C11 NON d   1     -43.538  17.666  -3.343  0.00  0.00     0.205 C 
BRANCH  15  16
ATOM     16  O3  NON d   1     -43.273  16.127  -3.230  0.00  0.00    -0.387 OA
ATOM     17  H8  NON d   1     -42.802  15.886  -4.049  0.00  0.00     0.210 HD
ENDBRANCH  15  16
BRANCH  15  18
ATOM     18  C12 NON d   1     -44.298  17.514  -4.674  0.00  0.00     0.176 C 
BRANCH  18  19
ATOM     19  O4  NON d   1     -43.652  16.368  -5.435  0.00  0.00    -0.390 OA
ATOM     20  H10 NON d   1     -44.011  15.562  -5.021  0.00  0.00     0.210 HD
ENDBRANCH  18  19
BRANCH  18  21
ATOM     21  C13 NON d   1     -45.704  16.888  -4.691  0.00  0.00     0.198 C 
BRANCH  21  22
ATOM     22  O5  NON d   1     -45.940  16.047  -5.810  0.00  0.00    -0.398 OA
ATOM     23  H13 NON d   1     -45.052  15.821  -6.153  0.00  0.00     0.209 HD
ENDBRANCH  21  22
ENDBRANCH  18  21
ENDBRANCH  15  18
ENDBRANCH   2  15
BRANCH   1  24
ATOM     24  N1  NON d   1     -39.653  18.402  -2.604  0.00  0.00    -0.242 N 
ATOM     25  C1  NON d   1     -39.027  19.635  -2.616  0.00  0.00     0.273 C 
ATOM     26  O1  NON d   1     -37.801  19.711  -2.704  0.00  0.00    -0.266 OA
ATOM     27  H1  NON d   1     -38.942  17.681  -2.638  0.00  0.00     0.192 HD
BRANCH  25  28
ATOM     28  C14 NON d   1     -39.779  20.891  -2.618  0.00  0.00     0.055 A 
ATOM     29  C15 NON d   1     -40.211  21.346  -3.875  0.00  0.00     0.019 A 
ATOM     30  C16 NON d   1     -40.898  22.552  -3.989  0.00  0.00     0.001 A 
ATOM     31  C17 NON d   1     -41.171  23.297  -2.846  0.00  0.00     0.002 A 
ATOM     32  C18 NON d   1     -40.690  22.875  -1.603  0.00  0.00     0.025 A 
ATOM     33  C19 NON d   1     -39.943  21.696  -1.494  0.00  0.00     0.049 A 
ATOM     34 Cl1  NON d   1     -39.139  21.386   0.005  0.00  0.00    -0.083 Cl
ENDBRANCH  25  28
ENDBRANCH   1  24
TORSDOF 9
ENDMDL
MODEL 4
REMARK VINA RESULT:    -8.993      1.635      2.763
REMARK INTER + INTRA:         -16.453
REMARK INTER:                 -11.677
REMARK INTRA:                  -4.776
REMARK CONF_INDEPENDENT:        2.685
REMARK UNBOUND:                -4.776
REMARK  9 active torsions:
REMARK  status: ('A' for Active; 'I' for Inactive)
REMARK       I    between atoms: C1_2  and  N1_3 
REMARK    1  A    between atoms: C1_2  and  C14_23 
REMARK    2  A    between atoms: N1_3  and  N2_4 
REMARK    3  A    between atoms: C2_5  and  C3_6 
REMARK    4  A    between atoms: C11_17  and  C2_5 
REMARK    5  A    between atoms: C11_17  and  O3_18 
REMARK    6  A    between atoms: C11_17  and  C12_19 
REMARK    7  A    between atoms: C12_19  and  O4_20 
REMARK    8  A    between atoms: C12_19  and  C13_21 
REMARK    9  A    between atoms: C13_21  and  O5_22 
ROOT
ATOM      1  N2  NON d   1     -40.829  18.621  -2.571  0.00  0.00    -0.171 NA
ATOM      2  C2  NON d   1     -41.569  18.512  -3.653  0.00  0.00     0.120 C 
ENDROOT
BRANCH   2   3
ATOM      3  C3  NON d   1     -40.952  18.868  -5.258  0.00  0.00     0.154 C 
ATOM      4  N3  NON d   1     -39.704  18.525  -5.512  0.00  0.00    -0.239 NA
ATOM      5  C4  NON d   1     -39.002  18.951  -6.644  0.00  0.00     0.084 A 
ATOM      6  C5  NON d   1     -37.616  18.776  -6.693  0.00  0.00     0.034 A 
ATOM      7  C9  NON d   1     -39.629  19.616  -7.691  0.00  0.00     0.064 A 
ATOM      8  C6  NON d   1     -36.879  19.228  -7.790  0.00  0.00     0.002 A 
ATOM      9  C7  NON d   1     -37.529  19.852  -8.855  0.00  0.00     0.002 A 
ATOM     10  C8  NON d   1     -38.912  20.046  -8.808  0.00  0.00     0.032 A 
ATOM     11  N4  NON d   1     -40.986  19.877  -7.568  0.00  0.00    -0.320 N 
ATOM     12  C10 NON d   1     -41.696  19.586  -6.423  0.00  0.00     0.277 C 
ATOM     13  H6  NON d   1     -41.493  20.352  -8.302  0.00  0.00     0.169 HD
ATOM     14  O2  NON d   1     -42.878  19.877  -6.374  0.00  0.00    -0.266 OA
ENDBRANCH   2   3
BRANCH   2  15
ATOM     15  C11 NON d   1     -43.313  17.971  -3.505  0.00  0.00     0.205 C 
BRANCH  15  16
ATOM     16  O3  NON d   1     -42.998  16.454  -3.278  0.00  0.00    -0.387 OA
ATOM     17  H8  NON d   1     -42.510  16.171  -4.073  0.00  0.00     0.210 HD
ENDBRANCH  15  16
BRANCH  15  18
ATOM     18  C12 NON d   1     -43.998  17.704  -4.859  0.00  0.00     0.176 C 
BRANCH  18  19
ATOM     19  O4  NON d   1     -43.453  16.389  -5.389  0.00  0.00    -0.390 OA
ATOM     20  H10 NON d   1     -43.864  15.706  -4.828  0.00  0.00     0.210 HD
ENDBRANCH  18  19
BRANCH  18  21
ATOM     21  C13 NON d   1     -45.468  17.247  -4.900  0.00  0.00     0.198 C 
BRANCH  21  22
ATOM     22  O5  NON d   1     -45.709  16.185  -5.810  0.00  0.00    -0.398 OA
ATOM     23  H13 NON d   1     -44.825  15.923  -6.138  0.00  0.00     0.209 HD
ENDBRANCH  21  22
ENDBRANCH  18  21
ENDBRANCH  15  18
ENDBRANCH   2  15
BRANCH   1  24
ATOM     24  N1  NON d   1     -39.519  18.970  -2.618  0.00  0.00    -0.242 N 
ATOM     25  C1  NON d   1     -38.893  20.115  -2.160  0.00  0.00     0.273 C 
ATOM     26  O1  NON d   1     -37.676  20.255  -2.288  0.00  0.00    -0.266 OA
ATOM     27  H1  NON d   1     -38.813  18.347  -2.994  0.00  0.00     0.192 HD
BRANCH  25  28
ATOM     28  C14 NON d   1     -39.641  21.238  -1.594  0.00  0.00     0.055 A 
ATOM     29  C15 NON d   1     -39.792  21.235  -0.196  0.00  0.00     0.019 A 
ATOM     30  C16 NON d   1     -40.522  22.237   0.436  0.00  0.00     0.001 A 
ATOM     31  C17 NON d   1     -41.090  23.256  -0.323  0.00  0.00     0.002 A 
ATOM     32  C18 NON d   1     -40.992  23.228  -1.717  0.00  0.00     0.025 A 
ATOM     33  C19 NON d   1     -40.313  22.187  -2.361  0.00  0.00     0.049 A 
ATOM     34 Cl1  NON d   1     -40.476  22.056  -4.078  0.00  0.00    -0.083 Cl
ENDBRANCH  25  28
ENDBRANCH   1  24
TORSDOF 9
ENDMDL
MODEL 5
REMARK VINA RESULT:    -8.572      2.480      5.242
REMARK INTER + INTRA:         -16.241
REMARK INTER:                 -11.257
REMARK INTRA:                  -4.984
REMARK CONF_INDEPENDENT:        2.685
REMARK UNBOUND:                -4.984
REMARK  9 active torsions:
REMARK  status: ('A' for Active; 'I' for Inactive)
REMARK       I    between atoms: C1_2  and  N1_3 
REMARK    1  A    between atoms: C1_2  and  C14_23 
REMARK    2  A    between atoms: N1_3  and  N2_4 
REMARK    3  A    between atoms: C2_5  and  C3_6 
REMARK    4  A    between atoms: C11_17  and  C2_5 
REMARK    5  A    between atoms: C11_17  and  O3_18 
REMARK    6  A    between atoms: C11_17  and  C12_19 
REMARK    7  A    between atoms: C12_19  and  O4_20 
REMARK    8  A    between atoms: C12_19  and  C13_21 
REMARK    9  A    between atoms: C13_21  and  O5_22 
ROOT
ATOM      1  N2  NON d   1     -41.750  19.109  -6.075  0.00  0.00    -0.171 NA
ATOM      2  C2  NON d   1     -41.860  18.860  -4.789  0.00  0.00     0.120 C 
ENDROOT
BRANCH   2   3
ATOM      3  C3  NON d   1     -41.186  19.919  -3.561  0.00  0.00     0.154 C 
ATOM      4  N3  NON d   1     -41.171  21.212  -3.825  0.00  0.00    -0.239 NA
ATOM      5  C4  NON d   1     -40.460  22.145  -3.065  0.00  0.00     0.084 A 
ATOM      6  C5  NON d   1     -40.271  23.435  -3.572  0.00  0.00     0.034 A 
ATOM      7  C9  NON d   1     -39.865  21.809  -1.854  0.00  0.00     0.064 A 
ATOM      8  C6  NON d   1     -39.530  24.379  -2.857  0.00  0.00     0.002 A 
ATOM      9  C7  NON d   1     -38.979  24.041  -1.621  0.00  0.00     0.002 A 
ATOM     10  C8  NON d   1     -39.148  22.750  -1.114  0.00  0.00     0.032 A 
ATOM     11  N4  NON d   1     -39.972  20.494  -1.427  0.00  0.00    -0.320 N 
ATOM     12  C10 NON d   1     -40.557  19.510  -2.196  0.00  0.00     0.277 C 
ATOM     13  H6  NON d   1     -39.565  20.196  -0.552  0.00  0.00     0.169 HD
ATOM     14  O2  NON d   1     -40.582  18.369  -1.771  0.00  0.00    -0.266 OA
ENDBRANCH   2   3
BRANCH   2  15
ATOM     15  C11 NON d   1     -42.745  17.355  -4.231  0.00  0.00     0.205 C 
BRANCH  15  16
ATOM     16  O3  NON d   1     -42.917  16.727  -5.655  0.00  0.00    -0.387 OA
ATOM     17  H8  NON d   1     -43.761  17.080  -5.991  0.00  0.00     0.210 HD
ENDBRANCH  15  16
BRANCH  15  18
ATOM     18  C12 NON d   1     -44.261  17.555  -4.052  0.00  0.00     0.176 C 
BRANCH  18  19
ATOM     19  O4  NON d   1     -44.673  18.709  -4.950  0.00  0.00    -0.390 OA
ATOM     20  H10 NON d   1     -44.263  18.511  -5.812  0.00  0.00     0.210 HD
ENDBRANCH  18  19
BRANCH  18  21
ATOM     21  C13 NON d   1     -45.249  16.557  -4.683  0.00  0.00     0.198 C 
BRANCH  21  22
ATOM     22  O5  NON d   1     -45.939  17.074  -5.810  0.00  0.00    -0.398 OA
ATOM     23  H13 NON d   1     -46.137  18.006  -5.584  0.00  0.00     0.209 HD
ENDBRANCH  21  22
ENDBRANCH  18  21
ENDBRANCH  15  18
ENDBRANCH   2  15
BRANCH   1  24
ATOM     24  N1  NON d   1     -41.150  20.229  -6.550  0.00  0.00    -0.242 N 
ATOM     25  C1  NON d   1     -39.804  20.519  -6.688  0.00  0.00     0.273 C 
ATOM     26  O1  NON d   1     -39.444  21.602  -7.151  0.00  0.00    -0.266 OA
ATOM     27  H1  NON d   1     -41.685  21.009  -6.915  0.00  0.00     0.192 HD
BRANCH  25  28
ATOM     28  C14 NON d   1     -38.759  19.610  -6.217  0.00  0.00     0.055 A 
ATOM     29  C15 NON d   1     -38.542  19.591  -4.828  0.00  0.00     0.019 A 
ATOM     30  C16 NON d   1     -37.542  18.791  -4.283  0.00  0.00     0.001 A 
ATOM     31  C17 NON d   1     -36.766  17.994  -5.120  0.00  0.00     0.002 A 
ATOM     32  C18 NON d   1     -36.941  18.059  -6.506  0.00  0.00     0.025 A 
ATOM     33  C19 NON d   1     -37.903  18.910  -7.062  0.00  0.00     0.049 A 
ATOM     34 Cl1  NON d   1     -37.870  19.156  -8.774  0.00  0.00    -0.083 Cl
ENDBRANCH  25  28
ENDBRANCH   1  24
TORSDOF 9
ENDMDL
MODEL 6
REMARK VINA RESULT:    -8.547      2.214      5.056
REMARK INTER + INTRA:         -16.436
REMARK INTER:                 -11.232
REMARK INTRA:                  -5.204
REMARK CONF_INDEPENDENT:        2.685
REMARK UNBOUND:                -5.204
REMARK  9 active torsions:
REMARK  status: ('A' for Active; 'I' for Inactive)
REMARK       I    between atoms: C1_2  and  N1_3 
REMARK    1  A    between atoms: C1_2  and  C14_23 
REMARK    2  A    between atoms: N1_3  and  N2_4 
REMARK    3  A    between atoms: C2_5  and  C3_6 
REMARK    4  A    between atoms: C11_17  and  C2_5 
REMARK    5  A    between atoms: C11_17  and  O3_18 
REMARK    6  A    between atoms: C11_17  and  C12_19 
REMARK    7  A    between atoms: C12_19  and  O4_20 
REMARK    8  A    between atoms: C12_19  and  C13_21 
REMARK    9  A    between atoms: C13_21  and  O5_22 
ROOT
ATOM      1  N2  NON d   1     -42.045  19.854  -5.267  0.00  0.00    -0.171 NA
ATOM      2  C2  NON d   1     -41.714  19.018  -4.307  0.00  0.00     0.120 C 
ENDROOT
BRANCH   2   3
ATOM      3  C3  NON d   1     -40.401  19.340  -3.187  0.00  0.00     0.154 C 
ATOM      4  N3  NON d   1     -40.661  20.138  -2.168  0.00  0.00    -0.239 NA
ATOM      5  C4  NON d   1     -39.672  20.676  -1.338  0.00  0.00     0.084 A 
ATOM      6  C5  NON d   1     -40.004  21.721  -0.472  0.00  0.00     0.034 A 
ATOM      7  C9  NON d   1     -38.349  20.255  -1.403  0.00  0.00     0.064 A 
ATOM      8  C6  NON d   1     -39.032  22.309   0.341  0.00  0.00     0.002 A 
ATOM      9  C7  NON d   1     -37.717  21.844   0.299  0.00  0.00     0.002 A 
ATOM     10  C8  NON d   1     -37.372  20.811  -0.575  0.00  0.00     0.032 A 
ATOM     11  N4  NON d   1     -38.023  19.295  -2.349  0.00  0.00    -0.320 N 
ATOM     12  C10 NON d   1     -38.934  18.823  -3.270  0.00  0.00     0.277 C 
ATOM     13  H6  NON d   1     -37.078  18.949  -2.434  0.00  0.00     0.169 HD
ATOM     14  O2  NON d   1     -38.565  18.006  -4.095  0.00  0.00    -0.266 OA
ENDBRANCH   2   3
BRANCH   2  15
ATOM     15  C11 NON d   1     -42.644  17.451  -4.110  0.00  0.00     0.205 C 
BRANCH  15  16
ATOM     16  O3  NON d   1     -42.609  17.047  -5.622  0.00  0.00    -0.387 OA
ATOM     17  H8  NON d   1     -42.764  17.875  -6.113  0.00  0.00     0.210 HD
ENDBRANCH  15  16
BRANCH  15  18
ATOM     18  C12 NON d   1     -44.173  17.630  -4.115  0.00  0.00     0.176 C 
BRANCH  18  19
ATOM     19  O4  NON d   1     -44.488  18.799  -5.033  0.00  0.00    -0.390 OA
ATOM     20  H10 NON d   1     -44.170  18.518  -5.910  0.00  0.00     0.210 HD
ENDBRANCH  18  19
BRANCH  18  21
ATOM     21  C13 NON d   1     -45.063  16.635  -4.882  0.00  0.00     0.198 C 
BRANCH  21  22
ATOM     22  O5  NON d   1     -45.940  17.254  -5.810  0.00  0.00    -0.398 OA
ATOM     23  H13 NON d   1     -46.169  18.117  -5.410  0.00  0.00     0.209 HD
ENDBRANCH  21  22
ENDBRANCH  18  21
ENDBRANCH  15  18
ENDBRANCH   2  15
BRANCH   1  24
ATOM     24  N1  NON d   1     -41.428  21.050  -5.435  0.00  0.00    -0.242 N 
ATOM     25  C1  NON d   1     -40.303  21.367  -6.175  0.00  0.00     0.273 C 
ATOM     26  O1  NON d   1     -39.888  22.526  -6.212  0.00  0.00    -0.266 OA
ATOM     27  H1  NON d   1     -41.793  21.901  -5.025  0.00  0.00     0.192 HD
BRANCH  25  28
ATOM     28  C14 NON d   1     -39.510  20.348  -6.863  0.00  0.00     0.055 A 
ATOM     29  C15 NON d   1     -40.220  19.495  -7.725  0.00  0.00     0.019 A 
ATOM     30  C16 NON d   1     -39.565  18.466  -8.395  0.00  0.00     0.001 A 
ATOM     31  C17 NON d   1     -38.194  18.297  -8.221  0.00  0.00     0.002 A 
ATOM     32  C18 NON d   1     -37.498  19.107  -7.318  0.00  0.00     0.025 A 
ATOM     33  C19 NON d   1     -38.167  20.101  -6.595  0.00  0.00     0.049 A 
ATOM     34 Cl1  NON d   1     -37.316  20.864  -5.296  0.00  0.00    -0.083 Cl
ENDBRANCH  25  28
ENDBRANCH   1  24
TORSDOF 9
ENDMDL
MODEL 7
REMARK VINA RESULT:    -8.387      2.239      3.838
REMARK INTER + INTRA:         -16.482
REMARK INTER:                 -11.072
REMARK INTRA:                  -5.410
REMARK CONF_INDEPENDENT:        2.685
REMARK UNBOUND:                -5.410
REMARK  9 active torsions:
REMARK  status: ('A' for Active; 'I' for Inactive)
REMARK       I    between atoms: C1_2  and  N1_3 
REMARK    1  A    between atoms: C1_2  and  C14_23 
REMARK    2  A    between atoms: N1_3  and  N2_4 
REMARK    3  A    between atoms: C2_5  and  C3_6 
REMARK    4  A    between atoms: C11_17  and  C2_5 
REMARK    5  A    between atoms: C11_17  and  O3_18 
REMARK    6  A    between atoms: C11_17  and  C12_19 
REMARK    7  A    between atoms: C12_19  and  O4_20 
REMARK    8  A    between atoms: C12_19  and  C13_21 
REMARK    9  A    between atoms: C13_21  and  O5_22 
ROOT
ATOM      1  N2  NON d   1     -41.090  18.809  -2.207  0.00  0.00    -0.171 NA
ATOM      2  C2  NON d   1     -41.548  18.738  -3.437  0.00  0.00     0.120 C 
ENDROOT
BRANCH   2   3
ATOM      3  C3  NON d   1     -41.229  19.979  -4.637  0.00  0.00     0.154 C 
ATOM      4  N3  NON d   1     -41.131  19.589  -5.894  0.00  0.00    -0.239 NA
ATOM      5  C4  NON d   1     -40.647  20.407  -6.919  0.00  0.00     0.084 A 
ATOM      6  C5  NON d   1     -40.315  19.833  -8.150  0.00  0.00     0.034 A 
ATOM      7  C9  NON d   1     -40.412  21.764  -6.729  0.00  0.00     0.064 A 
ATOM      8  C6  NON d   1     -39.791  20.615  -9.182  0.00  0.00     0.002 A 
ATOM      9  C7  NON d   1     -39.604  21.984  -8.992  0.00  0.00     0.002 A 
ATOM     10  C8  NON d   1     -39.918  22.564  -7.760  0.00  0.00     0.032 A 
ATOM     11  N4  NON d   1     -40.644  22.287  -5.466  0.00  0.00    -0.320 N 
ATOM     12  C10 NON d   1     -41.003  21.501  -4.392  0.00  0.00     0.277 C 
ATOM     13  H6  NON d   1     -40.496  23.268  -5.274  0.00  0.00     0.169 HD
ATOM     14  O2  NON d   1     -41.155  22.026  -3.303  0.00  0.00    -0.266 OA
ENDBRANCH   2   3
BRANCH   2  15
ATOM     15  C11 NON d   1     -42.564  17.299  -3.942  0.00  0.00     0.205 C 
BRANCH  15  16
ATOM     16  O3  NON d   1     -42.121  17.302  -5.444  0.00  0.00    -0.387 OA
ATOM     17  H8  NON d   1     -42.504  18.114  -5.823  0.00  0.00     0.210 HD
ENDBRANCH  15  16
BRANCH  15  18
ATOM     18  C12 NON d   1     -44.021  17.657  -4.292  0.00  0.00     0.176 C 
BRANCH  18  19
ATOM     19  O4  NON d   1     -43.977  18.660  -5.432  0.00  0.00    -0.390 OA
ATOM     20  H10 NON d   1     -43.168  19.181  -5.274  0.00  0.00     0.210 HD
ENDBRANCH  18  19
BRANCH  18  21
ATOM     21  C13 NON d   1     -44.900  16.650  -5.055  0.00  0.00     0.198 C 
BRANCH  21  22
ATOM     22  O5  NON d   1     -45.938  17.256  -5.809  0.00  0.00    -0.398 OA
ATOM     23  H13 NON d   1     -46.032  18.156  -5.437  0.00  0.00     0.209 HD
ENDBRANCH  21  22
ENDBRANCH  18  21
ENDBRANCH  15  18
ENDBRANCH   2  15
BRANCH   1  24
ATOM     24  N1  NON d   1     -40.294  19.823  -1.785  0.00  0.00    -0.242 N 
ATOM     25  C1  NON d   1     -38.953  20.055  -2.034  0.00  0.00     0.273 C 
ATOM     26  O1  NON d   1     -38.394  21.046  -1.563  0.00  0.00    -0.266 OA
ATOM     27  H1  NON d   1     -40.655  20.590  -1.230  0.00  0.00     0.192 HD
BRANCH  25  28
ATOM     28  C14 NON d   1     -38.123  19.107  -2.778  0.00  0.00     0.055 A 
ATOM     29  C15 NON d   1     -37.720  17.959  -2.075  0.00  0.00     0.019 A 
ATOM     30  C16 NON d   1     -36.894  17.016  -2.680  0.00  0.00     0.001 A 
ATOM     31  C17 NON d   1     -36.482  17.208  -3.996  0.00  0.00     0.002 A 
ATOM     32  C18 NON d   1     -36.834  18.378  -4.676  0.00  0.00     0.025 A 
ATOM     33  C19 NON d   1     -37.611  19.358  -4.048  0.00  0.00     0.049 A 
ATOM     34 Cl1  NON d   1     -37.764  20.892  -4.833  0.00  0.00    -0.083 Cl
ENDBRANCH  25  28
ENDBRANCH   1  24
TORSDOF 9
ENDMDL
MODEL 8
REMARK VINA RESULT:    -8.166      1.768      4.810
REMARK INTER + INTRA:         -15.750
REMARK INTER:                 -10.851
REMARK INTRA:                  -4.899
REMARK CONF_INDEPENDENT:        2.685
REMARK UNBOUND:                -4.899
REMARK  9 active torsions:
REMARK  status: ('A' for Active; 'I' for Inactive)
REMARK       I    between atoms: C1_2  and  N1_3 
REMARK    1  A    between atoms: C1_2  and  C14_23 
REMARK    2  A    between atoms: N1_3  and  N2_4 
REMARK    3  A    between atoms: C2_5  and  C3_6 
REMARK    4  A    between atoms: C11_17  and  C2_5 
REMARK    5  A    between atoms: C11_17  and  O3_18 
REMARK    6  A    between atoms: C11_17  and  C12_19 
REMARK    7  A    between atoms: C12_19  and  O4_20 
REMARK    8  A    between atoms: C12_19  and  C13_21 
REMARK    9  A    between atoms: C13_21  and  O5_22 
ROOT
ATOM      1  N2  NON d   1     -40.545  17.829  -3.360  0.00  0.00    -0.171 NA
ATOM      2  C2  NON d   1     -41.207  18.683  -4.110  0.00  0.00     0.120 C 
ENDROOT
BRANCH   2   3
ATOM      3  C3  NON d   1     -40.897  20.411  -4.071  0.00  0.00     0.154 C 
ATOM      4  N3  NON d   1     -40.690  20.958  -2.888  0.00  0.00    -0.239 NA
ATOM      5  C4  NON d   1     -40.669  22.339  -2.670  0.00  0.00     0.084 A 
ATOM      6  C5  NON d   1     -40.726  22.823  -1.360  0.00  0.00     0.034 A 
ATOM      7  C9  NON d   1     -40.673  23.249  -3.721  0.00  0.00     0.064 A 
ATOM      8  C6  NON d   1     -40.748  24.197  -1.110  0.00  0.00     0.002 A 
ATOM      9  C7  NON d   1     -40.704  25.099  -2.173  0.00  0.00     0.002 A 
ATOM     10  C8  NON d   1     -40.664  24.625  -3.486  0.00  0.00     0.032 A 
ATOM     11  N4  NON d   1     -40.730  22.744  -5.011  0.00  0.00    -0.320 N 
ATOM     12  C10 NON d   1     -40.874  21.399  -5.275  0.00  0.00     0.277 C 
ATOM     13  H6  NON d   1     -40.728  23.360  -5.812  0.00  0.00     0.169 HD
ATOM     14  O2  NON d   1     -40.953  21.032  -6.434  0.00  0.00    -0.266 OA
ENDBRANCH   2   3
BRANCH   2  15
ATOM     15  C11 NON d   1     -42.510  18.071  -5.244  0.00  0.00     0.205 C 
BRANCH  15  16
ATOM     16  O3  NON d   1     -42.840  19.462  -5.883  0.00  0.00    -0.387 OA
ATOM     17  H8  NON d   1     -43.056  20.045  -5.132  0.00  0.00     0.210 HD
ENDBRANCH  15  16
BRANCH  15  18
ATOM     18  C12 NON d   1     -43.900  17.955  -4.590  0.00  0.00     0.176 C 
BRANCH  18  19
ATOM     19  O4  NON d   1     -44.767  19.057  -5.176  0.00  0.00    -0.390 OA
ATOM     20  H10 NON d   1     -44.882  18.810  -6.112  0.00  0.00     0.210 HD
ENDBRANCH  18  19
BRANCH  18  21
ATOM     21  C13 NON d   1     -44.854  16.821  -5.006  0.00  0.00     0.198 C 
BRANCH  21  22
ATOM     22  O5  NON d   1     -45.940  17.256  -5.810  0.00  0.00    -0.398 OA
ATOM     23  H13 NON d   1     -46.184  18.135  -5.456  0.00  0.00     0.209 HD
ENDBRANCH  21  22
ENDBRANCH  18  21
ENDBRANCH  15  18
ENDBRANCH   2  15
BRANCH   1  24
ATOM     24  N1  NON d   1     -39.538  18.212  -2.536  0.00  0.00    -0.242 N 
ATOM     25  C1  NON d   1     -38.415  18.971  -2.809  0.00  0.00     0.273 C 
ATOM     26  O1  NON d   1     -37.602  19.225  -1.919  0.00  0.00    -0.266 OA
ATOM     27  H1  NON d   1     -39.541  17.987  -1.548  0.00  0.00     0.192 HD
BRANCH  25  28
ATOM     28  C14 NON d   1     -38.091  19.426  -4.162  0.00  0.00     0.055 A 
ATOM     29  C15 NON d   1     -38.060  18.431  -5.154  0.00  0.00     0.019 A 
ATOM     30  C16 NON d   1     -37.721  18.754  -6.465  0.00  0.00     0.001 A 
ATOM     31  C17 NON d   1     -37.431  20.075  -6.794  0.00  0.00     0.002 A 
ATOM     32  C18 NON d   1     -37.403  21.054  -5.797  0.00  0.00     0.025 A 
ATOM     33  C19 NON d   1     -37.680  20.721  -4.466  0.00  0.00     0.049 A 
ATOM     34 Cl1  NON d   1     -37.348  21.906  -3.251  0.00  0.00    -0.083 Cl
ENDBRANCH  25  28
ENDBRANCH   1  24
TORSDOF 9
ENDMDL
MODEL 9
REMARK VINA RESULT:    -7.760      2.166      3.560
REMARK INTER + INTRA:         -15.668
REMARK INTER:                 -10.445
REMARK INTRA:                  -5.223
REMARK CONF_INDEPENDENT:        2.685
REMARK UNBOUND:                -5.223
REMARK  9 active torsions:
REMARK  status: ('A' for Active; 'I' for Inactive)
REMARK       I    between atoms: C1_2  and  N1_3 
REMARK    1  A    between atoms: C1_2  and  C14_23 
REMARK    2  A    between atoms: N1_3  and  N2_4 
REMARK    3  A    between atoms: C2_5  and  C3_6 
REMARK    4  A    between atoms: C11_17  and  C2_5 
REMARK    5  A    between atoms: C11_17  and  O3_18 
REMARK    6  A    between atoms: C11_17  and  C12_19 
REMARK    7  A    between atoms: C12_19  and  O4_20 
REMARK    8  A    between atoms: C12_19  and  C13_21 
REMARK    9  A    between atoms: C13_21  and  O5_22 
ROOT
ATOM      1  N2  NON d   1     -41.515  19.642  -3.423  0.00  0.00    -0.171 NA
ATOM      2  C2  NON d   1     -41.573  18.770  -4.406  0.00  0.00     0.120 C 
ENDROOT
BRANCH   2   3
ATOM      3  C3  NON d   1     -40.714  18.996  -5.921  0.00  0.00     0.154 C 
ATOM      4  N3  NON d   1     -39.509  18.466  -6.013  0.00  0.00    -0.239 NA
ATOM      5  C4  NON d   1     -38.615  18.760  -7.047  0.00  0.00     0.084 A 
ATOM      6  C5  NON d   1     -37.275  18.380  -6.918  0.00  0.00     0.034 A 
ATOM      7  C9  NON d   1     -38.999  19.487  -8.167  0.00  0.00     0.064 A 
ATOM      8  C6  NON d   1     -36.347  18.694  -7.914  0.00  0.00     0.002 A 
ATOM      9  C7  NON d   1     -36.758  19.384  -9.055  0.00  0.00     0.002 A 
ATOM     10  C8  NON d   1     -38.090  19.782  -9.185  0.00  0.00     0.032 A 
ATOM     11  N4  NON d   1     -40.306  19.949  -8.219  0.00  0.00    -0.320 N 
ATOM     12  C10 NON d   1     -41.189  19.791  -7.173  0.00  0.00     0.277 C 
ATOM     13  H6  NON d   1     -40.640  20.477  -9.013  0.00  0.00     0.169 HD
ATOM     14  O2  NON d   1     -42.311  20.255  -7.276  0.00  0.00    -0.266 OA
ENDBRANCH   2   3
BRANCH   2  15
ATOM     15  C11 NON d   1     -42.585  17.254  -4.213  0.00  0.00     0.205 C 
BRANCH  15  16
ATOM     16  O3  NON d   1     -42.779  16.988  -5.744  0.00  0.00    -0.387 OA
ATOM     17  H8  NON d   1     -43.614  17.433  -5.978  0.00  0.00     0.210 HD
ENDBRANCH  15  16
BRANCH  15  18
ATOM     18  C12 NON d   1     -44.084  17.531  -3.994  0.00  0.00     0.176 C 
BRANCH  18  19
ATOM     19  O4  NON d   1     -44.482  18.646  -4.946  0.00  0.00    -0.390 OA
ATOM     20  H10 NON d   1     -45.454  18.691  -4.883  0.00  0.00     0.210 HD
ENDBRANCH  18  19
BRANCH  18  21
ATOM     21  C13 NON d   1     -45.136  16.541  -4.526  0.00  0.00     0.198 C 
BRANCH  21  22
ATOM     22  O5  NON d   1     -45.639  16.879  -5.809  0.00  0.00    -0.398 OA
ATOM     23  H13 NON d   1     -44.985  17.502  -6.185  0.00  0.00     0.209 HD
ENDBRANCH  21  22
ENDBRANCH  18  21
ENDBRANCH  15  18
ENDBRANCH   2  15
BRANCH   1  24
ATOM     24  N1  NON d   1     -40.747  20.758  -3.486  0.00  0.00    -0.242 N 
ATOM     25  C1  NON d   1     -39.370  20.882  -3.501  0.00  0.00     0.273 C 
ATOM     26  O1  NON d   1     -38.845  21.995  -3.567  0.00  0.00    -0.266 OA
ATOM     27  H1  NON d   1     -41.154  21.682  -3.573  0.00  0.00     0.192 HD
BRANCH  25  28
ATOM     28  C14 NON d   1     -38.481  19.730  -3.349  0.00  0.00     0.055 A 
ATOM     29  C15 NON d   1     -38.902  18.745  -2.438  0.00  0.00     0.019 A 
ATOM     30  C16 NON d   1     -38.107  17.629  -2.191  0.00  0.00     0.001 A 
ATOM     31  C17 NON d   1     -36.899  17.484  -2.866  0.00  0.00     0.002 A 
ATOM     32  C18 NON d   1     -36.452  18.491  -3.726  0.00  0.00     0.025 A 
ATOM     33  C19 NON d   1     -37.218  19.644  -3.929  0.00  0.00     0.049 A 
ATOM     34 Cl1  NON d   1     -36.483  20.966  -4.768  0.00  0.00    -0.083 Cl
ENDBRANCH  25  28
ENDBRANCH   1  24
TORSDOF 9
ENDMDL
