MODEL 1
REMARK VINA RESULT:   -29.746      0.000      0.000
REMARK INTER + INTRA:         -32.848
REMARK INTER:                 -32.133
REMARK INTRA:                  -0.715
REMARK CONF_INDEPENDENT:        2.386
REMARK UNBOUND:                -0.715
REMARK  8 active torsions:
REMARK  status: ('A' for Active; 'I' for Inactive)
REMARK    1  A    between atoms: S1_2  and  C2_3 
REMARK    2  A    between atoms: C5_6  and  C6_7 
REMARK    3  A    between atoms: C7_8  and  C8_9 
REMARK    4  A    between atoms: C8_9  and  O2_11 
REMARK    5  A    between atoms: O2_11  and  C9_12 
REMARK    6  A    between atoms: C9_12  and  C10_13 
REMARK       I    between atoms: C10_13  and  N1_15 
REMARK    7  A    between atoms: C11_16  and  N1_15 
REMARK    8  A    between atoms: C11_16  and  C14_20 
ROOT
ATOM      1  C11 NON d   1     -47.713  15.547  -4.327  0.00  0.00     0.093 C 
ATOM      2  C12 NON d   1     -46.532  16.201  -3.586  0.00  0.00     0.048 C 
ATOM      3  C13 NON d   1     -48.895  14.894  -5.069  0.00  0.00     0.006 C 
ATOM      4  N2  NON d   1     -50.075  14.241  -5.810  0.00  0.00    -0.099 N 
ENDROOT
BRANCH   1   5
ATOM      5  N1  NON d   1     -47.125  16.138  -5.810  0.00  0.00    -0.240 NA
ATOM      6  C10 NON d   1     -46.883  17.521  -6.154  0.00  0.00     0.223 C 
ATOM      7  O3  NON d   1     -47.814  18.221  -6.559  0.00  0.00    -0.277 OA
ATOM      8  H10 NON d   1     -46.286  15.616  -6.053  0.00  0.00     0.132 HD
BRANCH   6   9
ATOM      9  C9  NON d   1     -45.400  18.154  -5.892  0.00  0.00     0.275 C 
BRANCH   9  10
ATOM     10  O2  NON d   1     -44.850  18.309  -4.514  0.00  0.00    -0.309 OA
BRANCH  10  11
ATOM     11  C8  NON d   1     -43.677  17.626  -4.258  0.00  0.00     0.283 C 
ATOM     12  O1  NON d   1     -43.619  16.751  -3.393  0.00  0.00    -0.260 OA
BRANCH  11  13
ATOM     13  C7  NON d   1     -42.395  17.917  -5.061  0.00  0.00     0.083 C 
ATOM     14  C6  NON d   1     -41.372  18.801  -4.954  0.00  0.00     0.017 C 
BRANCH  14  15
ATOM     15  C5  NON d   1     -40.082  18.970  -5.785  0.00  0.00    -0.036 A 
ATOM     16  C4  NON d   1     -40.194  19.000  -7.186  0.00  0.00     0.012 A 
ATOM     17  C3  NON d   1     -39.065  19.097  -8.070  0.00  0.00     0.019 A 
ATOM     18  C2  NON d   1     -37.728  19.172  -7.628  0.00  0.00    -0.000 A 
ATOM     19  C18 NON d   1     -37.590  19.166  -6.232  0.00  0.00     0.019 A 
ATOM     20  C17 NON d   1     -38.745  19.068  -5.333  0.00  0.00     0.012 A 
BRANCH  18  21
ATOM     21  S1  NON d   1     -36.442  19.253  -8.974  0.00  0.00    -0.134 SA
ATOM     22  C1  NON d   1     -36.834  20.196 -10.127  0.00  0.00     0.095 C 
ENDBRANCH  18  21
ENDBRANCH  14  15
ENDBRANCH  11  13
ENDBRANCH  10  11
ENDBRANCH   9  10
ENDBRANCH   6   9
ENDBRANCH   1   5
BRANCH   1  23
ATOM     23  C14 NON d   1     -48.688  16.125  -3.284  0.00  0.00     0.013 C 
ATOM     24  C15 NON d   1     -50.005  15.317  -2.847  0.00  0.00     0.012 C 
ATOM     25  C16 NON d   1     -48.178  16.503  -1.881  0.00  0.00     0.012 C 
ENDBRANCH   1  23
TORSDOF 8
ENDMDL
MODEL 2
REMARK VINA RESULT:   -28.710      2.384      2.565
REMARK INTER + INTRA:         -31.983
REMARK INTER:                 -31.096
REMARK INTRA:                  -0.887
REMARK CONF_INDEPENDENT:        2.386
REMARK UNBOUND:                -0.887
REMARK  8 active torsions:
REMARK  status: ('A' for Active; 'I' for Inactive)
REMARK    1  A    between atoms: S1_2  and  C2_3 
REMARK    2  A    between atoms: C5_6  and  C6_7 
REMARK    3  A    between atoms: C7_8  and  C8_9 
REMARK    4  A    between atoms: C8_9  and  O2_11 
REMARK    5  A    between atoms: O2_11  and  C9_12 
REMARK    6  A    between atoms: C9_12  and  C10_13 
REMARK       I    between atoms: C10_13  and  N1_15 
REMARK    7  A    between atoms: C11_16  and  N1_15 
REMARK    8  A    between atoms: C11_16  and  C14_20 
ROOT
ATOM      1  C11 NON d   1     -47.720  15.548  -4.327  0.00  0.00     0.093 C 
ATOM      2  C12 NON d   1     -46.537  16.199  -3.586  0.00  0.00     0.048 C 
ATOM      3  C13 NON d   1     -48.902  14.897  -5.069  0.00  0.00     0.006 C 
ATOM      4  N2  NON d   1     -50.084  14.246  -5.810  0.00  0.00    -0.099 N 
ENDROOT
BRANCH   1   5
ATOM      5  N1  NON d   1     -47.130  16.137  -5.810  0.00  0.00    -0.240 NA
ATOM      6  C10 NON d   1     -46.885  17.520  -6.154  0.00  0.00     0.223 C 
ATOM      7  O3  NON d   1     -47.814  18.222  -6.560  0.00  0.00    -0.277 OA
ATOM      8  H10 NON d   1     -46.292  15.613  -6.053  0.00  0.00     0.132 HD
BRANCH   6   9
ATOM      9  C9  NON d   1     -45.401  18.149  -5.892  0.00  0.00     0.275 C 
BRANCH   9  10
ATOM     10  O2  NON d   1     -44.273  17.309  -5.394  0.00  0.00    -0.309 OA
BRANCH  10  11
ATOM     11  C8  NON d   1     -43.494  17.878  -4.405  0.00  0.00     0.283 C 
ATOM     12  O1  NON d   1     -43.586  17.521  -3.231  0.00  0.00    -0.260 OA
BRANCH  11  13
ATOM     13  C7  NON d   1     -42.461  18.972  -4.737  0.00  0.00     0.083 C 
ATOM     14  C6  NON d   1     -41.729  19.304  -5.830  0.00  0.00     0.017 C 
BRANCH  14  15
ATOM     15  C5  NON d   1     -40.756  20.476  -6.084  0.00  0.00    -0.036 A 
ATOM     16  C4  NON d   1     -40.533  21.392  -5.041  0.00  0.00     0.012 A 
ATOM     17  C3  NON d   1     -39.695  22.552  -5.170  0.00  0.00     0.019 A 
ATOM     18  C2  NON d   1     -39.010  22.896  -6.355  0.00  0.00    -0.000 A 
ATOM     19  C18 NON d   1     -39.199  21.985  -7.405  0.00  0.00     0.019 A 
ATOM     20  C17 NON d   1     -40.054  20.802  -7.268  0.00  0.00     0.012 A 
BRANCH  18  21
ATOM     21  S1  NON d   1     -38.017  24.471  -6.278  0.00  0.00    -0.134 SA
ATOM     22  C1  NON d   1     -38.750  25.677  -6.896  0.00  0.00     0.095 C 
ENDBRANCH  18  21
ENDBRANCH  14  15
ENDBRANCH  11  13
ENDBRANCH  10  11
ENDBRANCH   9  10
ENDBRANCH   6   9
ENDBRANCH   1   5
BRANCH   1  23
ATOM     23  C14 NON d   1     -48.693  16.129  -3.284  0.00  0.00     0.013 C 
ATOM     24  C15 NON d   1     -50.012  15.324  -2.848  0.00  0.00     0.012 C 
ATOM     25  C16 NON d   1     -48.183  16.505  -1.881  0.00  0.00     0.012 C 
ENDBRANCH   1  23
TORSDOF 8
ENDMDL
MODEL 3
REMARK VINA RESULT:   -28.693      2.612      3.451
REMARK INTER + INTRA:         -31.902
REMARK INTER:                 -31.079
REMARK INTRA:                  -0.823
REMARK CONF_INDEPENDENT:        2.386
REMARK UNBOUND:                -0.823
REMARK  8 active torsions:
REMARK  status: ('A' for Active; 'I' for Inactive)
REMARK    1  A    between atoms: S1_2  and  C2_3 
REMARK    2  A    between atoms: C5_6  and  C6_7 
REMARK    3  A    between atoms: C7_8  and  C8_9 
REMARK    4  A    between atoms: C8_9  and  O2_11 
REMARK    5  A    between atoms: O2_11  and  C9_12 
REMARK    6  A    between atoms: C9_12  and  C10_13 
REMARK       I    between atoms: C10_13  and  N1_15 
REMARK    7  A    between atoms: C11_16  and  N1_15 
REMARK    8  A    between atoms: C11_16  and  C14_20 
ROOT
ATOM      1  C11 NON d   1     -47.702  15.556  -4.328  0.00  0.00     0.093 C 
ATOM      2  C12 NON d   1     -46.519  16.207  -3.587  0.00  0.00     0.048 C 
ATOM      3  C13 NON d   1     -48.885  14.905  -5.070  0.00  0.00     0.006 C 
ATOM      4  N2  NON d   1     -50.066  14.254  -5.811  0.00  0.00    -0.099 N 
ENDROOT
BRANCH   1   5
ATOM      5  N1  NON d   1     -47.113  16.147  -5.811  0.00  0.00    -0.240 NA
ATOM      6  C10 NON d   1     -46.880  17.531  -6.157  0.00  0.00     0.223 C 
ATOM      7  O3  NON d   1     -47.815  18.224  -6.567  0.00  0.00    -0.277 OA
ATOM      8  H10 NON d   1     -46.271  15.630  -6.050  0.00  0.00     0.132 HD
BRANCH   6   9
ATOM      9  C9  NON d   1     -45.403  18.175  -5.892  0.00  0.00     0.275 C 
BRANCH   9  10
ATOM     10  O2  NON d   1     -44.662  17.932  -4.621  0.00  0.00    -0.309 OA
BRANCH  10  11
ATOM     11  C8  NON d   1     -43.518  17.166  -4.732  0.00  0.00     0.283 C 
ATOM     12  O1  NON d   1     -43.543  16.044  -5.239  0.00  0.00    -0.260 OA
BRANCH  11  13
ATOM     13  C7  NON d   1     -42.155  17.694  -4.242  0.00  0.00     0.083 C 
ATOM     14  C6  NON d   1     -41.587  18.919  -4.118  0.00  0.00     0.017 C 
BRANCH  14  15
ATOM     15  C5  NON d   1     -40.220  19.353  -3.547  0.00  0.00    -0.036 A 
ATOM     16  C4  NON d   1     -40.204  20.084  -2.345  0.00  0.00     0.012 A 
ATOM     17  C3  NON d   1     -39.003  20.592  -1.741  0.00  0.00     0.019 A 
ATOM     18  C2  NON d   1     -37.715  20.413  -2.288  0.00  0.00    -0.000 A 
ATOM     19  C18 NON d   1     -37.701  19.667  -3.477  0.00  0.00     0.019 A 
ATOM     20  C17 NON d   1     -38.929  19.150  -4.089  0.00  0.00     0.012 A 
BRANCH  18  21
ATOM     21  S1  NON d   1     -36.322  21.201  -1.333  0.00  0.00    -0.134 SA
ATOM     22  C1  NON d   1     -36.233  20.706   0.123  0.00  0.00     0.095 C 
ENDBRANCH  18  21
ENDBRANCH  14  15
ENDBRANCH  11  13
ENDBRANCH  10  11
ENDBRANCH   9  10
ENDBRANCH   6   9
ENDBRANCH   1   5
BRANCH   1  23
ATOM     23  C14 NON d   1     -48.675  16.135  -3.284  0.00  0.00     0.013 C 
ATOM     24  C15 NON d   1     -49.780  15.205  -2.581  0.00  0.00     0.012 C 
ATOM     25  C16 NON d   1     -48.128  16.830  -2.023  0.00  0.00     0.012 C 
ENDBRANCH   1  23
TORSDOF 8
ENDMDL
