MODEL 1
REMARK VINA RESULT:   -36.477      0.000      0.000
REMARK INTER + INTRA:         -39.340
REMARK INTER:                 -38.267
REMARK INTRA:                  -1.073
REMARK CONF_INDEPENDENT:        1.790
REMARK UNBOUND:                -1.073
REMARK  6 active torsions:
REMARK  status: ('A' for Active; 'I' for Inactive)
REMARK    1  A    between atoms: N1_1  and  S1_2 
REMARK    2  A    between atoms: S1_2  and  C1_5 
REMARK    3  A    between atoms: C4_8  and  N2_9 
REMARK    4  A    between atoms: N2_9  and  C5_10 
REMARK    5  A    between atoms: C9_14  and  N3_15 
REMARK    6  A    between atoms: C14_22  and  N4_23 
ROOT
ATOM      1  C1  NON d   1     -44.757  17.578  -4.909  0.00  0.00     0.076 A 
ATOM      2  C2  NON d   1     -44.256  16.950  -3.754  0.00  0.00     0.027 A 
ATOM      3  C3  NON d   1     -43.036  17.316  -3.166  0.00  0.00     0.033 A 
ATOM      4  C4  NON d   1     -42.229  18.325  -3.703  0.00  0.00     0.066 A 
ATOM      5  C14 NON d   1     -42.767  19.020  -4.815  0.00  0.00     0.131 A 
ATOM      6  C15 NON d   1     -43.994  18.638  -5.418  0.00  0.00     0.063 A 
ENDROOT
BRANCH   4   7
ATOM      7  N2  NON d   1     -40.962  18.607  -3.140  0.00  0.00    -0.354 N 
ATOM      8  H5  NON d   1     -41.011  19.256  -2.347  0.00  0.00     0.166 HD
BRANCH   7   9
ATOM      9  C5  NON d   1     -39.633  18.508  -3.623  0.00  0.00     0.034 A 
ATOM     10  C6  NON d   1     -38.531  18.195  -2.827  0.00  0.00     0.029 A 
ATOM     11  C7  NON d   1     -37.243  18.181  -3.362  0.00  0.00     0.004 A 
ATOM     12  C8  NON d   1     -37.036  18.461  -4.713  0.00  0.00     0.030 A 
ATOM     13  C9  NON d   1     -38.113  18.756  -5.560  0.00  0.00     0.041 A 
ATOM     14  C13 NON d   1     -39.397  18.794  -4.987  0.00  0.00     0.059 A 
BRANCH  13  15
ATOM     15  N3  NON d   1     -37.888  18.991  -6.946  0.00  0.00    -0.292 N 
ATOM     16  C10 NON d   1     -36.710  19.632  -7.450  0.00  0.00     0.161 C 
ATOM     17  C11 NON d   1     -36.819  19.463  -8.942  0.00  0.00     0.201 C 
ATOM     18  O3  NON d   1     -38.182  19.126  -9.183  0.00  0.00    -0.302 OA
ATOM     19  C12 NON d   1     -38.759  18.743  -7.998  0.00  0.00     0.367 C 
ATOM     20  O4  NON d   1     -39.884  18.273  -7.966  0.00  0.00    -0.238 OA
ENDBRANCH  13  15
ENDBRANCH   7   9
ENDBRANCH   4   7
BRANCH   5  21
ATOM     21  N4  NON d   1     -42.093  20.210  -5.367  0.00  0.00    -0.113 N 
ATOM     22  O5  NON d   1     -41.743  21.095  -4.573  0.00  0.00    -0.532 OA
ATOM     23  O6  NON d   1     -41.887  20.254  -6.589  0.00  0.00    -0.532 OA
ENDBRANCH   5  21
BRANCH   1  24
ATOM     24  S1  NON d   1     -46.098  17.042  -5.442  0.00  0.00     0.239 S 
ATOM     25  O1  NON d   1     -46.220  18.121  -6.427  0.00  0.00    -0.206 OA
ATOM     26  O2  NON d   1     -45.499  15.755  -5.810  0.00  0.00    -0.206 OA
BRANCH  24  27
ATOM     27  N1  NON d   1     -47.440  16.505  -5.974  0.00  0.00    -0.225 NA
ATOM     28  H1  NON d   1     -47.420  15.484  -5.974  0.00  0.00     0.136 HD
ATOM     29  H2  NON d   1     -47.578  16.848  -6.927  0.00  0.00     0.136 HD
ENDBRANCH  24  27
ENDBRANCH   1  24
TORSDOF 6
ENDMDL
MODEL 2
REMARK VINA RESULT:   -36.157      2.749      4.721
REMARK INTER + INTRA:         -38.843
REMARK INTER:                 -37.947
REMARK INTRA:                  -0.896
REMARK CONF_INDEPENDENT:        1.790
REMARK UNBOUND:                -0.896
REMARK  6 active torsions:
REMARK  status: ('A' for Active; 'I' for Inactive)
REMARK    1  A    between atoms: N1_1  and  S1_2 
REMARK    2  A    between atoms: S1_2  and  C1_5 
REMARK    3  A    between atoms: C4_8  and  N2_9 
REMARK    4  A    between atoms: N2_9  and  C5_10 
REMARK    5  A    between atoms: C9_14  and  N3_15 
REMARK    6  A    between atoms: C14_22  and  N4_23 
ROOT
ATOM      1  C1  NON d   1     -44.567  17.484  -4.984  0.00  0.00     0.076 A 
ATOM      2  C2  NON d   1     -43.962  16.663  -4.016  0.00  0.00     0.027 A 
ATOM      3  C3  NON d   1     -42.654  16.878  -3.557  0.00  0.00     0.033 A 
ATOM      4  C4  NON d   1     -41.860  17.920  -4.048  0.00  0.00     0.066 A 
ATOM      5  C14 NON d   1     -42.492  18.802  -4.959  0.00  0.00     0.131 A 
ATOM      6  C15 NON d   1     -43.810  18.574  -5.434  0.00  0.00     0.063 A 
ENDROOT
BRANCH   4   7
ATOM      7  N2  NON d   1     -40.514  18.054  -3.632  0.00  0.00    -0.354 N 
ATOM      8  H5  NON d   1     -40.096  17.166  -3.332  0.00  0.00     0.166 HD
BRANCH   7   9
ATOM      9  C5  NON d   1     -39.732  19.150  -3.189  0.00  0.00     0.034 A 
ATOM     10  C6  NON d   1     -38.402  19.362  -3.553  0.00  0.00     0.029 A 
ATOM     11  C7  NON d   1     -37.676  20.429  -3.022  0.00  0.00     0.004 A 
ATOM     12  C8  NON d   1     -38.277  21.317  -2.129  0.00  0.00     0.030 A 
ATOM     13  C9  NON d   1     -39.617  21.161  -1.751  0.00  0.00     0.041 A 
ATOM     14  C13 NON d   1     -40.315  20.059  -2.277  0.00  0.00     0.059 A 
BRANCH  13  15
ATOM     15  N3  NON d   1     -40.227  22.105  -0.877  0.00  0.00    -0.292 N 
ATOM     16  C10 NON d   1     -40.127  22.028   0.550  0.00  0.00     0.161 C 
ATOM     17  C11 NON d   1     -40.728  23.325   1.022  0.00  0.00     0.201 C 
ATOM     18  O3  NON d   1     -41.463  23.827  -0.091  0.00  0.00    -0.302 OA
ATOM     19  C12 NON d   1     -41.062  23.159  -1.221  0.00  0.00     0.367 C 
ATOM     20  O4  NON d   1     -41.444  23.504  -2.327  0.00  0.00    -0.238 OA
ENDBRANCH  13  15
ENDBRANCH   7   9
ENDBRANCH   4   7
BRANCH   5  21
ATOM     21  N4  NON d   1     -41.819  20.031  -5.419  0.00  0.00    -0.113 N 
ATOM     22  O5  NON d   1     -41.491  20.098  -6.612  0.00  0.00    -0.532 OA
ATOM     23  O6  NON d   1     -41.637  20.944  -4.598  0.00  0.00    -0.532 OA
ENDBRANCH   5  21
BRANCH   1  24
ATOM     24  S1  NON d   1     -46.000  17.098  -5.397  0.00  0.00     0.239 S 
ATOM     25  O1  NON d   1     -46.088  18.187  -6.375  0.00  0.00    -0.206 OA
ATOM     26  O2  NON d   1     -45.578  15.755  -5.809  0.00  0.00    -0.206 OA
BRANCH  24  27
ATOM     27  N1  NON d   1     -47.432  16.712  -5.810  0.00  0.00    -0.225 NA
ATOM     28  H1  NON d   1     -47.486  16.650  -6.829  0.00  0.00     0.136 HD
ATOM     29  H2  NON d   1     -48.078  17.428  -5.473  0.00  0.00     0.136 HD
ENDBRANCH  24  27
ENDBRANCH   1  24
TORSDOF 6
ENDMDL
MODEL 3
REMARK VINA RESULT:   -35.767      3.044      4.884
REMARK INTER + INTRA:         -38.497
REMARK INTER:                 -37.557
REMARK INTRA:                  -0.940
REMARK CONF_INDEPENDENT:        1.790
REMARK UNBOUND:                -0.940
REMARK  6 active torsions:
REMARK  status: ('A' for Active; 'I' for Inactive)
REMARK    1  A    between atoms: N1_1  and  S1_2 
REMARK    2  A    between atoms: S1_2  and  C1_5 
REMARK    3  A    between atoms: C4_8  and  N2_9 
REMARK    4  A    between atoms: N2_9  and  C5_10 
REMARK    5  A    between atoms: C9_14  and  N3_15 
REMARK    6  A    between atoms: C14_22  and  N4_23 
ROOT
ATOM      1  C1  NON d   1     -44.580  17.459  -4.908  0.00  0.00     0.076 A 
ATOM      2  C2  NON d   1     -44.067  16.738  -3.815  0.00  0.00     0.027 A 
ATOM      3  C3  NON d   1     -42.778  16.957  -3.306  0.00  0.00     0.033 A 
ATOM      4  C4  NON d   1     -41.913  17.903  -3.865  0.00  0.00     0.066 A 
ATOM      5  C14 NON d   1     -42.454  18.693  -4.910  0.00  0.00     0.131 A 
ATOM      6  C15 NON d   1     -43.752  18.459  -5.435  0.00  0.00     0.063 A 
ENDROOT
BRANCH   4   7
ATOM      7  N2  NON d   1     -40.588  18.036  -3.388  0.00  0.00    -0.354 N 
ATOM      8  H5  NON d   1     -40.224  17.174  -2.966  0.00  0.00     0.166 HD
BRANCH   7   9
ATOM      9  C5  NON d   1     -39.787  19.147  -3.022  0.00  0.00     0.034 A 
ATOM     10  C6  NON d   1     -38.475  19.344  -3.457  0.00  0.00     0.029 A 
ATOM     11  C7  NON d   1     -37.726  20.429  -3.001  0.00  0.00     0.004 A 
ATOM     12  C8  NON d   1     -38.285  21.350  -2.115  0.00  0.00     0.030 A 
ATOM     13  C9  NON d   1     -39.606  21.211  -1.669  0.00  0.00     0.041 A 
ATOM     14  C13 NON d   1     -40.327  20.091  -2.120  0.00  0.00     0.059 A 
BRANCH  13  15
ATOM     15  N3  NON d   1     -40.175  22.188  -0.804  0.00  0.00    -0.292 N 
ATOM     16  C10 NON d   1     -41.009  23.255  -1.270  0.00  0.00     0.161 C 
ATOM     17  C11 NON d   1     -41.534  23.880  -0.005  0.00  0.00     0.201 C 
ATOM     18  O3  NON d   1     -40.676  23.410   1.031  0.00  0.00    -0.302 OA
ATOM     19  C12 NON d   1     -39.964  22.334   0.560  0.00  0.00     0.367 C 
ATOM     20  O4  NON d   1     -39.262  21.669   1.302  0.00  0.00    -0.238 OA
ENDBRANCH  13  15
ENDBRANCH   7   9
ENDBRANCH   4   7
BRANCH   5  21
ATOM     21  N4  NON d   1     -41.702  19.833  -5.469  0.00  0.00    -0.113 N 
ATOM     22  O5  NON d   1     -41.454  20.786  -4.716  0.00  0.00    -0.532 OA
ATOM     23  O6  NON d   1     -41.335  19.771  -6.652  0.00  0.00    -0.532 OA
ENDBRANCH   5  21
BRANCH   1  24
ATOM     24  S1  NON d   1     -46.003  17.080  -5.359  0.00  0.00     0.239 S 
ATOM     25  O1  NON d   1     -46.081  18.202  -6.299  0.00  0.00    -0.206 OA
ATOM     26  O2  NON d   1     -45.565  15.755  -5.810  0.00  0.00    -0.206 OA
BRANCH  24  27
ATOM     27  N1  NON d   1     -47.426  16.701  -5.810  0.00  0.00    -0.225 NA
ATOM     28  H1  NON d   1     -47.478  16.737  -6.830  0.00  0.00     0.136 HD
ATOM     29  H2  NON d   1     -48.089  17.365  -5.406  0.00  0.00     0.136 HD
ENDBRANCH  24  27
ENDBRANCH   1  24
TORSDOF 6
ENDMDL
MODEL 4
REMARK VINA RESULT:   -34.360      2.798      3.347
REMARK INTER + INTRA:         -37.306
REMARK INTER:                 -36.150
REMARK INTRA:                  -1.156
REMARK CONF_INDEPENDENT:        1.790
REMARK UNBOUND:                -1.156
REMARK  6 active torsions:
REMARK  status: ('A' for Active; 'I' for Inactive)
REMARK    1  A    between atoms: N1_1  and  S1_2 
REMARK    2  A    between atoms: S1_2  and  C1_5 
REMARK    3  A    between atoms: C4_8  and  N2_9 
REMARK    4  A    between atoms: N2_9  and  C5_10 
REMARK    5  A    between atoms: C9_14  and  N3_15 
REMARK    6  A    between atoms: C14_22  and  N4_23 
ROOT
ATOM      1  C1  NON d   1     -44.856  17.660  -4.940  0.00  0.00     0.076 A 
ATOM      2  C2  NON d   1     -44.490  18.787  -5.698  0.00  0.00     0.027 A 
ATOM      3  C3  NON d   1     -43.351  19.553  -5.408  0.00  0.00     0.033 A 
ATOM      4  C4  NON d   1     -42.511  19.250  -4.332  0.00  0.00     0.066 A 
ATOM      5  C14 NON d   1     -42.824  18.067  -3.616  0.00  0.00     0.131 A 
ATOM      6  C15 NON d   1     -43.986  17.302  -3.901  0.00  0.00     0.063 A 
ENDROOT
BRANCH   4   7
ATOM      7  N2  NON d   1     -41.423  20.095  -4.010  0.00  0.00    -0.354 N 
ATOM      8  H5  NON d   1     -41.193  20.091  -3.010  0.00  0.00     0.166 HD
BRANCH   7   9
ATOM      9  C5  NON d   1     -40.822  21.205  -4.656  0.00  0.00     0.034 A 
ATOM     10  C6  NON d   1     -40.532  22.416  -4.027  0.00  0.00     0.029 A 
ATOM     11  C7  NON d   1     -40.001  23.487  -4.746  0.00  0.00     0.004 A 
ATOM     12  C8  NON d   1     -39.729  23.357  -6.108  0.00  0.00     0.030 A 
ATOM     13  C9  NON d   1     -39.978  22.153  -6.781  0.00  0.00     0.041 A 
ATOM     14  C13 NON d   1     -40.544  21.101  -6.038  0.00  0.00     0.059 A 
BRANCH  13  15
ATOM     15  N3  NON d   1     -39.648  22.023  -8.160  0.00  0.00    -0.292 N 
ATOM     16  C10 NON d   1     -38.935  23.027  -8.891  0.00  0.00     0.161 C 
ATOM     17  C11 NON d   1     -38.639  22.367 -10.211  0.00  0.00     0.201 C 
ATOM     18  O3  NON d   1     -39.521  21.250 -10.280  0.00  0.00    -0.302 OA
ATOM     19  C12 NON d   1     -40.018  21.002  -9.024  0.00  0.00     0.367 C 
ATOM     20  O4  NON d   1     -40.688  20.010  -8.795  0.00  0.00    -0.238 OA
ENDBRANCH  13  15
ENDBRANCH   7   9
ENDBRANCH   4   7
BRANCH   5  21
ATOM     21  N4  NON d   1     -41.924  17.550  -2.569  0.00  0.00    -0.113 N 
ATOM     22  O5  NON d   1     -41.303  16.504  -2.806  0.00  0.00    -0.532 OA
ATOM     23  O6  NON d   1     -41.812  18.199  -1.518  0.00  0.00    -0.532 OA
ENDBRANCH   5  21
BRANCH   1  24
ATOM     24  S1  NON d   1     -46.148  16.943  -5.375  0.00  0.00     0.239 S 
ATOM     25  O1  NON d   1     -46.497  17.999  -6.331  0.00  0.00    -0.206 OA
ATOM     26  O2  NON d   1     -45.407  15.755  -5.810  0.00  0.00    -0.206 OA
BRANCH  24  27
ATOM     27  N1  NON d   1     -47.440  16.227  -5.810  0.00  0.00    -0.225 NA
ATOM     28  H1  NON d   1     -47.591  16.380  -6.809  0.00  0.00     0.136 HD
ATOM     29  H2  NON d   1     -48.225  16.609  -5.279  0.00  0.00     0.136 HD
ENDBRANCH  24  27
ENDBRANCH   1  24
TORSDOF 6
ENDMDL
MODEL 5
REMARK VINA RESULT:   -34.073      2.224      2.670
REMARK INTER + INTRA:         -36.806
REMARK INTER:                 -35.863
REMARK INTRA:                  -0.943
REMARK CONF_INDEPENDENT:        1.790
REMARK UNBOUND:                -0.943
REMARK  6 active torsions:
REMARK  status: ('A' for Active; 'I' for Inactive)
REMARK    1  A    between atoms: N1_1  and  S1_2 
REMARK    2  A    between atoms: S1_2  and  C1_5 
REMARK    3  A    between atoms: C4_8  and  N2_9 
REMARK    4  A    between atoms: N2_9  and  C5_10 
REMARK    5  A    between atoms: C9_14  and  N3_15 
REMARK    6  A    between atoms: C14_22  and  N4_23 
ROOT
ATOM      1  C1  NON d   1     -44.733  17.439  -4.845  0.00  0.00     0.076 A 
ATOM      2  C2  NON d   1     -44.205  16.754  -3.735  0.00  0.00     0.027 A 
ATOM      3  C3  NON d   1     -42.945  17.054  -3.195  0.00  0.00     0.033 A 
ATOM      4  C4  NON d   1     -42.125  18.048  -3.738  0.00  0.00     0.066 A 
ATOM      5  C14 NON d   1     -42.685  18.800  -4.801  0.00  0.00     0.131 A 
ATOM      6  C15 NON d   1     -43.953  18.485  -5.356  0.00  0.00     0.063 A 
ENDROOT
BRANCH   4   7
ATOM      7  N2  NON d   1     -40.823  18.263  -3.227  0.00  0.00    -0.354 N 
ATOM      8  H5  NON d   1     -40.485  17.487  -2.647  0.00  0.00     0.166 HD
BRANCH   7   9
ATOM      9  C5  NON d   1     -40.032  19.421  -3.021  0.00  0.00     0.034 A 
ATOM     10  C6  NON d   1     -39.990  20.138  -1.825  0.00  0.00     0.029 A 
ATOM     11  C7  NON d   1     -39.238  21.309  -1.718  0.00  0.00     0.004 A 
ATOM     12  C8  NON d   1     -38.495  21.772  -2.804  0.00  0.00     0.030 A 
ATOM     13  C9  NON d   1     -38.483  21.073  -4.019  0.00  0.00     0.041 A 
ATOM     14  C13 NON d   1     -39.276  19.915  -4.108  0.00  0.00     0.059 A 
BRANCH  13  15
ATOM     15  N3  NON d   1     -37.680  21.534  -5.101  0.00  0.00    -0.292 N 
ATOM     16  C10 NON d   1     -37.426  20.753  -6.274  0.00  0.00     0.161 C 
ATOM     17  C11 NON d   1     -36.732  21.715  -7.202  0.00  0.00     0.201 C 
ATOM     18  O3  NON d   1     -36.296  22.789  -6.373  0.00  0.00    -0.302 OA
ATOM     19  C12 NON d   1     -36.961  22.719  -5.174  0.00  0.00     0.367 C 
ATOM     20  O4  NON d   1     -36.864  23.608  -4.345  0.00  0.00    -0.238 OA
ENDBRANCH  13  15
ENDBRANCH   7   9
ENDBRANCH   4   7
BRANCH   5  21
ATOM     21  N4  NON d   1     -41.990  19.980  -5.346  0.00  0.00    -0.113 N 
ATOM     22  O5  NON d   1     -41.539  19.904  -6.498  0.00  0.00    -0.532 OA
ATOM     23  O6  NON d   1     -41.913  20.996  -4.638  0.00  0.00    -0.532 OA
ENDBRANCH   5  21
BRANCH   1  24
ATOM     24  S1  NON d   1     -46.118  16.972  -5.330  0.00  0.00     0.239 S 
ATOM     25  O1  NON d   1     -46.272  18.125  -6.223  0.00  0.00    -0.206 OA
ATOM     26  O2  NON d   1     -45.576  15.705  -5.830  0.00  0.00    -0.206 OA
BRANCH  24  27
ATOM     27  N1  NON d   1     -47.503  16.506  -5.815  0.00  0.00    -0.225 NA
ATOM     28  H1  NON d   1     -47.506  16.462  -6.836  0.00  0.00     0.136 HD
ATOM     29  H2  NON d   1     -48.208  17.174  -5.496  0.00  0.00     0.136 HD
ENDBRANCH  24  27
ENDBRANCH   1  24
TORSDOF 6
ENDMDL
MODEL 6
REMARK VINA RESULT:   -33.586      1.598      2.040
REMARK INTER + INTRA:         -36.267
REMARK INTER:                 -35.376
REMARK INTRA:                  -0.891
REMARK CONF_INDEPENDENT:        1.790
REMARK UNBOUND:                -0.891
REMARK  6 active torsions:
REMARK  status: ('A' for Active; 'I' for Inactive)
REMARK    1  A    between atoms: N1_1  and  S1_2 
REMARK    2  A    between atoms: S1_2  and  C1_5 
REMARK    3  A    between atoms: C4_8  and  N2_9 
REMARK    4  A    between atoms: N2_9  and  C5_10 
REMARK    5  A    between atoms: C9_14  and  N3_15 
REMARK    6  A    between atoms: C14_22  and  N4_23 
ROOT
ATOM      1  C1  NON d   1     -44.857  17.687  -4.989  0.00  0.00     0.076 A 
ATOM      2  C2  NON d   1     -44.464  18.810  -5.739  0.00  0.00     0.027 A 
ATOM      3  C3  NON d   1     -43.322  19.562  -5.426  0.00  0.00     0.033 A 
ATOM      4  C4  NON d   1     -42.506  19.249  -4.335  0.00  0.00     0.066 A 
ATOM      5  C14 NON d   1     -42.846  18.070  -3.627  0.00  0.00     0.131 A 
ATOM      6  C15 NON d   1     -44.011  17.318  -3.934  0.00  0.00     0.063 A 
ENDROOT
BRANCH   4   7
ATOM      7  N2  NON d   1     -41.414  20.082  -3.992  0.00  0.00    -0.354 N 
ATOM      8  H5  NON d   1     -41.692  21.050  -3.799  0.00  0.00     0.166 HD
BRANCH   7   9
ATOM      9  C5  NON d   1     -40.015  19.997  -4.205  0.00  0.00     0.034 A 
ATOM     10  C6  NON d   1     -39.060  20.121  -3.196  0.00  0.00     0.029 A 
ATOM     11  C7  NON d   1     -37.697  20.093  -3.493  0.00  0.00     0.004 A 
ATOM     12  C8  NON d   1     -37.264  19.920  -4.808  0.00  0.00     0.030 A 
ATOM     13  C9  NON d   1     -38.184  19.765  -5.854  0.00  0.00     0.041 A 
ATOM     14  C13 NON d   1     -39.551  19.830  -5.529  0.00  0.00     0.059 A 
BRANCH  13  15
ATOM     15  N3  NON d   1     -37.724  19.540  -7.183  0.00  0.00    -0.292 N 
ATOM     16  C10 NON d   1     -36.370  19.767  -7.590  0.00  0.00     0.161 C 
ATOM     17  C11 NON d   1     -36.314  19.198  -8.983  0.00  0.00     0.201 C 
ATOM     18  O3  NON d   1     -37.673  19.075  -9.394  0.00  0.00    -0.302 OA
ATOM     19  C12 NON d   1     -38.479  19.171  -8.287  0.00  0.00     0.367 C 
ATOM     20  O4  NON d   1     -39.678  18.959  -8.359  0.00  0.00    -0.238 OA
ENDBRANCH  13  15
ENDBRANCH   7   9
ENDBRANCH   4   7
BRANCH   5  21
ATOM     21  N4  NON d   1     -41.971  17.542  -2.564  0.00  0.00    -0.113 N 
ATOM     22  O5  NON d   1     -42.092  18.018  -1.426  0.00  0.00    -0.532 OA
ATOM     23  O6  NON d   1     -41.177  16.633  -2.853  0.00  0.00    -0.532 OA
ENDBRANCH   5  21
BRANCH   1  24
ATOM     24  S1  NON d   1     -46.148  16.985  -5.449  0.00  0.00     0.239 S 
ATOM     25  O1  NON d   1     -46.432  18.013  -6.456  0.00  0.00    -0.206 OA
ATOM     26  O2  NON d   1     -45.421  15.764  -5.810  0.00  0.00    -0.206 OA
BRANCH  24  27
ATOM     27  N1  NON d   1     -47.440  16.284  -5.909  0.00  0.00    -0.225 NA
ATOM     28  H1  NON d   1     -47.388  15.291  -5.673  0.00  0.00     0.136 HD
ATOM     29  H2  NON d   1     -47.534  16.394  -6.920  0.00  0.00     0.136 HD
ENDBRANCH  24  27
ENDBRANCH   1  24
TORSDOF 6
ENDMDL
