MODEL 1
REMARK VINA RESULT:   -18.215      0.000      0.000
REMARK INTER + INTRA:         -23.588
REMARK INTER:                 -21.794
REMARK INTRA:                  -1.794
REMARK CONF_INDEPENDENT:        3.580
REMARK UNBOUND:                -1.794
REMARK  12 active torsions:
REMARK  status: ('A' for Active; 'I' for Inactive)
REMARK    1  A    between atoms: C2_2  and  O1_3 
REMARK    2  A    between atoms: O1_3  and  C3_4 
REMARK    3  A    between atoms: C3_4  and  C4_5 
REMARK    4  A    between atoms: C4_5  and  O2_6 
REMARK    5  A    between atoms: O2_6  and  C5_7 
REMARK    6  A    between atoms: C8_10  and  C9_11 
REMARK       I    between atoms: C9_11  and  N1_13 
REMARK    7  A    between atoms: N1_13  and  C10_14 
REMARK    8  A    between atoms: C10_14  and  N2_16 
REMARK    9  A    between atoms: N2_16  and  N3_17 
REMARK       I    between atoms: N3_17  and  C11_18 
REMARK   10  A    between atoms: C11_18  and  C12_20 
REMARK   11  A    between atoms: C12_20  and  O5_21 
REMARK   12  A    between atoms: O5_21  and  C13_22 
ROOT
ATOM      1  C10 NON d   1     -45.351  17.400  -4.832  0.00  0.00     0.193 C 
ATOM      2  S1  NON d   1     -46.327  17.674  -6.185  0.00  0.00    -0.039 SA
ENDROOT
BRANCH   1   3
ATOM      3  N1  NON d   1     -44.066  17.995  -4.594  0.00  0.00    -0.298 N 
ATOM      4  C9  NON d   1     -42.955  17.408  -3.904  0.00  0.00     0.257 C 
ATOM      5  O3  NON d   1     -43.070  16.343  -3.294  0.00  0.00    -0.267 OA
ATOM      6  H12 NON d   1     -43.917  18.900  -5.009  0.00  0.00     0.171 HD
BRANCH   4   7
ATOM      7  C8  NON d   1     -41.555  18.040  -3.810  0.00  0.00     0.032 A 
ATOM      8  C7  NON d   1     -40.631  17.936  -2.771  0.00  0.00     0.020 A 
ATOM      9  C6  NON d   1     -39.337  18.565  -2.865  0.00  0.00     0.038 A 
ATOM     10  C5  NON d   1     -38.912  19.327  -3.981  0.00  0.00     0.068 A 
ATOM     11  C24 NON d   1     -39.834  19.437  -5.015  0.00  0.00     0.038 A 
ATOM     12  C23 NON d   1     -41.115  18.805  -4.926  0.00  0.00     0.020 A 
BRANCH  10  13
ATOM     13  O2  NON d   1     -37.628  19.863  -3.941  0.00  0.00    -0.349 OA
BRANCH  13  14
ATOM     14  C4  NON d   1     -36.719  19.722  -5.084  0.00  0.00     0.201 C 
BRANCH  14  15
ATOM     15  C3  NON d   1     -36.967  18.428  -5.995  0.00  0.00     0.194 C 
BRANCH  15  16
ATOM     16  O1  NON d   1     -37.014  18.659  -7.436  0.00  0.00    -0.389 OA
BRANCH  16  17
ATOM     17  C2  NON d   1     -38.252  19.283  -7.967  0.00  0.00     0.163 C 
ATOM     18  C1  NON d   1     -39.400  18.270  -8.137  0.00  0.00     0.033 C 
ENDBRANCH  16  17
ENDBRANCH  15  16
ENDBRANCH  14  15
ENDBRANCH  13  14
ENDBRANCH  10  13
ENDBRANCH   4   7
ENDBRANCH   1   3
BRANCH   1  19
ATOM     19  N2  NON d   1     -45.814  16.530  -3.814  0.00  0.00    -0.273 N 
ATOM     20  H13 NON d   1     -45.229  16.073  -3.118  0.00  0.00     0.189 HD
BRANCH  19  21
ATOM     21  N3  NON d   1     -47.204  16.053  -3.848  0.00  0.00    -0.266 N 
ATOM     22  C11 NON d   1     -47.725  15.304  -4.909  0.00  0.00     0.260 C 
ATOM     23  O4  NON d   1     -47.038  15.019  -5.890  0.00  0.00    -0.269 OA
ATOM     24  H14 NON d   1     -47.764  16.298  -3.030  0.00  0.00     0.190 HD
BRANCH  22  25
ATOM     25  C12 NON d   1     -49.239  14.878  -4.734  0.00  0.00     0.280 C 
BRANCH  25  26
ATOM     26  O5  NON d   1     -49.640  14.616  -3.385  0.00  0.00    -0.342 OA
BRANCH  26  27
ATOM     27  C13 NON d   1     -50.391  15.534  -2.686  0.00  0.00     0.070 A 
ATOM     28  C14 NON d   1     -49.674  16.279  -1.740  0.00  0.00     0.037 A 
ATOM     29  C15 NON d   1     -50.296  17.255  -0.942  0.00  0.00     0.015 A 
ATOM     30  C16 NON d   1     -51.666  17.519  -1.064  0.00  0.00    -0.026 A 
ATOM     31  C17 NON d   1     -52.306  18.490  -0.262  0.00  0.00     0.012 A 
ATOM     32  C21 NON d   1     -52.415  16.776  -2.009  0.00  0.00    -0.023 A 
ATOM     33  C18 NON d   1     -53.672  18.739  -0.389  0.00  0.00     0.001 A 
ATOM     34  C19 NON d   1     -54.417  18.022  -1.316  0.00  0.00     0.001 A 
ATOM     35  C20 NON d   1     -53.790  17.052  -2.115  0.00  0.00     0.012 A 
ATOM     36  C22 NON d   1     -51.761  15.790  -2.810  0.00  0.00     0.049 A 
ENDBRANCH  26  27
ENDBRANCH  25  26
ENDBRANCH  22  25
ENDBRANCH  19  21
ENDBRANCH   1  19
TORSDOF 12
ENDMDL
MODEL 2
REMARK VINA RESULT:   -17.894      1.369      2.618
REMARK INTER + INTRA:         -23.252
REMARK INTER:                 -21.474
REMARK INTRA:                  -1.778
REMARK CONF_INDEPENDENT:        3.580
REMARK UNBOUND:                -1.778
REMARK  12 active torsions:
REMARK  status: ('A' for Active; 'I' for Inactive)
REMARK    1  A    between atoms: C2_2  and  O1_3 
REMARK    2  A    between atoms: O1_3  and  C3_4 
REMARK    3  A    between atoms: C3_4  and  C4_5 
REMARK    4  A    between atoms: C4_5  and  O2_6 
REMARK    5  A    between atoms: O2_6  and  C5_7 
REMARK    6  A    between atoms: C8_10  and  C9_11 
REMARK       I    between atoms: C9_11  and  N1_13 
REMARK    7  A    between atoms: N1_13  and  C10_14 
REMARK    8  A    between atoms: C10_14  and  N2_16 
REMARK    9  A    between atoms: N2_16  and  N3_17 
REMARK       I    between atoms: N3_17  and  C11_18 
REMARK   10  A    between atoms: C11_18  and  C12_20 
REMARK   11  A    between atoms: C12_20  and  O5_21 
REMARK   12  A    between atoms: O5_21  and  C13_22 
ROOT
ATOM      1  C10 NON d   1     -45.331  17.373  -4.838  0.00  0.00     0.193 C 
ATOM      2  S1  NON d   1     -46.317  17.636  -6.185  0.00  0.00    -0.039 SA
ENDROOT
BRANCH   1   3
ATOM      3  N1  NON d   1     -44.041  17.966  -4.618  0.00  0.00    -0.298 N 
ATOM      4  C9  NON d   1     -42.952  17.414  -3.867  0.00  0.00     0.257 C 
ATOM      5  O3  NON d   1     -43.094  16.396  -3.186  0.00  0.00    -0.267 OA
ATOM      6  H12 NON d   1     -43.871  18.837  -5.093  0.00  0.00     0.171 HD
BRANCH   4   7
ATOM      7  C8  NON d   1     -41.544  18.031  -3.792  0.00  0.00     0.032 A 
ATOM      8  C7  NON d   1     -40.547  17.788  -2.848  0.00  0.00     0.020 A 
ATOM      9  C6  NON d   1     -39.259  18.427  -2.951  0.00  0.00     0.038 A 
ATOM     10  C5  NON d   1     -38.912  19.337  -3.981  0.00  0.00     0.068 A 
ATOM     11  C24 NON d   1     -39.906  19.584  -4.919  0.00  0.00     0.038 A 
ATOM     12  C23 NON d   1     -41.181  18.942  -4.822  0.00  0.00     0.020 A 
BRANCH  10  13
ATOM     13  O2  NON d   1     -37.624  19.865  -3.963  0.00  0.00    -0.349 OA
BRANCH  13  14
ATOM     14  C4  NON d   1     -37.048  20.400  -2.725  0.00  0.00     0.201 C 
BRANCH  14  15
ATOM     15  C3  NON d   1     -37.951  21.486  -1.968  0.00  0.00     0.194 C 
BRANCH  15  16
ATOM     16  O1  NON d   1     -39.377  21.186  -1.885  0.00  0.00    -0.389 OA
BRANCH  16  17
ATOM     17  C2  NON d   1     -39.939  21.006  -0.523  0.00  0.00     0.163 C 
ATOM     18  C1  NON d   1     -39.714  22.236   0.377  0.00  0.00     0.033 C 
ENDBRANCH  16  17
ENDBRANCH  15  16
ENDBRANCH  14  15
ENDBRANCH  13  14
ENDBRANCH  10  13
ENDBRANCH   4   7
ENDBRANCH   1   3
BRANCH   1  19
ATOM     19  N2  NON d   1     -45.789  16.517  -3.806  0.00  0.00    -0.273 N 
ATOM     20  H13 NON d   1     -45.196  16.043  -3.128  0.00  0.00     0.189 HD
BRANCH  19  21
ATOM     21  N3  NON d   1     -47.192  16.082  -3.797  0.00  0.00    -0.266 N 
ATOM     22  C11 NON d   1     -47.772  15.367  -4.851  0.00  0.00     0.260 C 
ATOM     23  O4  NON d   1     -47.129  15.079  -5.861  0.00  0.00    -0.269 OA
ATOM     24  H14 NON d   1     -47.715  16.328  -2.956  0.00  0.00     0.190 HD
BRANCH  22  25
ATOM     25  C12 NON d   1     -49.291  14.981  -4.629  0.00  0.00     0.280 C 
BRANCH  25  26
ATOM     26  O5  NON d   1     -49.668  14.778  -3.263  0.00  0.00    -0.342 OA
BRANCH  26  27
ATOM     27  C13 NON d   1     -50.495  15.672  -2.623  0.00  0.00     0.070 A 
ATOM     28  C14 NON d   1     -49.859  16.481  -1.672  0.00  0.00     0.037 A 
ATOM     29  C15 NON d   1     -50.566  17.444  -0.929  0.00  0.00     0.015 A 
ATOM     30  C16 NON d   1     -51.942  17.629  -1.114  0.00  0.00    -0.026 A 
ATOM     31  C17 NON d   1     -52.665  18.586  -0.369  0.00  0.00     0.012 A 
ATOM     32  C21 NON d   1     -52.609  16.821  -2.066  0.00  0.00    -0.023 A 
ATOM     33  C18 NON d   1     -54.036  18.757  -0.558  0.00  0.00     0.001 A 
ATOM     34  C19 NON d   1     -54.702  17.975  -1.492  0.00  0.00     0.001 A 
ATOM     35  C20 NON d   1     -53.991  17.018  -2.236  0.00  0.00     0.012 A 
ATOM     36  C22 NON d   1     -51.871  15.850  -2.810  0.00  0.00     0.049 A 
ENDBRANCH  26  27
ENDBRANCH  25  26
ENDBRANCH  22  25
ENDBRANCH  19  21
ENDBRANCH   1  19
TORSDOF 12
ENDMDL
MODEL 3
REMARK VINA RESULT:   -17.788      2.301     12.310
REMARK INTER + INTRA:         -21.500
REMARK INTER:                 -21.367
REMARK INTRA:                  -0.133
REMARK CONF_INDEPENDENT:        3.580
REMARK UNBOUND:                -0.133
REMARK  12 active torsions:
REMARK  status: ('A' for Active; 'I' for Inactive)
REMARK    1  A    between atoms: C2_2  and  O1_3 
REMARK    2  A    between atoms: O1_3  and  C3_4 
REMARK    3  A    between atoms: C3_4  and  C4_5 
REMARK    4  A    between atoms: C4_5  and  O2_6 
REMARK    5  A    between atoms: O2_6  and  C5_7 
REMARK    6  A    between atoms: C8_10  and  C9_11 
REMARK       I    between atoms: C9_11  and  N1_13 
REMARK    7  A    between atoms: N1_13  and  C10_14 
REMARK    8  A    between atoms: C10_14  and  N2_16 
REMARK    9  A    between atoms: N2_16  and  N3_17 
REMARK       I    between atoms: N3_17  and  C11_18 
REMARK   10  A    between atoms: C11_18  and  C12_20 
REMARK   11  A    between atoms: C12_20  and  O5_21 
REMARK   12  A    between atoms: O5_21  and  C13_22 
ROOT
ATOM      1  C10 NON d   1     -47.982  16.032  -4.290  0.00  0.00     0.193 C 
ATOM      2  S1  NON d   1     -47.632  15.379  -5.810  0.00  0.00    -0.039 SA
ENDROOT
BRANCH   1   3
ATOM      3  N1  NON d   1     -49.273  16.484  -3.851  0.00  0.00    -0.298 N 
ATOM      4  C9  NON d   1     -50.188  15.787  -2.995  0.00  0.00     0.257 C 
ATOM      5  O3  NON d   1     -49.994  14.613  -2.671  0.00  0.00    -0.267 OA
ATOM      6  H12 NON d   1     -49.531  17.415  -4.131  0.00  0.00     0.171 HD
BRANCH   4   7
ATOM      7  C8  NON d   1     -51.492  16.387  -2.442  0.00  0.00     0.032 A 
ATOM      8  C7  NON d   1     -52.803  16.084  -2.809  0.00  0.00     0.020 A 
ATOM      9  C6  NON d   1     -53.920  16.718  -2.153  0.00  0.00     0.038 A 
ATOM     10  C5  NON d   1     -53.784  17.680  -1.121  0.00  0.00     0.068 A 
ATOM     11  C24 NON d   1     -52.480  17.987  -0.759  0.00  0.00     0.038 A 
ATOM     12  C23 NON d   1     -51.371  17.351  -1.403  0.00  0.00     0.020 A 
BRANCH  10  13
ATOM     13  O2  NON d   1     -54.953  18.196  -0.568  0.00  0.00    -0.349 OA
BRANCH  13  14
ATOM     14  C4  NON d   1     -54.935  19.452   0.190  0.00  0.00     0.201 C 
BRANCH  14  15
ATOM     15  C3  NON d   1     -54.588  20.760  -0.669  0.00  0.00     0.194 C 
BRANCH  15  16
ATOM     16  O1  NON d   1     -53.238  21.292  -0.509  0.00  0.00    -0.389 OA
BRANCH  16  17
ATOM     17  C2  NON d   1     -52.721  21.379   0.881  0.00  0.00     0.163 C 
ATOM     18  C1  NON d   1     -51.940  20.120   1.302  0.00  0.00     0.033 C 
ENDBRANCH  16  17
ENDBRANCH  15  16
ENDBRANCH  14  15
ENDBRANCH  13  14
ENDBRANCH  10  13
ENDBRANCH   4   7
ENDBRANCH   1   3
BRANCH   1  19
ATOM     19  N2  NON d   1     -46.943  16.142  -3.332  0.00  0.00    -0.273 N 
ATOM     20  H13 NON d   1     -47.005  15.849  -2.360  0.00  0.00     0.189 HD
BRANCH  19  21
ATOM     21  N3  NON d   1     -45.740  16.921  -3.657  0.00  0.00    -0.266 N 
ATOM     22  C11 NON d   1     -45.540  17.526  -4.903  0.00  0.00     0.260 C 
ATOM     23  O4  NON d   1     -46.368  17.419  -5.808  0.00  0.00    -0.269 OA
ATOM     24  H14 NON d   1     -45.060  17.000  -2.901  0.00  0.00     0.190 HD
BRANCH  22  25
ATOM     25  C12 NON d   1     -44.185  18.332  -5.035  0.00  0.00     0.280 C 
BRANCH  25  26
ATOM     26  O5  NON d   1     -43.148  17.920  -4.137  0.00  0.00    -0.342 OA
BRANCH  26  27
ATOM     27  C13 NON d   1     -41.827  18.179  -4.424  0.00  0.00     0.070 A 
ATOM     28  C14 NON d   1     -40.959  18.077  -3.329  0.00  0.00     0.037 A 
ATOM     29  C15 NON d   1     -39.579  18.314  -3.455  0.00  0.00     0.015 A 
ATOM     30  C16 NON d   1     -39.018  18.664  -4.690  0.00  0.00    -0.026 A 
ATOM     31  C17 NON d   1     -37.635  18.915  -4.829  0.00  0.00     0.012 A 
ATOM     32  C21 NON d   1     -39.875  18.779  -5.812  0.00  0.00    -0.023 A 
ATOM     33  C18 NON d   1     -37.090  19.269  -6.063  0.00  0.00     0.001 A 
ATOM     34  C19 NON d   1     -37.918  19.379  -7.172  0.00  0.00     0.001 A 
ATOM     35  C20 NON d   1     -39.295  19.135  -7.043  0.00  0.00     0.012 A 
ATOM     36  C22 NON d   1     -41.274  18.532  -5.660  0.00  0.00     0.049 A 
ENDBRANCH  26  27
ENDBRANCH  25  26
ENDBRANCH  22  25
ENDBRANCH  19  21
ENDBRANCH   1  19
TORSDOF 12
ENDMDL
MODEL 4
REMARK VINA RESULT:   -17.704      1.503      2.557
REMARK INTER + INTRA:         -23.157
REMARK INTER:                 -21.284
REMARK INTRA:                  -1.874
REMARK CONF_INDEPENDENT:        3.580
REMARK UNBOUND:                -1.874
REMARK  12 active torsions:
REMARK  status: ('A' for Active; 'I' for Inactive)
REMARK    1  A    between atoms: C2_2  and  O1_3 
REMARK    2  A    between atoms: O1_3  and  C3_4 
REMARK    3  A    between atoms: C3_4  and  C4_5 
REMARK    4  A    between atoms: C4_5  and  O2_6 
REMARK    5  A    between atoms: O2_6  and  C5_7 
REMARK    6  A    between atoms: C8_10  and  C9_11 
REMARK       I    between atoms: C9_11  and  N1_13 
REMARK    7  A    between atoms: N1_13  and  C10_14 
REMARK    8  A    between atoms: C10_14  and  N2_16 
REMARK    9  A    between atoms: N2_16  and  N3_17 
REMARK       I    between atoms: N3_17  and  C11_18 
REMARK   10  A    between atoms: C11_18  and  C12_20 
REMARK   11  A    between atoms: C12_20  and  O5_21 
REMARK   12  A    between atoms: O5_21  and  C13_22 
ROOT
ATOM      1  C10 NON d   1     -45.507  17.425  -4.858  0.00  0.00     0.193 C 
ATOM      2  S1  NON d   1     -46.534  17.630  -6.185  0.00  0.00    -0.039 SA
ENDROOT
BRANCH   1   3
ATOM      3  N1  NON d   1     -44.259  18.106  -4.654  0.00  0.00    -0.298 N 
ATOM      4  C9  NON d   1     -43.100  17.605  -3.976  0.00  0.00     0.257 C 
ATOM      5  O3  NON d   1     -43.135  16.545  -3.346  0.00  0.00    -0.267 OA
ATOM      6  H12 NON d   1     -44.176  19.011  -5.087  0.00  0.00     0.171 HD
BRANCH   4   7
ATOM      7  C8  NON d   1     -41.742  18.327  -3.919  0.00  0.00     0.032 A 
ATOM      8  C7  NON d   1     -41.309  19.405  -4.690  0.00  0.00     0.020 A 
ATOM      9  C6  NON d   1     -40.009  19.992  -4.476  0.00  0.00     0.038 A 
ATOM     10  C5  NON d   1     -39.087  19.530  -3.504  0.00  0.00     0.068 A 
ATOM     11  C24 NON d   1     -39.516  18.453  -2.740  0.00  0.00     0.038 A 
ATOM     12  C23 NON d   1     -40.809  17.876  -2.945  0.00  0.00     0.020 A 
BRANCH  10  13
ATOM     13  O2  NON d   1     -37.874  20.204  -3.399  0.00  0.00    -0.349 OA
BRANCH  13  14
ATOM     14  C4  NON d   1     -37.164  20.277  -2.117  0.00  0.00     0.201 C 
BRANCH  14  15
ATOM     15  C3  NON d   1     -37.889  21.151  -0.986  0.00  0.00     0.194 C 
BRANCH  15  16
ATOM     16  O1  NON d   1     -39.245  21.596  -1.294  0.00  0.00    -0.389 OA
BRANCH  16  17
ATOM     17  C2  NON d   1     -39.369  22.751  -2.220  0.00  0.00     0.163 C 
ATOM     18  C1  NON d   1     -40.786  22.885  -2.811  0.00  0.00     0.033 C 
ENDBRANCH  16  17
ENDBRANCH  15  16
ENDBRANCH  14  15
ENDBRANCH  13  14
ENDBRANCH  10  13
ENDBRANCH   4   7
ENDBRANCH   1   3
BRANCH   1  19
ATOM     19  N2  NON d   1     -45.883  16.528  -3.828  0.00  0.00    -0.273 N 
ATOM     20  H13 NON d   1     -45.249  16.105  -3.155  0.00  0.00     0.189 HD
BRANCH  19  21
ATOM     21  N3  NON d   1     -47.244  15.971  -3.816  0.00  0.00    -0.266 N 
ATOM     22  C11 NON d   1     -47.781  15.256  -4.891  0.00  0.00     0.260 C 
ATOM     23  O4  NON d   1     -47.138  15.071  -5.924  0.00  0.00    -0.269 OA
ATOM     24  H14 NON d   1     -47.768  16.134  -2.956  0.00  0.00     0.190 HD
BRANCH  22  25
ATOM     25  C12 NON d   1     -49.256  14.730  -4.662  0.00  0.00     0.280 C 
BRANCH  25  26
ATOM     26  O5  NON d   1     -49.625  14.547  -3.290  0.00  0.00    -0.342 OA
BRANCH  26  27
ATOM     27  C13 NON d   1     -50.399  15.480  -2.641  0.00  0.00     0.070 A 
ATOM     28  C14 NON d   1     -49.713  16.259  -1.700  0.00  0.00     0.037 A 
ATOM     29  C15 NON d   1     -50.362  17.255  -0.950  0.00  0.00     0.015 A 
ATOM     30  C16 NON d   1     -51.730  17.506  -1.117  0.00  0.00    -0.026 A 
ATOM     31  C17 NON d   1     -52.397  18.497  -0.364  0.00  0.00     0.012 A 
ATOM     32  C21 NON d   1     -52.448  16.730  -2.059  0.00  0.00    -0.023 A 
ATOM     33  C18 NON d   1     -53.760  18.734  -0.535  0.00  0.00     0.001 A 
ATOM     34  C19 NON d   1     -54.476  17.983  -1.459  0.00  0.00     0.001 A 
ATOM     35  C20 NON d   1     -53.821  16.993  -2.211  0.00  0.00     0.012 A 
ATOM     36  C22 NON d   1     -51.767  15.723  -2.810  0.00  0.00     0.049 A 
ENDBRANCH  26  27
ENDBRANCH  25  26
ENDBRANCH  22  25
ENDBRANCH  19  21
ENDBRANCH   1  19
TORSDOF 12
ENDMDL
MODEL 5
REMARK VINA RESULT:   -17.584      2.872     13.263
REMARK INTER + INTRA:         -21.441
REMARK INTER:                 -21.164
REMARK INTRA:                  -0.277
REMARK CONF_INDEPENDENT:        3.580
REMARK UNBOUND:                -0.277
REMARK  12 active torsions:
REMARK  status: ('A' for Active; 'I' for Inactive)
REMARK    1  A    between atoms: C2_2  and  O1_3 
REMARK    2  A    between atoms: O1_3  and  C3_4 
REMARK    3  A    between atoms: C3_4  and  C4_5 
REMARK    4  A    between atoms: C4_5  and  O2_6 
REMARK    5  A    between atoms: O2_6  and  C5_7 
REMARK    6  A    between atoms: C8_10  and  C9_11 
REMARK       I    between atoms: C9_11  and  N1_13 
REMARK    7  A    between atoms: N1_13  and  C10_14 
REMARK    8  A    between atoms: C10_14  and  N2_16 
REMARK    9  A    between atoms: N2_16  and  N3_17 
REMARK       I    between atoms: N3_17  and  C11_18 
REMARK   10  A    between atoms: C11_18  and  C12_20 
REMARK   11  A    between atoms: C12_20  and  O5_21 
REMARK   12  A    between atoms: O5_21  and  C13_22 
ROOT
ATOM      1  C10 NON d   1     -48.130  16.077  -4.251  0.00  0.00     0.193 C 
ATOM      2  S1  NON d   1     -47.885  15.467  -5.808  0.00  0.00    -0.039 SA
ENDROOT
BRANCH   1   3
ATOM      3  N1  NON d   1     -49.368  16.599  -3.742  0.00  0.00    -0.298 N 
ATOM      4  C9  NON d   1     -50.354  15.895  -2.976  0.00  0.00     0.257 C 
ATOM      5  O3  NON d   1     -50.286  14.675  -2.811  0.00  0.00    -0.267 OA
ATOM      6  H12 NON d   1     -49.526  17.581  -3.895  0.00  0.00     0.171 HD
BRANCH   4   7
ATOM      7  C8  NON d   1     -51.589  16.551  -2.334  0.00  0.00     0.032 A 
ATOM      8  C7  NON d   1     -51.626  17.539  -1.350  0.00  0.00     0.020 A 
ATOM      9  C6  NON d   1     -52.882  18.075  -0.887  0.00  0.00     0.038 A 
ATOM     10  C5  NON d   1     -54.144  17.648  -1.367  0.00  0.00     0.068 A 
ATOM     11  C24 NON d   1     -54.109  16.660  -2.342  0.00  0.00     0.038 A 
ATOM     12  C23 NON d   1     -52.863  16.134  -2.809  0.00  0.00     0.020 A 
BRANCH  10  13
ATOM     13  O2  NON d   1     -55.274  18.267  -0.839  0.00  0.00    -0.349 OA
BRANCH  13  14
ATOM     14  C4  NON d   1     -55.305  18.709   0.559  0.00  0.00     0.201 C 
BRANCH  14  15
ATOM     15  C3  NON d   1     -56.662  18.380   1.346  0.00  0.00     0.194 C 
BRANCH  15  16
ATOM     16  O1  NON d   1     -56.526  17.534   2.528  0.00  0.00    -0.389 OA
BRANCH  16  17
ATOM     17  C2  NON d   1     -57.771  17.249   3.285  0.00  0.00     0.163 C 
ATOM     18  C1  NON d   1     -57.823  17.984   4.638  0.00  0.00     0.033 C 
ENDBRANCH  16  17
ENDBRANCH  15  16
ENDBRANCH  14  15
ENDBRANCH  13  14
ENDBRANCH  10  13
ENDBRANCH   4   7
ENDBRANCH   1   3
BRANCH   1  19
ATOM     19  N2  NON d   1     -47.051  16.071  -3.331  0.00  0.00    -0.273 N 
ATOM     20  H13 NON d   1     -47.048  15.597  -2.431  0.00  0.00     0.189 HD
BRANCH  19  21
ATOM     21  N3  NON d   1     -45.910  16.971  -3.550  0.00  0.00    -0.266 N 
ATOM     22  C11 NON d   1     -45.242  17.065  -4.776  0.00  0.00     0.260 C 
ATOM     23  O4  NON d   1     -45.570  16.374  -5.740  0.00  0.00    -0.269 OA
ATOM     24  H14 NON d   1     -45.645  17.535  -2.743  0.00  0.00     0.190 HD
BRANCH  22  25
ATOM     25  C12 NON d   1     -44.053  18.109  -4.799  0.00  0.00     0.280 C 
BRANCH  25  26
ATOM     26  O5  NON d   1     -42.995  17.840  -3.872  0.00  0.00    -0.342 OA
BRANCH  26  27
ATOM     27  C13 NON d   1     -41.716  18.281  -4.119  0.00  0.00     0.070 A 
ATOM     28  C14 NON d   1     -41.419  18.491  -5.473  0.00  0.00     0.037 A 
ATOM     29  C15 NON d   1     -40.154  18.939  -5.892  0.00  0.00     0.015 A 
ATOM     30  C16 NON d   1     -39.136  19.192  -4.964  0.00  0.00    -0.026 A 
ATOM     31  C17 NON d   1     -37.857  19.632  -5.371  0.00  0.00     0.012 A 
ATOM     32  C21 NON d   1     -39.408  18.982  -3.590  0.00  0.00    -0.023 A 
ATOM     33  C18 NON d   1     -36.850  19.874  -4.439  0.00  0.00     0.001 A 
ATOM     34  C19 NON d   1     -37.105  19.679  -3.088  0.00  0.00     0.001 A 
ATOM     35  C20 NON d   1     -38.372  19.238  -2.673  0.00  0.00     0.012 A 
ATOM     36  C22 NON d   1     -40.701  18.528  -3.187  0.00  0.00     0.049 A 
ENDBRANCH  26  27
ENDBRANCH  25  26
ENDBRANCH  22  25
ENDBRANCH  19  21
ENDBRANCH   1  19
TORSDOF 12
ENDMDL
MODEL 6
REMARK VINA RESULT:   -16.818      3.018     13.157
REMARK INTER + INTRA:         -21.156
REMARK INTER:                 -20.398
REMARK INTRA:                  -0.758
REMARK CONF_INDEPENDENT:        3.580
REMARK UNBOUND:                -0.758
REMARK  12 active torsions:
REMARK  status: ('A' for Active; 'I' for Inactive)
REMARK    1  A    between atoms: C2_2  and  O1_3 
REMARK    2  A    between atoms: O1_3  and  C3_4 
REMARK    3  A    between atoms: C3_4  and  C4_5 
REMARK    4  A    between atoms: C4_5  and  O2_6 
REMARK    5  A    between atoms: O2_6  and  C5_7 
REMARK    6  A    between atoms: C8_10  and  C9_11 
REMARK       I    between atoms: C9_11  and  N1_13 
REMARK    7  A    between atoms: N1_13  and  C10_14 
REMARK    8  A    between atoms: C10_14  and  N2_16 
REMARK    9  A    between atoms: N2_16  and  N3_17 
REMARK       I    between atoms: N3_17  and  C11_18 
REMARK   10  A    between atoms: C11_18  and  C12_20 
REMARK   11  A    between atoms: C12_20  and  O5_21 
REMARK   12  A    between atoms: O5_21  and  C13_22 
ROOT
ATOM      1  C10 NON d   1     -48.048  16.119  -4.288  0.00  0.00     0.193 C 
ATOM      2  S1  NON d   1     -47.582  15.415  -5.752  0.00  0.00    -0.039 SA
ENDROOT
BRANCH   1   3
ATOM      3  N1  NON d   1     -49.401  16.337  -3.858  0.00  0.00    -0.298 N 
ATOM      4  C9  NON d   1     -49.866  16.494  -2.511  0.00  0.00     0.257 C 
ATOM      5  O3  NON d   1     -49.122  16.293  -1.549  0.00  0.00    -0.267 OA
ATOM      6  H12 NON d   1     -50.082  16.448  -4.591  0.00  0.00     0.171 HD
BRANCH   4   7
ATOM      7  C8  NON d   1     -51.307  16.873  -2.126  0.00  0.00     0.032 A 
ATOM      8  C7  NON d   1     -52.494  16.492  -2.752  0.00  0.00     0.020 A 
ATOM      9  C6  NON d   1     -53.772  16.908  -2.230  0.00  0.00     0.038 A 
ATOM     10  C5  NON d   1     -53.925  17.722  -1.080  0.00  0.00     0.068 A 
ATOM     11  C24 NON d   1     -52.744  18.106  -0.459  0.00  0.00     0.038 A 
ATOM     12  C23 NON d   1     -51.476  17.686  -0.971  0.00  0.00     0.020 A 
BRANCH  10  13
ATOM     13  O2  NON d   1     -55.223  18.032  -0.682  0.00  0.00    -0.349 OA
BRANCH  13  14
ATOM     14  C4  NON d   1     -55.472  18.762   0.565  0.00  0.00     0.201 C 
BRANCH  14  15
ATOM     15  C3  NON d   1     -56.798  18.330   1.353  0.00  0.00     0.194 C 
BRANCH  15  16
ATOM     16  O1  NON d   1     -56.592  17.593   2.597  0.00  0.00    -0.389 OA
BRANCH  16  17
ATOM     17  C2  NON d   1     -57.811  17.230   3.363  0.00  0.00     0.163 C 
ATOM     18  C1  NON d   1     -57.941  18.021   4.678  0.00  0.00     0.033 C 
ENDBRANCH  16  17
ENDBRANCH  15  16
ENDBRANCH  14  15
ENDBRANCH  13  14
ENDBRANCH  10  13
ENDBRANCH   4   7
ENDBRANCH   1   3
BRANCH   1  19
ATOM     19  N2  NON d   1     -47.047  16.525  -3.369  0.00  0.00    -0.273 N 
ATOM     20  H13 NON d   1     -47.207  17.080  -2.532  0.00  0.00     0.189 HD
BRANCH  19  21
ATOM     21  N3  NON d   1     -45.631  16.335  -3.713  0.00  0.00    -0.266 N 
ATOM     22  C11 NON d   1     -45.087  16.734  -4.939  0.00  0.00     0.260 C 
ATOM     23  O4  NON d   1     -45.784  17.255  -5.810  0.00  0.00    -0.269 OA
ATOM     24  H14 NON d   1     -45.065  15.900  -2.985  0.00  0.00     0.190 HD
BRANCH  22  25
ATOM     25  C12 NON d   1     -43.538  16.453  -5.095  0.00  0.00     0.280 C 
BRANCH  25  26
ATOM     26  O5  NON d   1     -42.684  17.390  -4.428  0.00  0.00    -0.342 OA
BRANCH  26  27
ATOM     27  C13 NON d   1     -41.913  18.273  -5.147  0.00  0.00     0.070 A 
ATOM     28  C14 NON d   1     -42.125  19.623  -4.839  0.00  0.00     0.037 A 
ATOM     29  C15 NON d   1     -41.418  20.650  -5.487  0.00  0.00     0.015 A 
ATOM     30  C16 NON d   1     -40.467  20.358  -6.474  0.00  0.00    -0.026 A 
ATOM     31  C17 NON d   1     -39.756  21.380  -7.141  0.00  0.00     0.012 A 
ATOM     32  C21 NON d   1     -40.237  19.001  -6.808  0.00  0.00    -0.023 A 
ATOM     33  C18 NON d   1     -38.817  21.077  -8.125  0.00  0.00     0.001 A 
ATOM     34  C19 NON d   1     -38.576  19.751  -8.459  0.00  0.00     0.001 A 
ATOM     35  C20 NON d   1     -39.282  18.728  -7.804  0.00  0.00     0.012 A 
ATOM     36  C22 NON d   1     -40.967  17.975  -6.135  0.00  0.00     0.049 A 
ENDBRANCH  26  27
ENDBRANCH  25  26
ENDBRANCH  22  25
ENDBRANCH  19  21
ENDBRANCH   1  19
TORSDOF 12
ENDMDL
