MODEL 1
REMARK VINA RESULT:   -13.405      0.000      0.000
REMARK INTER + INTRA:         -15.725
REMARK INTER:                 -14.896
REMARK INTRA:                  -0.828
REMARK CONF_INDEPENDENT:        1.492
REMARK UNBOUND:                -0.828
REMARK  5 active torsions:
REMARK  status: ('A' for Active; 'I' for Inactive)
REMARK    1  A    between atoms: C2_2  and  C3_4 
REMARK    2  A    between atoms: C6_7  and  N1_8 
REMARK       I    between atoms: N2_11  and  C9_12 
REMARK    3  A    between atoms: C9_12  and  C10_14 
REMARK    4  A    between atoms: C12_17  and  N3_18 
REMARK       I    between atoms: N3_18  and  C13_19 
REMARK       I    between atoms: C13_19  and  N4_21 
REMARK    5  A    between atoms: N4_21  and  C14_22 
ROOT
ATOM      1  C10 NON d   1     -45.133  16.829  -4.297  0.00  0.00     0.134 A 
ATOM      2  C11 NON d   1     -45.739  16.897  -5.537  0.00  0.00     0.090 A 
ATOM      3  S1  NON d   1     -47.435  16.701  -5.435  0.00  0.00    -0.059 SA
ATOM      4  C12 NON d   1     -47.298  16.407  -3.742  0.00  0.00     0.198 A 
ATOM      5  N5  NON d   1     -46.074  16.542  -3.279  0.00  0.00    -0.217 NA
ENDROOT
BRANCH   1   6
ATOM      6  C9  NON d   1     -43.684  16.932  -3.944  0.00  0.00     0.273 C 
ATOM      7  N2  NON d   1     -42.819  17.950  -4.453  0.00  0.00    -0.344 N 
ATOM      8  C8  NON d   1     -43.172  18.964  -5.435  0.00  0.00     0.146 C 
ATOM      9  C21 NON d   1     -41.388  17.630  -4.409  0.00  0.00     0.146 C 
ATOM     10  C7  NON d   1     -42.190  20.152  -5.572  0.00  0.00     0.143 C 
ATOM     11  N1  NON d   1     -40.757  19.752  -5.608  0.00  0.00    -0.378 N 
ATOM     12  C22 NON d   1     -40.435  18.841  -4.480  0.00  0.00     0.143 C 
ATOM     13  O2  NON d   1     -43.178  16.096  -3.185  0.00  0.00    -0.266 OA
BRANCH  11  14
ATOM     14  C6  NON d   1     -39.810  20.745  -5.955  0.00  0.00     0.030 A 
ATOM     15  C5  NON d   1     -39.504  21.822  -5.102  0.00  0.00     0.030 A 
ATOM     16  C4  NON d   1     -38.587  22.836  -5.447  0.00  0.00     0.017 A 
ATOM     17  C3  NON d   1     -37.935  22.836  -6.683  0.00  0.00     0.009 A 
ATOM     18  C24 NON d   1     -38.232  21.804  -7.568  0.00  0.00     0.017 A 
ATOM     19  C23 NON d   1     -39.156  20.790  -7.206  0.00  0.00     0.030 A 
BRANCH  17  20
ATOM     20  C2  NON d   1     -36.953  23.936  -6.973  0.00  0.00     0.155 C 
ATOM     21  C1  NON d   1     -36.782  24.442  -8.417  0.00  0.00     0.096 C 
ATOM     22  O1  NON d   1     -36.277  24.391  -6.048  0.00  0.00    -0.293 OA
ENDBRANCH  17  20
ENDBRANCH  11  14
ENDBRANCH   1   6
BRANCH   4  23
ATOM     23  N3  NON d   1     -48.461  16.116  -3.113  0.00  0.00    -0.167 NA
ATOM     24  C13 NON d   1     -49.547  16.879  -3.240  0.00  0.00     0.348 C 
ATOM     25  O3  NON d   1     -49.725  17.874  -3.934  0.00  0.00    -0.245 OA
ATOM     26  N4  NON d   1     -50.508  16.376  -2.384  0.00  0.00    -0.307 N 
ATOM     27  H11 NON d   1     -50.150  15.584  -1.872  0.00  0.00     0.170 HD
BRANCH  26  28
ATOM     28  C14 NON d   1     -51.825  16.800  -2.123  0.00  0.00     0.036 A 
ATOM     29  C15 NON d   1     -52.857  16.147  -2.810  0.00  0.00     0.029 A 
ATOM     30  C16 NON d   1     -54.194  16.506  -2.610  0.00  0.00     0.003 A 
ATOM     31  C17 NON d   1     -54.513  17.533  -1.722  0.00  0.00     0.007 A 
ATOM     32  C18 NON d   1     -53.497  18.209  -1.040  0.00  0.00    -0.060 A 
ATOM     33  C19 NON d   1     -53.831  19.295  -0.062  0.00  0.00     0.048 C 
ATOM     34  C20 NON d   1     -52.157  17.825  -1.235  0.00  0.00     0.036 A 
ENDBRANCH  26  28
ENDBRANCH   4  23
TORSDOF 5
ENDMDL
MODEL 2
REMARK VINA RESULT:   -11.757      3.285      4.838
REMARK INTER + INTRA:         -14.085
REMARK INTER:                 -13.249
REMARK INTRA:                  -0.837
REMARK CONF_INDEPENDENT:        1.492
REMARK UNBOUND:                -0.837
REMARK  5 active torsions:
REMARK  status: ('A' for Active; 'I' for Inactive)
REMARK    1  A    between atoms: C2_2  and  C3_4 
REMARK    2  A    between atoms: C6_7  and  N1_8 
REMARK       I    between atoms: N2_11  and  C9_12 
REMARK    3  A    between atoms: C9_12  and  C10_14 
REMARK    4  A    between atoms: C12_17  and  N3_18 
REMARK       I    between atoms: N3_18  and  C13_19 
REMARK       I    between atoms: C13_19  and  N4_21 
REMARK    5  A    between atoms: N4_21  and  C14_22 
ROOT
ATOM      1  C10 NON d   1     -42.134  18.991  -5.334  0.00  0.00     0.134 A 
ATOM      2  C11 NON d   1     -41.811  17.735  -5.810  0.00  0.00     0.090 A 
ATOM      3  S1  NON d   1     -42.940  16.549  -5.313  0.00  0.00    -0.059 SA
ATOM      4  C12 NON d   1     -43.766  17.733  -4.371  0.00  0.00     0.198 A 
ATOM      5  N5  NON d   1     -43.278  18.948  -4.501  0.00  0.00    -0.217 NA
ENDROOT
BRANCH   1   6
ATOM      6  C9  NON d   1     -41.413  20.287  -5.518  0.00  0.00     0.273 C 
ATOM      7  N2  NON d   1     -40.805  20.684  -6.750  0.00  0.00    -0.344 N 
ATOM      8  C8  NON d   1     -40.713  19.879  -7.959  0.00  0.00     0.146 C 
ATOM      9  C21 NON d   1     -39.760  21.705  -6.628  0.00  0.00     0.146 C 
ATOM     10  C7  NON d   1     -40.325  20.634  -9.252  0.00  0.00     0.143 C 
ATOM     11  N1  NON d   1     -39.200  21.593  -9.080  0.00  0.00    -0.378 N 
ATOM     12  C22 NON d   1     -39.442  22.488  -7.919  0.00  0.00     0.143 C 
ATOM     13  O2  NON d   1     -41.310  21.071  -4.566  0.00  0.00    -0.266 OA
BRANCH  11  14
ATOM     14  C6  NON d   1     -38.636  22.157 -10.249  0.00  0.00     0.030 A 
ATOM     15  C5  NON d   1     -39.182  23.293 -10.875  0.00  0.00     0.030 A 
ATOM     16  C4  NON d   1     -38.650  23.847 -12.057  0.00  0.00     0.017 A 
ATOM     17  C3  NON d   1     -37.545  23.276 -12.694  0.00  0.00     0.009 A 
ATOM     18  C24 NON d   1     -36.993  22.133 -12.124  0.00  0.00     0.017 A 
ATOM     19  C23 NON d   1     -37.538  21.588 -10.932  0.00  0.00     0.030 A 
BRANCH  17  20
ATOM     20  C2  NON d   1     -37.018  23.934 -13.938  0.00  0.00     0.155 C 
ATOM     21  C1  NON d   1     -37.030  23.161 -15.270  0.00  0.00     0.096 C 
ATOM     22  O1  NON d   1     -36.556  25.073 -13.860  0.00  0.00    -0.293 OA
ENDBRANCH  17  20
ENDBRANCH  11  14
ENDBRANCH   1   6
BRANCH   4  23
ATOM     23  N3  NON d   1     -44.820  17.269  -3.659  0.00  0.00    -0.167 NA
ATOM     24  C13 NON d   1     -45.942  16.849  -4.243  0.00  0.00     0.348 C 
ATOM     25  O3  NON d   1     -46.211  16.748  -5.435  0.00  0.00    -0.245 OA
ATOM     26  N4  NON d   1     -46.847  16.560  -3.240  0.00  0.00    -0.307 N 
ATOM     27  H11 NON d   1     -46.448  16.751  -2.334  0.00  0.00     0.170 HD
BRANCH  26  28
ATOM     28  C14 NON d   1     -48.172  16.088  -3.300  0.00  0.00     0.036 A 
ATOM     29  C15 NON d   1     -48.403  14.912  -4.027  0.00  0.00     0.029 A 
ATOM     30  C16 NON d   1     -49.689  14.376  -4.138  0.00  0.00     0.003 A 
ATOM     31  C17 NON d   1     -50.766  15.016  -3.525  0.00  0.00     0.007 A 
ATOM     32  C18 NON d   1     -50.560  16.199  -2.809  0.00  0.00    -0.060 A 
ATOM     33  C19 NON d   1     -51.706  16.881  -2.123  0.00  0.00     0.048 C 
ATOM     34  C20 NON d   1     -49.257  16.719  -2.688  0.00  0.00     0.036 A 
ENDBRANCH  26  28
ENDBRANCH   4  23
TORSDOF 5
ENDMDL
MODEL 3
REMARK VINA RESULT:   -11.106      4.668     12.194
REMARK INTER + INTRA:         -13.487
REMARK INTER:                 -12.597
REMARK INTRA:                  -0.890
REMARK CONF_INDEPENDENT:        1.492
REMARK UNBOUND:                -0.890
REMARK  5 active torsions:
REMARK  status: ('A' for Active; 'I' for Inactive)
REMARK    1  A    between atoms: C2_2  and  C3_4 
REMARK    2  A    between atoms: C6_7  and  N1_8 
REMARK       I    between atoms: N2_11  and  C9_12 
REMARK    3  A    between atoms: C9_12  and  C10_14 
REMARK    4  A    between atoms: C12_17  and  N3_18 
REMARK       I    between atoms: N3_18  and  C13_19 
REMARK       I    between atoms: C13_19  and  N4_21 
REMARK    5  A    between atoms: N4_21  and  C14_22 
ROOT
ATOM      1  C10 NON d   1     -37.447  22.395  -4.782  0.00  0.00     0.134 A 
ATOM      2  C11 NON d   1     -36.487  23.347  -4.497  0.00  0.00     0.090 A 
ATOM      3  S1  NON d   1     -36.259  24.437  -5.796  0.00  0.00    -0.059 SA
ATOM      4  C12 NON d   1     -37.368  23.529  -6.752  0.00  0.00     0.198 A 
ATOM      5  N5  NON d   1     -37.936  22.535  -6.103  0.00  0.00    -0.217 NA
ENDROOT
BRANCH   1   6
ATOM      6  C9  NON d   1     -37.935  21.261  -3.939  0.00  0.00     0.273 C 
ATOM      7  N2  NON d   1     -39.182  20.597  -4.155  0.00  0.00    -0.344 N 
ATOM      8  C8  NON d   1     -40.189  20.963  -5.140  0.00  0.00     0.146 C 
ATOM      9  C21 NON d   1     -39.713  19.876  -2.994  0.00  0.00     0.146 C 
ATOM     10  C7  NON d   1     -41.285  19.907  -5.418  0.00  0.00     0.143 C 
ATOM     11  N1  NON d   1     -41.844  19.275  -4.193  0.00  0.00    -0.378 N 
ATOM     12  C22 NON d   1     -40.755  18.783  -3.310  0.00  0.00     0.143 C 
ATOM     13  O2  NON d   1     -37.248  20.865  -2.989  0.00  0.00    -0.266 OA
BRANCH  11  14
ATOM     14  C6  NON d   1     -42.998  18.469  -4.340  0.00  0.00     0.030 A 
ATOM     15  C5  NON d   1     -44.020  18.780  -5.257  0.00  0.00     0.030 A 
ATOM     16  C4  NON d   1     -45.190  18.006  -5.392  0.00  0.00     0.017 A 
ATOM     17  C3  NON d   1     -45.412  16.879  -4.595  0.00  0.00     0.009 A 
ATOM     18  C24 NON d   1     -44.439  16.554  -3.655  0.00  0.00     0.017 A 
ATOM     19  C23 NON d   1     -43.265  17.342  -3.532  0.00  0.00     0.030 A 
BRANCH  17  20
ATOM     20  C2  NON d   1     -46.671  16.088  -4.811  0.00  0.00     0.155 C 
ATOM     21  C1  NON d   1     -47.796  16.149  -3.761  0.00  0.00     0.096 C 
ATOM     22  O1  NON d   1     -46.766  15.379  -5.814  0.00  0.00    -0.293 OA
ENDBRANCH  17  20
ENDBRANCH  11  14
ENDBRANCH   1   6
BRANCH   4  23
ATOM     23  N3  NON d   1     -37.536  23.976  -8.019  0.00  0.00    -0.167 NA
ATOM     24  C13 NON d   1     -38.583  23.620  -8.765  0.00  0.00     0.348 C 
ATOM     25  O3  NON d   1     -39.551  22.929  -8.471  0.00  0.00    -0.245 OA
ATOM     26  N4  NON d   1     -38.389  24.147 -10.027  0.00  0.00    -0.307 N 
ATOM     27  H11 NON d   1     -37.513  24.645 -10.075  0.00  0.00     0.170 HD
BRANCH  26  28
ATOM     28  C14 NON d   1     -39.179  24.073 -11.189  0.00  0.00     0.036 A 
ATOM     29  C15 NON d   1     -39.128  22.882 -11.926  0.00  0.00     0.029 A 
ATOM     30  C16 NON d   1     -39.882  22.726 -13.094  0.00  0.00     0.003 A 
ATOM     31  C17 NON d   1     -40.693  23.767 -13.543  0.00  0.00     0.007 A 
ATOM     32  C18 NON d   1     -40.745  24.969 -12.832  0.00  0.00    -0.060 A 
ATOM     33  C19 NON d   1     -41.637  26.085 -13.291  0.00  0.00     0.048 C 
ATOM     34  C20 NON d   1     -39.998  25.108 -11.648  0.00  0.00     0.036 A 
ENDBRANCH  26  28
ENDBRANCH   4  23
TORSDOF 5
ENDMDL
