MODEL 1
REMARK VINA RESULT:   -35.527      0.000      0.000
REMARK INTER + INTRA:         -38.809
REMARK INTER:                 -38.211
REMARK INTRA:                  -0.598
REMARK CONF_INDEPENDENT:        2.685
REMARK UNBOUND:                -0.598
REMARK  9 active torsions:
REMARK  status: ('A' for Active; 'I' for Inactive)
REMARK    1  A    between atoms: C1_2  and  C2_3 
REMARK       I    between atoms: C1_2  and  N6_20 
REMARK    2  A    between atoms: C2_3  and  S1_4 
REMARK    3  A    between atoms: S1_4  and  C3_5 
REMARK    4  A    between atoms: C4_8  and  N3_9 
REMARK    5  A    between atoms: N4_10  and  N3_9 
REMARK    6  A    between atoms: C5_11  and  C6_12 
REMARK    7  A    between atoms: C11_17  and  O2_18 
REMARK    8  A    between atoms: N6_20  and  C12_21 
REMARK    9  A    between atoms: C12_21  and  C13_22 
ROOT
ATOM      1  C3  NON d   1     -46.753  16.828  -5.212  0.00  0.00     0.203 A 
ATOM      2  N1  NON d   1     -47.440  16.130  -6.079  0.00  0.00    -0.108 NA
ATOM      3  N2  NON d   1     -48.537  15.622  -5.409  0.00  0.00     0.046 NA
ATOM      4  C4  NON d   1     -48.488  16.023  -4.153  0.00  0.00     0.741 A 
ATOM      5  N5  NON d   1     -47.374  16.806  -4.002  0.00  0.00    -0.162 N 
ATOM      6  H10 NON d   1     -47.053  17.255  -3.161  0.00  0.00     0.186 HD
ENDROOT
BRANCH   1   7
ATOM      7  S1  NON d   1     -45.311  17.737  -5.440  0.00  0.00    -0.081 SA
BRANCH   7   8
ATOM      8  C2  NON d   1     -44.180  16.938  -4.263  0.00  0.00     0.185 C 
BRANCH   8   9
ATOM      9  C1  NON d   1     -42.855  17.677  -4.110  0.00  0.00     0.227 C 
ATOM     10  O1  NON d   1     -41.926  17.302  -3.400  0.00  0.00    -0.273 OA
ATOM     11  N6  NON d   1     -42.813  18.871  -4.821  0.00  0.00    -0.356 N 
ATOM     12  H11 NON d   1     -43.432  18.963  -5.614  0.00  0.00     0.162 HD
BRANCH  11  13
ATOM     13  C12 NON d   1     -41.584  19.635  -4.843  0.00  0.00     0.161 C 
BRANCH  13  14
ATOM     14  C13 NON d   1     -40.814  19.607  -6.145  0.00  0.00    -0.041 A 
ATOM     15  C14 NON d   1     -41.390  20.253  -7.255  0.00  0.00     0.009 A 
ATOM     16  C15 NON d   1     -40.755  20.259  -8.499  0.00  0.00     0.001 A 
ATOM     17  C16 NON d   1     -39.530  19.619  -8.655  0.00  0.00     0.000 A 
ATOM     18  C17 NON d   1     -38.948  18.966  -7.570  0.00  0.00     0.001 A 
ATOM     19  C18 NON d   1     -39.589  18.951  -6.325  0.00  0.00     0.009 A 
ENDBRANCH  13  14
ENDBRANCH  11  13
ENDBRANCH   8   9
ENDBRANCH   7   8
ENDBRANCH   1   7
BRANCH   4  20
ATOM     20  N3  NON d   1     -49.299  15.784  -3.087  0.00  0.00    -0.106 N 
ATOM     21  H3  NON d   1     -49.188  14.897  -2.597  0.00  0.00     0.208 HD
BRANCH  20  22
ATOM     22  N4  NON d   1     -50.155  16.638  -2.436  0.00  0.00    -0.171 NA
ATOM     23  C5  NON d   1     -51.422  16.358  -2.436  0.00  0.00     0.153 C 
BRANCH  23  24
ATOM     24  C6  NON d   1     -52.407  17.204  -1.727  0.00  0.00     0.016 A 
ATOM     25  C7  NON d   1     -51.931  18.006  -0.681  0.00  0.00     0.016 A 
ATOM     26  C8  NON d   1     -52.803  18.859  -0.002  0.00  0.00     0.001 A 
ATOM     27  C9  NON d   1     -54.148  18.916  -0.366  0.00  0.00     0.003 A 
ATOM     28  C10 NON d   1     -54.628  18.114  -1.403  0.00  0.00     0.037 A 
ATOM     29  C11 NON d   1     -53.761  17.256  -2.079  0.00  0.00     0.077 A 
BRANCH  29  30
ATOM     30  O2  NON d   1     -54.306  16.502  -3.082  0.00  0.00    -0.360 OA
ATOM     31  H9  NON d   1     -54.894  15.841  -2.651  0.00  0.00     0.217 HD
ENDBRANCH  29  30
ENDBRANCH  23  24
ENDBRANCH  20  22
ENDBRANCH   4  20
TORSDOF 9
ENDMDL
MODEL 2
REMARK VINA RESULT:   -34.862      1.091      1.459
REMARK INTER + INTRA:         -38.631
REMARK INTER:                 -37.547
REMARK INTRA:                  -1.085
REMARK CONF_INDEPENDENT:        2.685
REMARK UNBOUND:                -1.085
REMARK  9 active torsions:
REMARK  status: ('A' for Active; 'I' for Inactive)
REMARK    1  A    between atoms: C1_2  and  C2_3 
REMARK       I    between atoms: C1_2  and  N6_20 
REMARK    2  A    between atoms: C2_3  and  S1_4 
REMARK    3  A    between atoms: S1_4  and  C3_5 
REMARK    4  A    between atoms: C4_8  and  N3_9 
REMARK    5  A    between atoms: N4_10  and  N3_9 
REMARK    6  A    between atoms: C5_11  and  C6_12 
REMARK    7  A    between atoms: C11_17  and  O2_18 
REMARK    8  A    between atoms: N6_20  and  C12_21 
REMARK    9  A    between atoms: C12_21  and  C13_22 
ROOT
ATOM      1  C3  NON d   1     -46.658  16.729  -5.178  0.00  0.00     0.203 A 
ATOM      2  N1  NON d   1     -47.440  16.139  -6.045  0.00  0.00    -0.108 NA
ATOM      3  N2  NON d   1     -48.551  15.699  -5.351  0.00  0.00     0.046 NA
ATOM      4  C4  NON d   1     -48.416  16.032  -4.081  0.00  0.00     0.741 A 
ATOM      5  N5  NON d   1     -47.229  16.704  -3.944  0.00  0.00    -0.162 N 
ATOM      6  H10 NON d   1     -46.835  17.081  -3.099  0.00  0.00     0.186 HD
ENDROOT
BRANCH   1   7
ATOM      7  S1  NON d   1     -45.149  17.515  -5.429  0.00  0.00    -0.081 SA
BRANCH   7   8
ATOM      8  C2  NON d   1     -44.334  17.271  -3.823  0.00  0.00     0.185 C 
BRANCH   8   9
ATOM      9  C1  NON d   1     -42.862  17.668  -3.831  0.00  0.00     0.227 C 
ATOM     10  O1  NON d   1     -42.212  17.959  -2.831  0.00  0.00    -0.273 OA
ATOM     11  N6  NON d   1     -42.321  17.725  -5.111  0.00  0.00    -0.356 N 
ATOM     12  H11 NON d   1     -42.772  17.180  -5.832  0.00  0.00     0.162 HD
BRANCH  11  13
ATOM     13  C12 NON d   1     -40.909  18.000  -5.269  0.00  0.00     0.161 C 
BRANCH  13  14
ATOM     14  C13 NON d   1     -40.525  18.791  -6.499  0.00  0.00    -0.041 A 
ATOM     15  C14 NON d   1     -41.306  19.918  -6.818  0.00  0.00     0.009 A 
ATOM     16  C15 NON d   1     -41.033  20.693  -7.947  0.00  0.00     0.001 A 
ATOM     17  C16 NON d   1     -39.970  20.355  -8.778  0.00  0.00     0.000 A 
ATOM     18  C17 NON d   1     -39.191  19.237  -8.485  0.00  0.00     0.001 A 
ATOM     19  C18 NON d   1     -39.471  18.454  -7.359  0.00  0.00     0.009 A 
ENDBRANCH  13  14
ENDBRANCH  11  13
ENDBRANCH   8   9
ENDBRANCH   7   8
ENDBRANCH   1   7
BRANCH   4  20
ATOM     20  N3  NON d   1     -49.202  15.816  -2.992  0.00  0.00    -0.106 N 
ATOM     21  H3  NON d   1     -48.969  15.028  -2.389  0.00  0.00     0.208 HD
BRANCH  20  22
ATOM     22  N4  NON d   1     -50.188  16.609  -2.459  0.00  0.00    -0.171 NA
ATOM     23  C5  NON d   1     -51.425  16.259  -2.638  0.00  0.00     0.153 C 
BRANCH  23  24
ATOM     24  C6  NON d   1     -52.546  17.036  -2.065  0.00  0.00     0.016 A 
ATOM     25  C7  NON d   1     -53.801  16.893  -2.670  0.00  0.00     0.016 A 
ATOM     26  C8  NON d   1     -54.909  17.565  -2.149  0.00  0.00     0.001 A 
ATOM     27  C9  NON d   1     -54.766  18.377  -1.024  0.00  0.00     0.003 A 
ATOM     28  C10 NON d   1     -53.516  18.527  -0.422  0.00  0.00     0.037 A 
ATOM     29  C11 NON d   1     -52.406  17.862  -0.944  0.00  0.00     0.077 A 
BRANCH  29  30
ATOM     30  O2  NON d   1     -51.216  18.060  -0.300  0.00  0.00    -0.360 OA
ATOM     31  H9  NON d   1     -50.519  17.660  -0.867  0.00  0.00     0.217 HD
ENDBRANCH  29  30
ENDBRANCH  23  24
ENDBRANCH  20  22
ENDBRANCH   4  20
TORSDOF 9
ENDMDL
MODEL 3
REMARK VINA RESULT:   -34.709      1.440      2.050
REMARK INTER + INTRA:         -37.783
REMARK INTER:                 -37.394
REMARK INTRA:                  -0.389
REMARK CONF_INDEPENDENT:        2.685
REMARK UNBOUND:                -0.389
REMARK  9 active torsions:
REMARK  status: ('A' for Active; 'I' for Inactive)
REMARK    1  A    between atoms: C1_2  and  C2_3 
REMARK       I    between atoms: C1_2  and  N6_20 
REMARK    2  A    between atoms: C2_3  and  S1_4 
REMARK    3  A    between atoms: S1_4  and  C3_5 
REMARK    4  A    between atoms: C4_8  and  N3_9 
REMARK    5  A    between atoms: N4_10  and  N3_9 
REMARK    6  A    between atoms: C5_11  and  C6_12 
REMARK    7  A    between atoms: C11_17  and  O2_18 
REMARK    8  A    between atoms: N6_20  and  C12_21 
REMARK    9  A    between atoms: C12_21  and  C13_22 
ROOT
ATOM      1  C3  NON d   1     -46.766  16.267  -5.060  0.00  0.00     0.203 A 
ATOM      2  N1  NON d   1     -47.812  16.505  -5.810  0.00  0.00    -0.108 NA
ATOM      3  N2  NON d   1     -48.929  16.261  -5.033  0.00  0.00     0.046 NA
ATOM      4  C4  NON d   1     -48.534  15.881  -3.833  0.00  0.00     0.741 A 
ATOM      5  N5  NON d   1     -47.164  15.892  -3.814  0.00  0.00    -0.162 N 
ATOM      6  H10 NON d   1     -46.562  15.646  -3.048  0.00  0.00     0.186 HD
ENDROOT
BRANCH   1   7
ATOM      7  S1  NON d   1     -45.096  16.426  -5.436  0.00  0.00    -0.081 SA
BRANCH   7   8
ATOM      8  C2  NON d   1     -44.483  17.368  -4.007  0.00  0.00     0.185 C 
BRANCH   8   9
ATOM      9  C1  NON d   1     -42.963  17.475  -3.968  0.00  0.00     0.227 C 
ATOM     10  O1  NON d   1     -42.211  17.045  -4.838  0.00  0.00    -0.273 OA
ATOM     11  N6  NON d   1     -42.490  18.071  -2.804  0.00  0.00    -0.356 N 
ATOM     12  H11 NON d   1     -43.121  18.681  -2.302  0.00  0.00     0.162 HD
BRANCH  11  13
ATOM     13  C12 NON d   1     -41.071  18.324  -2.668  0.00  0.00     0.161 C 
BRANCH  13  14
ATOM     14  C13 NON d   1     -40.541  19.526  -3.416  0.00  0.00    -0.041 A 
ATOM     15  C14 NON d   1     -40.194  20.662  -2.661  0.00  0.00     0.009 A 
ATOM     16  C15 NON d   1     -39.714  21.821  -3.274  0.00  0.00     0.001 A 
ATOM     17  C16 NON d   1     -39.570  21.865  -4.656  0.00  0.00     0.000 A 
ATOM     18  C17 NON d   1     -39.918  20.754  -5.423  0.00  0.00     0.001 A 
ATOM     19  C18 NON d   1     -40.408  19.595  -4.810  0.00  0.00     0.009 A 
ENDBRANCH  13  14
ENDBRANCH  11  13
ENDBRANCH   8   9
ENDBRANCH   7   8
ENDBRANCH   1   7
BRANCH   4  20
ATOM     20  N3  NON d   1     -49.224  15.505  -2.722  0.00  0.00    -0.106 N 
ATOM     21  H3  NON d   1     -48.979  14.612  -2.293  0.00  0.00     0.208 HD
BRANCH  20  22
ATOM     22  N4  NON d   1     -50.107  16.227  -1.959  0.00  0.00    -0.171 NA
ATOM     23  C5  NON d   1     -51.270  16.508  -2.462  0.00  0.00     0.153 C 
BRANCH  23  24
ATOM     24  C6  NON d   1     -52.293  17.250  -1.694  0.00  0.00     0.016 A 
ATOM     25  C7  NON d   1     -51.855  17.995  -0.592  0.00  0.00     0.016 A 
ATOM     26  C8  NON d   1     -52.766  18.752   0.148  0.00  0.00     0.001 A 
ATOM     27  C9  NON d   1     -54.113  18.769  -0.213  0.00  0.00     0.003 A 
ATOM     28  C10 NON d   1     -54.556  18.023  -1.307  0.00  0.00     0.037 A 
ATOM     29  C11 NON d   1     -53.649  17.261  -2.043  0.00  0.00     0.077 A 
BRANCH  29  30
ATOM     30  O2  NON d   1     -54.158  16.557  -3.099  0.00  0.00    -0.360 OA
ATOM     31  H9  NON d   1     -54.195  15.614  -2.820  0.00  0.00     0.217 HD
ENDBRANCH  29  30
ENDBRANCH  23  24
ENDBRANCH  20  22
ENDBRANCH   4  20
TORSDOF 9
ENDMDL
MODEL 4
REMARK VINA RESULT:   -34.211      1.804      2.318
REMARK INTER + INTRA:         -37.720
REMARK INTER:                 -36.896
REMARK INTRA:                  -0.825
REMARK CONF_INDEPENDENT:        2.685
REMARK UNBOUND:                -0.825
REMARK  9 active torsions:
REMARK  status: ('A' for Active; 'I' for Inactive)
REMARK    1  A    between atoms: C1_2  and  C2_3 
REMARK       I    between atoms: C1_2  and  N6_20 
REMARK    2  A    between atoms: C2_3  and  S1_4 
REMARK    3  A    between atoms: S1_4  and  C3_5 
REMARK    4  A    between atoms: C4_8  and  N3_9 
REMARK    5  A    between atoms: N4_10  and  N3_9 
REMARK    6  A    between atoms: C5_11  and  C6_12 
REMARK    7  A    between atoms: C11_17  and  O2_18 
REMARK    8  A    between atoms: N6_20  and  C12_21 
REMARK    9  A    between atoms: C12_21  and  C13_22 
ROOT
ATOM      1  C3  NON d   1     -46.751  16.385  -5.036  0.00  0.00     0.203 A 
ATOM      2  N1  NON d   1     -47.799  16.505  -5.810  0.00  0.00    -0.108 NA
ATOM      3  N2  NON d   1     -48.913  16.366  -5.004  0.00  0.00     0.046 NA
ATOM      4  C4  NON d   1     -48.515  16.165  -3.763  0.00  0.00     0.741 A 
ATOM      5  N5  NON d   1     -47.145  16.189  -3.749  0.00  0.00    -0.162 N 
ATOM      6  H10 NON d   1     -46.540  16.059  -2.956  0.00  0.00     0.186 HD
ENDROOT
BRANCH   1   7
ATOM      7  S1  NON d   1     -45.083  16.501  -5.434  0.00  0.00    -0.081 SA
BRANCH   7   8
ATOM      8  C2  NON d   1     -44.437  17.475  -4.042  0.00  0.00     0.185 C 
BRANCH   8   9
ATOM      9  C1  NON d   1     -42.916  17.572  -4.033  0.00  0.00     0.227 C 
ATOM     10  O1  NON d   1     -42.189  17.213  -4.956  0.00  0.00    -0.273 OA
ATOM     11  N6  NON d   1     -42.409  18.066  -2.837  0.00  0.00    -0.356 N 
ATOM     12  H11 NON d   1     -43.023  18.633  -2.269  0.00  0.00     0.162 HD
BRANCH  11  13
ATOM     13  C12 NON d   1     -40.986  18.299  -2.716  0.00  0.00     0.161 C 
BRANCH  13  14
ATOM     14  C13 NON d   1     -40.462  19.542  -3.401  0.00  0.00    -0.041 A 
ATOM     15  C14 NON d   1     -41.102  19.950  -4.586  0.00  0.00     0.009 A 
ATOM     16  C15 NON d   1     -40.670  21.075  -5.292  0.00  0.00     0.001 A 
ATOM     17  C16 NON d   1     -39.589  21.814  -4.823  0.00  0.00     0.000 A 
ATOM     18  C17 NON d   1     -38.936  21.421  -3.657  0.00  0.00     0.001 A 
ATOM     19  C18 NON d   1     -39.363  20.287  -2.954  0.00  0.00     0.009 A 
ENDBRANCH  13  14
ENDBRANCH  11  13
ENDBRANCH   8   9
ENDBRANCH   7   8
ENDBRANCH   1   7
BRANCH   4  20
ATOM     20  N3  NON d   1     -49.201  15.946  -2.608  0.00  0.00    -0.106 N 
ATOM     21  H3  NON d   1     -48.859  15.214  -1.986  0.00  0.00     0.208 HD
BRANCH  20  22
ATOM     22  N4  NON d   1     -50.210  16.684  -2.041  0.00  0.00    -0.171 NA
ATOM     23  C5  NON d   1     -51.427  16.471  -2.438  0.00  0.00     0.153 C 
BRANCH  23  24
ATOM     24  C6  NON d   1     -52.576  17.195  -1.853  0.00  0.00     0.016 A 
ATOM     25  C7  NON d   1     -53.826  17.012  -2.459  0.00  0.00     0.016 A 
ATOM     26  C8  NON d   1     -54.958  17.634  -1.927  0.00  0.00     0.001 A 
ATOM     27  C9  NON d   1     -54.845  18.434  -0.790  0.00  0.00     0.003 A 
ATOM     28  C10 NON d   1     -53.601  18.624  -0.187  0.00  0.00     0.037 A 
ATOM     29  C11 NON d   1     -52.467  18.010  -0.720  0.00  0.00     0.077 A 
BRANCH  29  30
ATOM     30  O2  NON d   1     -51.285  18.244  -0.074  0.00  0.00    -0.360 OA
ATOM     31  H9  NON d   1     -50.672  17.520  -0.335  0.00  0.00     0.217 HD
ENDBRANCH  29  30
ENDBRANCH  23  24
ENDBRANCH  20  22
ENDBRANCH   4  20
TORSDOF 9
ENDMDL
MODEL 5
REMARK VINA RESULT:   -33.740      1.995      2.875
REMARK INTER + INTRA:         -37.347
REMARK INTER:                 -36.425
REMARK INTRA:                  -0.922
REMARK CONF_INDEPENDENT:        2.685
REMARK UNBOUND:                -0.922
REMARK  9 active torsions:
REMARK  status: ('A' for Active; 'I' for Inactive)
REMARK    1  A    between atoms: C1_2  and  C2_3 
REMARK       I    between atoms: C1_2  and  N6_20 
REMARK    2  A    between atoms: C2_3  and  S1_4 
REMARK    3  A    between atoms: S1_4  and  C3_5 
REMARK    4  A    between atoms: C4_8  and  N3_9 
REMARK    5  A    between atoms: N4_10  and  N3_9 
REMARK    6  A    between atoms: C5_11  and  C6_12 
REMARK    7  A    between atoms: C11_17  and  O2_18 
REMARK    8  A    between atoms: N6_20  and  C12_21 
REMARK    9  A    between atoms: C12_21  and  C13_22 
ROOT
ATOM      1  C3  NON d   1     -46.688  17.085  -5.357  0.00  0.00     0.203 A 
ATOM      2  N1  NON d   1     -47.440  16.130  -5.841  0.00  0.00    -0.108 NA
ATOM      3  N2  NON d   1     -48.110  15.563  -4.773  0.00  0.00     0.046 NA
ATOM      4  C4  NON d   1     -47.749  16.187  -3.668  0.00  0.00     0.741 A 
ATOM      5  N5  NON d   1     -46.859  17.172  -4.010  0.00  0.00    -0.162 N 
ATOM      6  H10 NON d   1     -46.394  17.816  -3.393  0.00  0.00     0.186 HD
ENDROOT
BRANCH   1   7
ATOM      7  S1  NON d   1     -45.651  18.180  -6.181  0.00  0.00    -0.081 SA
BRANCH   7   8
ATOM      8  C2  NON d   1     -44.569  18.749  -4.835  0.00  0.00     0.185 C 
BRANCH   8   9
ATOM      9  C1  NON d   1     -43.117  18.323  -5.013  0.00  0.00     0.227 C 
ATOM     10  O1  NON d   1     -42.713  17.167  -4.914  0.00  0.00    -0.273 OA
ATOM     11  N6  NON d   1     -42.260  19.392  -5.250  0.00  0.00    -0.356 N 
ATOM     12  H11 NON d   1     -42.662  20.234  -5.638  0.00  0.00     0.162 HD
BRANCH  11  13
ATOM     13  C12 NON d   1     -40.865  19.130  -5.529  0.00  0.00     0.161 C 
BRANCH  13  14
ATOM     14  C13 NON d   1     -40.049  18.601  -4.371  0.00  0.00    -0.041 A 
ATOM     15  C14 NON d   1     -38.647  18.688  -4.470  0.00  0.00     0.009 A 
ATOM     16  C15 NON d   1     -37.818  18.206  -3.454  0.00  0.00     0.001 A 
ATOM     17  C16 NON d   1     -38.378  17.631  -2.318  0.00  0.00     0.000 A 
ATOM     18  C17 NON d   1     -39.763  17.527  -2.205  0.00  0.00     0.001 A 
ATOM     19  C18 NON d   1     -40.594  18.001  -3.228  0.00  0.00     0.009 A 
ENDBRANCH  13  14
ENDBRANCH  11  13
ENDBRANCH   8   9
ENDBRANCH   7   8
ENDBRANCH   1   7
BRANCH   4  20
ATOM     20  N3  NON d   1     -48.090  16.005  -2.364  0.00  0.00    -0.106 N 
ATOM     21  H3  NON d   1     -47.364  15.682  -1.726  0.00  0.00     0.208 HD
BRANCH  20  22
ATOM     22  N4  NON d   1     -49.244  16.357  -1.708  0.00  0.00    -0.171 NA
ATOM     23  C5  NON d   1     -50.209  16.883  -2.398  0.00  0.00     0.153 C 
BRANCH  23  24
ATOM     24  C6  NON d   1     -51.499  17.255  -1.778  0.00  0.00     0.016 A 
ATOM     25  C7  NON d   1     -52.668  16.858  -2.439  0.00  0.00     0.016 A 
ATOM     26  C8  NON d   1     -53.917  17.140  -1.881  0.00  0.00     0.001 A 
ATOM     27  C9  NON d   1     -54.000  17.816  -0.663  0.00  0.00     0.003 A 
ATOM     28  C10 NON d   1     -52.837  18.219  -0.004  0.00  0.00     0.037 A 
ATOM     29  C11 NON d   1     -51.589  17.944  -0.562  0.00  0.00     0.077 A 
BRANCH  29  30
ATOM     30  O2  NON d   1     -50.498  18.371   0.142  0.00  0.00    -0.360 OA
ATOM     31  H9  NON d   1     -49.796  17.694   0.013  0.00  0.00     0.217 HD
ENDBRANCH  29  30
ENDBRANCH  23  24
ENDBRANCH  20  22
ENDBRANCH   4  20
TORSDOF 9
ENDMDL
MODEL 6
REMARK VINA RESULT:   -33.149      2.068     10.952
REMARK INTER + INTRA:         -37.028
REMARK INTER:                 -35.834
REMARK INTRA:                  -1.194
REMARK CONF_INDEPENDENT:        2.685
REMARK UNBOUND:                -1.194
REMARK  9 active torsions:
REMARK  status: ('A' for Active; 'I' for Inactive)
REMARK    1  A    between atoms: C1_2  and  C2_3 
REMARK       I    between atoms: C1_2  and  N6_20 
REMARK    2  A    between atoms: C2_3  and  S1_4 
REMARK    3  A    between atoms: S1_4  and  C3_5 
REMARK    4  A    between atoms: C4_8  and  N3_9 
REMARK    5  A    between atoms: N4_10  and  N3_9 
REMARK    6  A    between atoms: C5_11  and  C6_12 
REMARK    7  A    between atoms: C11_17  and  O2_18 
REMARK    8  A    between atoms: N6_20  and  C12_21 
REMARK    9  A    between atoms: C12_21  and  C13_22 
ROOT
ATOM      1  C3  NON d   1     -47.656  15.923  -5.101  0.00  0.00     0.203 A 
ATOM      2  N1  NON d   1     -47.075  16.505  -6.118  0.00  0.00    -0.108 NA
ATOM      3  N2  NON d   1     -45.913  17.083  -5.643  0.00  0.00     0.046 NA
ATOM      4  C4  NON d   1     -45.817  16.838  -4.350  0.00  0.00     0.741 A 
ATOM      5  N5  NON d   1     -46.903  16.087  -3.980  0.00  0.00    -0.162 N 
ATOM      6  H10 NON d   1     -47.124  15.746  -3.060  0.00  0.00     0.186 HD
ENDROOT
BRANCH   1   7
ATOM      7  S1  NON d   1     -49.108  15.004  -5.054  0.00  0.00    -0.081 SA
BRANCH   7   8
ATOM      8  C2  NON d   1     -49.234  14.602  -3.286  0.00  0.00     0.185 C 
BRANCH   8   9
ATOM      9  C1  NON d   1     -49.475  15.825  -2.408  0.00  0.00     0.227 C 
ATOM     10  O1  NON d   1     -48.587  16.510  -1.908  0.00  0.00    -0.273 OA
ATOM     11  N6  NON d   1     -50.823  16.071  -2.176  0.00  0.00    -0.356 N 
ATOM     12  H11 NON d   1     -51.486  15.707  -2.847  0.00  0.00     0.162 HD
BRANCH  11  13
ATOM     13  C12 NON d   1     -51.207  17.253  -1.435  0.00  0.00     0.161 C 
BRANCH  13  14
ATOM     14  C13 NON d   1     -52.672  17.625  -1.501  0.00  0.00    -0.041 A 
ATOM     15  C14 NON d   1     -53.149  18.557  -0.559  0.00  0.00     0.009 A 
ATOM     16  C15 NON d   1     -54.492  18.941  -0.537  0.00  0.00     0.001 A 
ATOM     17  C16 NON d   1     -55.382  18.401  -1.458  0.00  0.00     0.000 A 
ATOM     18  C17 NON d   1     -54.931  17.470  -2.393  0.00  0.00     0.001 A 
ATOM     19  C18 NON d   1     -53.587  17.077  -2.409  0.00  0.00     0.009 A 
ENDBRANCH  13  14
ENDBRANCH  11  13
ENDBRANCH   8   9
ENDBRANCH   7   8
ENDBRANCH   1   7
BRANCH   4  20
ATOM     20  N3  NON d   1     -44.893  17.197  -3.418  0.00  0.00    -0.106 N 
ATOM     21  H3  NON d   1     -44.970  16.781  -2.490  0.00  0.00     0.208 HD
BRANCH  20  22
ATOM     22  N4  NON d   1     -43.737  17.921  -3.573  0.00  0.00    -0.171 NA
ATOM     23  C5  NON d   1     -42.658  17.291  -3.924  0.00  0.00     0.153 C 
BRANCH  23  24
ATOM     24  C6  NON d   1     -41.379  17.999  -4.149  0.00  0.00     0.016 A 
ATOM     25  C7  NON d   1     -41.157  18.534  -5.425  0.00  0.00     0.016 A 
ATOM     26  C8  NON d   1     -39.989  19.252  -5.689  0.00  0.00     0.001 A 
ATOM     27  C9  NON d   1     -39.044  19.441  -4.680  0.00  0.00     0.003 A 
ATOM     28  C10 NON d   1     -39.259  18.905  -3.409  0.00  0.00     0.037 A 
ATOM     29  C11 NON d   1     -40.421  18.181  -3.145  0.00  0.00     0.077 A 
BRANCH  29  30
ATOM     30  O2  NON d   1     -40.559  17.688  -1.877  0.00  0.00    -0.360 OA
ATOM     31  H9  NON d   1     -39.661  17.686  -1.476  0.00  0.00     0.217 HD
ENDBRANCH  29  30
ENDBRANCH  23  24
ENDBRANCH  20  22
ENDBRANCH   4  20
TORSDOF 9
ENDMDL
