MODEL 1
REMARK VINA RESULT:   -14.835      0.000      0.000
REMARK INTER + INTRA:         -18.872
REMARK INTER:                 -17.221
REMARK INTRA:                  -1.651
REMARK CONF_INDEPENDENT:        2.386
REMARK UNBOUND:                -1.651
REMARK  8 active torsions:
REMARK  status: ('A' for Active; 'I' for Inactive)
REMARK    1  A    between atoms: C2_2  and  O1_3 
REMARK    2  A    between atoms: O1_3  and  C3_4 
REMARK    3  A    between atoms: C4_6  and  C3_4 
REMARK    4  A    between atoms: C4_6  and  C5_7 
REMARK    5  A    between atoms: C5_7  and  C6_9 
REMARK    6  A    between atoms: C12_15  and  N1_16 
REMARK    7  A    between atoms: N2_17  and  C12_15 
REMARK       I    between atoms: N2_17  and  C13_18 
REMARK       I    between atoms: C13_18  and  N3_19 
REMARK       I    between atoms: C13_18  and  N4_20 
REMARK    8  A    between atoms: N4_20  and  C14_21 
ROOT
ATOM      1  N2  NON d   1     -48.366  16.512  -3.605  0.00  0.00    -0.207 NA
ATOM      2  C13 NON d   1     -47.231  16.874  -4.138  0.00  0.00     0.193 C 
ATOM      3  N3  NON d   1     -47.065  16.505  -5.435  0.00  0.00    -0.272 NA
ATOM      4  N4  NON d   1     -46.189  17.544  -3.568  0.00  0.00    -0.161 N 
ATOM      5  H13 NON d   1     -47.944  16.330  -5.908  0.00  0.00     0.127 HD
ATOM      6  H14 NON d   1     -46.406  17.074  -5.960  0.00  0.00     0.127 HD
ATOM      7  H15 NON d   1     -46.287  17.795  -2.595  0.00  0.00     0.187 HD
ENDROOT
BRANCH   1   8
ATOM      8  C12 NON d   1     -48.700  16.770  -2.294  0.00  0.00     0.124 C 
ATOM      9  C4  NON d   1     -49.948  17.254  -2.037  0.00  0.00     0.130 C 
BRANCH   9  10
ATOM     10  C3  NON d   1     -50.880  17.376  -3.188  0.00  0.00     0.300 C 
ATOM     11  O2  NON d   1     -50.947  18.348  -3.928  0.00  0.00    -0.259 OA
BRANCH  10  12
ATOM     12  O1  NON d   1     -51.707  16.294  -3.185  0.00  0.00    -0.318 OA
BRANCH  12  13
ATOM     13  C2  NON d   1     -51.133  15.017  -2.869  0.00  0.00     0.174 C 
ATOM     14  C1  NON d   1     -50.433  14.470  -4.104  0.00  0.00     0.034 C 
ENDBRANCH  12  13
ENDBRANCH  10  12
ENDBRANCH   9  10
BRANCH   9  15
ATOM     15  C5  NON d   1     -50.576  17.556  -0.711  0.00  0.00     0.201 C 
ATOM     16  O3  NON d   1     -49.936  17.393   0.332  0.00  0.00    -0.286 OA
BRANCH  15  17
ATOM     17  C6  NON d   1     -51.976  18.024  -0.558  0.00  0.00     0.015 A 
ATOM     18  C7  NON d   1     -52.977  17.274  -1.200  0.00  0.00     0.015 A 
ATOM     19  C8  NON d   1     -54.314  17.658  -1.121  0.00  0.00     0.001 A 
ATOM     20  C9  NON d   1     -54.664  18.796  -0.402  0.00  0.00     0.000 A 
ATOM     21  C10 NON d   1     -53.673  19.561   0.220  0.00  0.00     0.001 A 
ATOM     22  C11 NON d   1     -52.330  19.188   0.128  0.00  0.00     0.015 A 
ENDBRANCH  15  17
ENDBRANCH   9  15
BRANCH   8  23
ATOM     23  N1  NON d   1     -47.808  16.387  -1.295  0.00  0.00    -0.286 NA
ATOM     24  H11 NON d   1     -48.182  16.711  -0.404  0.00  0.00     0.125 HD
ATOM     25  H12 NON d   1     -46.878  16.784  -1.424  0.00  0.00     0.125 HD
ENDBRANCH   8  23
ENDBRANCH   1   8
BRANCH   4  26
ATOM     26  C14 NON d   1     -44.920  17.883  -4.055  0.00  0.00     0.729 A 
ATOM     27  N5  NON d   1     -44.932  18.622  -5.187  0.00  0.00    -0.067 NA
ATOM     28  C15 NON d   1     -43.735  19.005  -5.653  0.00  0.00     0.062 A 
ATOM     29  C16 NON d   1     -43.586  19.880  -6.912  0.00  0.00     0.072 C 
ATOM     30  C17 NON d   1     -42.428  18.636  -4.952  0.00  0.00     0.019 A 
ATOM     31  C18 NON d   1     -41.040  18.979  -5.283  0.00  0.00     0.023 A 
ATOM     32  C24 NON d   1     -42.544  17.841  -3.796  0.00  0.00     0.088 A 
ATOM     33  C19 NON d   1     -39.836  18.569  -4.552  0.00  0.00    -0.055 A 
ATOM     34  C20 NON d   1     -38.437  19.007  -5.025  0.00  0.00     0.049 C 
ATOM     35  C21 NON d   1     -39.985  17.695  -3.293  0.00  0.00    -0.054 A 
ATOM     36  C22 NON d   1     -38.735  17.258  -2.507  0.00  0.00     0.049 C 
ATOM     37  C23 NON d   1     -41.358  17.407  -3.021  0.00  0.00     0.040 A 
ATOM     38  N6  NON d   1     -43.786  17.479  -3.395  0.00  0.00    -0.062 NA
ENDBRANCH   4  26
TORSDOF 8
ENDMDL
MODEL 2
REMARK VINA RESULT:   -12.211      4.352      7.259
REMARK INTER + INTRA:         -15.418
REMARK INTER:                 -14.598
REMARK INTRA:                  -0.821
REMARK CONF_INDEPENDENT:        2.386
REMARK UNBOUND:                -0.821
REMARK  8 active torsions:
REMARK  status: ('A' for Active; 'I' for Inactive)
REMARK    1  A    between atoms: C2_2  and  O1_3 
REMARK    2  A    between atoms: O1_3  and  C3_4 
REMARK    3  A    between atoms: C4_6  and  C3_4 
REMARK    4  A    between atoms: C4_6  and  C5_7 
REMARK    5  A    between atoms: C5_7  and  C6_9 
REMARK    6  A    between atoms: C12_15  and  N1_16 
REMARK    7  A    between atoms: N2_17  and  C12_15 
REMARK       I    between atoms: N2_17  and  C13_18 
REMARK       I    between atoms: C13_18  and  N3_19 
REMARK       I    between atoms: C13_18  and  N4_20 
REMARK    8  A    between atoms: N4_20  and  C14_21 
ROOT
ATOM      1  N2  NON d   1     -42.873  19.323  -4.427  0.00  0.00    -0.207 NA
ATOM      2  C13 NON d   1     -41.853  19.667  -5.166  0.00  0.00     0.193 C 
ATOM      3  N3  NON d   1     -40.844  20.282  -4.496  0.00  0.00    -0.272 NA
ATOM      4  N4  NON d   1     -41.676  19.516  -6.509  0.00  0.00    -0.161 N 
ATOM      5  H13 NON d   1     -40.850  20.075  -3.504  0.00  0.00     0.127 HD
ATOM      6  H14 NON d   1     -39.932  20.213  -4.939  0.00  0.00     0.127 HD
ATOM      7  H15 NON d   1     -42.433  19.090  -7.024  0.00  0.00     0.187 HD
ENDROOT
BRANCH   1   8
ATOM      8  C12 NON d   1     -44.002  18.717  -4.935  0.00  0.00     0.124 C 
ATOM      9  C4  NON d   1     -44.337  17.487  -4.451  0.00  0.00     0.130 C 
BRANCH   9  10
ATOM     10  C3  NON d   1     -43.506  16.942  -3.345  0.00  0.00     0.300 C 
ATOM     11  O2  NON d   1     -43.256  15.755  -3.185  0.00  0.00    -0.259 OA
BRANCH  10  12
ATOM     12  O1  NON d   1     -43.195  17.963  -2.501  0.00  0.00    -0.318 OA
BRANCH  12  13
ATOM     13  C2  NON d   1     -41.846  18.042  -2.019  0.00  0.00     0.174 C 
ATOM     14  C1  NON d   1     -40.926  17.333  -3.002  0.00  0.00     0.034 C 
ENDBRANCH  12  13
ENDBRANCH  10  12
ENDBRANCH   9  10
BRANCH   9  15
ATOM     15  C5  NON d   1     -45.533  16.649  -4.784  0.00  0.00     0.201 C 
ATOM     16  O3  NON d   1     -45.565  16.002  -5.835  0.00  0.00    -0.286 OA
BRANCH  15  17
ATOM     17  C6  NON d   1     -46.737  16.566  -3.922  0.00  0.00     0.015 A 
ATOM     18  C7  NON d   1     -47.815  15.797  -4.395  0.00  0.00     0.015 A 
ATOM     19  C8  NON d   1     -48.988  15.685  -3.653  0.00  0.00     0.001 A 
ATOM     20  C9  NON d   1     -49.098  16.342  -2.431  0.00  0.00     0.000 A 
ATOM     21  C10 NON d   1     -48.041  17.127  -1.963  0.00  0.00     0.001 A 
ATOM     22  C11 NON d   1     -46.870  17.255  -2.714  0.00  0.00     0.015 A 
ENDBRANCH  15  17
ENDBRANCH   9  15
BRANCH   8  23
ATOM     23  N1  NON d   1     -44.815  19.446  -5.797  0.00  0.00    -0.286 NA
ATOM     24  H11 NON d   1     -45.170  20.252  -5.283  0.00  0.00     0.125 HD
ATOM     25  H12 NON d   1     -45.607  18.905  -6.144  0.00  0.00     0.125 HD
ENDBRANCH   8  23
ENDBRANCH   1   8
BRANCH   4  26
ATOM     26  C14 NON d   1     -40.653  19.938  -7.368  0.00  0.00     0.729 A 
ATOM     27  N5  NON d   1     -39.638  19.056  -7.508  0.00  0.00    -0.067 NA
ATOM     28  C15 NON d   1     -38.666  19.407  -8.361  0.00  0.00     0.062 A 
ATOM     29  C16 NON d   1     -37.462  18.492  -8.654  0.00  0.00     0.072 C 
ATOM     30  C17 NON d   1     -38.693  20.724  -9.136  0.00  0.00     0.019 A 
ATOM     31  C18 NON d   1     -37.753  21.268 -10.123  0.00  0.00     0.023 A 
ATOM     32  C24 NON d   1     -39.789  21.571  -8.885  0.00  0.00     0.088 A 
ATOM     33  C19 NON d   1     -37.857  22.557 -10.816  0.00  0.00    -0.055 A 
ATOM     34  C20 NON d   1     -36.784  22.997 -11.830  0.00  0.00     0.049 C 
ATOM     35  C21 NON d   1     -39.061  23.471 -10.523  0.00  0.00    -0.054 A 
ATOM     36  C22 NON d   1     -39.192  24.826 -11.243  0.00  0.00     0.049 C 
ATOM     37  C23 NON d   1     -39.941  22.879  -9.565  0.00  0.00     0.040 A 
ATOM     38  N6  NON d   1     -40.724  21.156  -7.998  0.00  0.00    -0.062 NA
ENDBRANCH   4  26
TORSDOF 8
ENDMDL
MODEL 3
REMARK VINA RESULT:   -11.860      1.426      2.125
REMARK INTER + INTRA:         -13.387
REMARK INTER:                 -14.246
REMARK INTRA:                   0.859
REMARK CONF_INDEPENDENT:        2.386
REMARK UNBOUND:                 0.859
REMARK  8 active torsions:
REMARK  status: ('A' for Active; 'I' for Inactive)
REMARK    1  A    between atoms: C2_2  and  O1_3 
REMARK    2  A    between atoms: O1_3  and  C3_4 
REMARK    3  A    between atoms: C4_6  and  C3_4 
REMARK    4  A    between atoms: C4_6  and  C5_7 
REMARK    5  A    between atoms: C5_7  and  C6_9 
REMARK    6  A    between atoms: C12_15  and  N1_16 
REMARK    7  A    between atoms: N2_17  and  C12_15 
REMARK       I    between atoms: N2_17  and  C13_18 
REMARK       I    between atoms: C13_18  and  N3_19 
REMARK       I    between atoms: C13_18  and  N4_20 
REMARK    8  A    between atoms: N4_20  and  C14_21 
ROOT
ATOM      1  N2  NON d   1     -48.544  16.705  -4.134  0.00  0.00    -0.207 NA
ATOM      2  C13 NON d   1     -47.332  16.761  -4.616  0.00  0.00     0.193 C 
ATOM      3  N3  NON d   1     -47.163  16.137  -5.811  0.00  0.00    -0.272 NA
ATOM      4  N4  NON d   1     -46.218  17.333  -4.076  0.00  0.00    -0.161 N 
ATOM      5  H13 NON d   1     -48.031  16.034  -6.325  0.00  0.00     0.127 HD
ATOM      6  H14 NON d   1     -46.380  16.477  -6.363  0.00  0.00     0.127 HD
ATOM      7  H15 NON d   1     -46.323  17.771  -3.172  0.00  0.00     0.187 HD
ENDROOT
BRANCH   1   8
ATOM      8  C12 NON d   1     -48.899  17.254  -2.921  0.00  0.00     0.124 C 
ATOM      9  C4  NON d   1     -50.125  16.942  -2.415  0.00  0.00     0.130 C 
BRANCH   9  10
ATOM     10  C3  NON d   1     -50.944  15.959  -3.172  0.00  0.00     0.300 C 
ATOM     11  O2  NON d   1     -52.154  15.826  -3.054  0.00  0.00    -0.259 OA
BRANCH  10  12
ATOM     12  O1  NON d   1     -50.104  15.175  -3.902  0.00  0.00    -0.318 OA
BRANCH  12  13
ATOM     13  C2  NON d   1     -49.503  14.049  -3.245  0.00  0.00     0.174 C 
ATOM     14  C1  NON d   1     -47.996  14.257  -3.186  0.00  0.00     0.034 C 
ENDBRANCH  12  13
ENDBRANCH  10  12
ENDBRANCH   9  10
BRANCH   9  15
ATOM     15  C5  NON d   1     -50.723  17.349  -1.103  0.00  0.00     0.201 C 
ATOM     16  O3  NON d   1     -50.064  17.255  -0.063  0.00  0.00    -0.286 OA
BRANCH  15  17
ATOM     17  C6  NON d   1     -52.115  17.844  -0.958  0.00  0.00     0.015 A 
ATOM     18  C7  NON d   1     -52.325  18.925  -0.084  0.00  0.00     0.015 A 
ATOM     19  C8  NON d   1     -53.605  19.435   0.120  0.00  0.00     0.001 A 
ATOM     20  C9  NON d   1     -54.688  18.870  -0.544  0.00  0.00     0.000 A 
ATOM     21  C10 NON d   1     -54.492  17.780  -1.397  0.00  0.00     0.001 A 
ATOM     22  C11 NON d   1     -53.213  17.255  -1.591  0.00  0.00     0.015 A 
ENDBRANCH  15  17
ENDBRANCH   9  15
BRANCH   8  23
ATOM     23  N1  NON d   1     -47.939  17.970  -2.211  0.00  0.00    -0.286 NA
ATOM     24  H11 NON d   1     -47.181  17.329  -1.979  0.00  0.00     0.125 HD
ATOM     25  H12 NON d   1     -48.305  18.370  -1.347  0.00  0.00     0.125 HD
ENDBRANCH   8  23
ENDBRANCH   1   8
BRANCH   4  26
ATOM     26  C14 NON d   1     -44.882  17.352  -4.496  0.00  0.00     0.729 A 
ATOM     27  N5  NON d   1     -44.450  16.194  -5.045  0.00  0.00    -0.067 NA
ATOM     28  C15 NON d   1     -43.190  16.194  -5.502  0.00  0.00     0.062 A 
ATOM     29  C16 NON d   1     -42.565  14.963  -6.185  0.00  0.00     0.072 C 
ATOM     30  C17 NON d   1     -42.288  17.424  -5.415  0.00  0.00     0.019 A 
ATOM     31  C18 NON d   1     -40.910  17.630  -5.878  0.00  0.00     0.023 A 
ATOM     32  C24 NON d   1     -42.842  18.562  -4.798  0.00  0.00     0.088 A 
ATOM     33  C19 NON d   1     -40.112  18.852  -5.742  0.00  0.00    -0.055 A 
ATOM     34  C20 NON d   1     -38.669  18.918  -6.278  0.00  0.00     0.049 C 
ATOM     35  C21 NON d   1     -40.736  20.083  -5.059  0.00  0.00    -0.054 A 
ATOM     36  C22 NON d   1     -39.918  21.380  -4.912  0.00  0.00     0.049 C 
ATOM     37  C23 NON d   1     -42.078  19.821  -4.644  0.00  0.00     0.040 A 
ATOM     38  N6  NON d   1     -44.116  18.482  -4.346  0.00  0.00    -0.062 NA
ENDBRANCH   4  26
TORSDOF 8
ENDMDL
