MODEL 1
REMARK VINA RESULT:   -12.493      0.000      0.000
REMARK INTER + INTRA:         -16.334
REMARK INTER:                 -15.178
REMARK INTRA:                  -1.156
REMARK CONF_INDEPENDENT:        2.685
REMARK UNBOUND:                -1.156
REMARK  9 active torsions:
REMARK  status: ('A' for Active; 'I' for Inactive)
REMARK    1  A    between atoms: O1_2  and  C2_3 
REMARK    2  A    between atoms: C2_3  and  C3_5 
REMARK    3  A    between atoms: C7_9  and  N1_10 
REMARK       I    between atoms: N1_10  and  C8_11 
REMARK    4  A    between atoms: C8_11  and  C9_13 
REMARK    5  A    between atoms: C10_14  and  C11_15 
REMARK    6  A    between atoms: C14_18  and  O4_19 
REMARK    7  A    between atoms: O4_19  and  S1_20 
REMARK    8  A    between atoms: S1_20  and  C15_23 
REMARK    9  A    between atoms: C22_30  and  O7_31 
ROOT
ATOM      1  C11 NON d   1     -42.207  17.932  -3.583  0.00  0.00    -0.033 A 
ATOM      2  C12 NON d   1     -41.417  17.671  -2.427  0.00  0.00     0.014 A 
ATOM      3  C13 NON d   1     -40.076  18.231  -2.155  0.00  0.00     0.042 A 
ATOM      4  C14 NON d   1     -39.417  19.111  -3.036  0.00  0.00     0.123 A 
ATOM      5  C22 NON d   1     -40.238  19.376  -4.231  0.00  0.00     0.103 A 
ATOM      6  C24 NON d   1     -41.566  18.796  -4.461  0.00  0.00     0.051 A 
ENDROOT
BRANCH   1   7
ATOM      7  C10 NON d   1     -43.618  17.319  -3.844  0.00  0.00     0.017 C 
ATOM      8  C9  NON d   1     -44.569  17.437  -4.839  0.00  0.00     0.075 C 
BRANCH   8   9
ATOM      9  C8  NON d   1     -45.956  16.659  -4.836  0.00  0.00     0.245 C 
ATOM     10  N1  NON d   1     -46.862  16.828  -3.731  0.00  0.00    -0.324 N 
ATOM     11  H7  NON d   1     -46.573  17.441  -2.982  0.00  0.00     0.169 HD
ATOM     12  O3  NON d   1     -46.175  15.938  -5.810  0.00  0.00    -0.268 OA
BRANCH  10  13
ATOM     13  C7  NON d   1     -48.208  16.198  -3.538  0.00  0.00     0.035 A 
ATOM     14  C6  NON d   1     -48.450  14.877  -3.915  0.00  0.00     0.029 A 
ATOM     15  C5  NON d   1     -49.716  14.268  -3.744  0.00  0.00     0.003 A 
ATOM     16  C4  NON d   1     -50.818  14.942  -3.185  0.00  0.00     0.018 A 
ATOM     17  C3  NON d   1     -50.688  16.262  -2.774  0.00  0.00     0.041 A 
ATOM     18  C25 NON d   1     -49.361  16.881  -2.960  0.00  0.00     0.047 A 
BRANCH  17  19
ATOM     19  C2  NON d   1     -51.938  16.983  -2.150  0.00  0.00     0.293 C 
ATOM     20  O2  NON d   1     -51.801  17.629  -1.116  0.00  0.00    -0.259 OA
BRANCH  19  21
ATOM     21  O1  NON d   1     -53.187  16.878  -2.810  0.00  0.00    -0.323 OA
ATOM     22  C1  NON d   1     -54.431  17.265  -1.988  0.00  0.00     0.213 C 
ENDBRANCH  19  21
ENDBRANCH  17  19
ENDBRANCH  10  13
ENDBRANCH   8   9
ENDBRANCH   1   7
BRANCH   5  23
ATOM     23  O7  NON d   1     -39.804  20.209  -5.233  0.00  0.00    -0.353 OA
ATOM     24  C23 NON d   1     -40.295  21.666  -5.319  0.00  0.00     0.210 C 
ENDBRANCH   5  23
BRANCH   4  25
ATOM     25  O4  NON d   1     -38.059  19.677  -2.752  0.00  0.00    -0.226 OA
BRANCH  25  26
ATOM     26  S1  NON d   1     -37.705  20.758  -1.714  0.00  0.00     0.303 S 
ATOM     27  O5  NON d   1     -39.119  21.160  -1.627  0.00  0.00    -0.193 OA
ATOM     28  O6  NON d   1     -36.772  21.390  -2.660  0.00  0.00    -0.193 OA
BRANCH  26  29
ATOM     29  C15 NON d   1     -37.352  21.839  -0.675  0.00  0.00     0.086 A 
ATOM     30  C16 NON d   1     -37.611  21.737   0.712  0.00  0.00     0.026 A 
ATOM     31  C17 NON d   1     -37.278  22.771   1.704  0.00  0.00     0.008 A 
ATOM     32  C18 NON d   1     -36.645  24.001   1.401  0.00  0.00    -0.062 A 
ATOM     33  C19 NON d   1     -36.291  25.082   2.440  0.00  0.00     0.048 C 
ATOM     34  C20 NON d   1     -36.404  24.129   0.022  0.00  0.00     0.008 A 
ATOM     35  C21 NON d   1     -36.734  23.098  -0.955  0.00  0.00     0.026 A 
ENDBRANCH  26  29
ENDBRANCH  25  26
ENDBRANCH   4  25
TORSDOF 9
ENDMDL
MODEL 2
REMARK VINA RESULT:   -12.097      0.765      1.514
REMARK INTER + INTRA:         -15.922
REMARK INTER:                 -14.782
REMARK INTRA:                  -1.141
REMARK CONF_INDEPENDENT:        2.685
REMARK UNBOUND:                -1.141
REMARK  9 active torsions:
REMARK  status: ('A' for Active; 'I' for Inactive)
REMARK    1  A    between atoms: O1_2  and  C2_3 
REMARK    2  A    between atoms: C2_3  and  C3_5 
REMARK    3  A    between atoms: C7_9  and  N1_10 
REMARK       I    between atoms: N1_10  and  C8_11 
REMARK    4  A    between atoms: C8_11  and  C9_13 
REMARK    5  A    between atoms: C10_14  and  C11_15 
REMARK    6  A    between atoms: C14_18  and  O4_19 
REMARK    7  A    between atoms: O4_19  and  S1_20 
REMARK    8  A    between atoms: S1_20  and  C15_23 
REMARK    9  A    between atoms: C22_30  and  O7_31 
ROOT
ATOM      1  C11 NON d   1     -42.282  18.135  -3.717  0.00  0.00    -0.033 A 
ATOM      2  C12 NON d   1     -41.935  19.429  -4.201  0.00  0.00     0.014 A 
ATOM      3  C13 NON d   1     -40.635  20.104  -3.999  0.00  0.00     0.042 A 
ATOM      4  C14 NON d   1     -39.569  19.521  -3.287  0.00  0.00     0.123 A 
ATOM      5  C22 NON d   1     -39.934  18.183  -2.787  0.00  0.00     0.103 A 
ATOM      6  C24 NON d   1     -41.239  17.552  -3.010  0.00  0.00     0.051 A 
ENDROOT
BRANCH   1   7
ATOM      7  C10 NON d   1     -43.667  17.451  -3.942  0.00  0.00     0.017 C 
ATOM      8  C9  NON d   1     -44.586  17.413  -4.973  0.00  0.00     0.075 C 
BRANCH   8   9
ATOM      9  C8  NON d   1     -45.951  16.600  -4.913  0.00  0.00     0.245 C 
ATOM     10  N1  NON d   1     -46.884  16.856  -3.850  0.00  0.00    -0.324 N 
ATOM     11  H7  NON d   1     -46.628  17.553  -3.163  0.00  0.00     0.169 HD
ATOM     12  O3  NON d   1     -46.129  15.776  -5.810  0.00  0.00    -0.268 OA
BRANCH  10  13
ATOM     13  C7  NON d   1     -48.217  16.212  -3.617  0.00  0.00     0.035 A 
ATOM     14  C6  NON d   1     -48.446  14.879  -3.959  0.00  0.00     0.029 A 
ATOM     15  C5  NON d   1     -49.699  14.255  -3.750  0.00  0.00     0.003 A 
ATOM     16  C4  NON d   1     -50.800  14.925  -3.185  0.00  0.00     0.018 A 
ATOM     17  C3  NON d   1     -50.682  16.256  -2.805  0.00  0.00     0.041 A 
ATOM     18  C25 NON d   1     -49.368  16.890  -3.031  0.00  0.00     0.047 A 
BRANCH  17  19
ATOM     19  C2  NON d   1     -51.931  16.973  -2.174  0.00  0.00     0.293 C 
ATOM     20  O2  NON d   1     -51.786  17.639  -1.154  0.00  0.00    -0.259 OA
BRANCH  19  21
ATOM     21  O1  NON d   1     -53.189  16.840  -2.810  0.00  0.00    -0.323 OA
ATOM     22  C1  NON d   1     -54.421  17.264  -1.989  0.00  0.00     0.213 C 
ENDBRANCH  19  21
ENDBRANCH  17  19
ENDBRANCH  10  13
ENDBRANCH   8   9
ENDBRANCH   1   7
BRANCH   5  23
ATOM     23  O7  NON d   1     -39.051  17.419  -2.064  0.00  0.00    -0.353 OA
ATOM     24  C23 NON d   1     -37.537  17.493  -2.332  0.00  0.00     0.210 C 
ENDBRANCH   5  23
BRANCH   4  25
ATOM     25  O4  NON d   1     -38.252  20.211  -3.090  0.00  0.00    -0.226 OA
BRANCH  25  26
ATOM     26  S1  NON d   1     -37.898  21.233  -1.993  0.00  0.00     0.303 S 
ATOM     27  O5  NON d   1     -39.185  20.984  -1.323  0.00  0.00    -0.193 OA
ATOM     28  O6  NON d   1     -37.737  22.291  -3.004  0.00  0.00    -0.193 OA
BRANCH  26  29
ATOM     29  C15 NON d   1     -37.544  22.255  -0.897  0.00  0.00     0.086 A 
ATOM     30  C16 NON d   1     -37.925  22.142   0.461  0.00  0.00     0.026 A 
ATOM     31  C17 NON d   1     -37.591  23.121   1.508  0.00  0.00     0.008 A 
ATOM     32  C18 NON d   1     -36.835  24.299   1.295  0.00  0.00    -0.062 A 
ATOM     33  C19 NON d   1     -36.481  25.321   2.392  0.00  0.00     0.048 C 
ATOM     34  C20 NON d   1     -36.472  24.439  -0.056  0.00  0.00     0.008 A 
ATOM     35  C21 NON d   1     -36.804  23.463  -1.087  0.00  0.00     0.026 A 
ENDBRANCH  26  29
ENDBRANCH  25  26
ENDBRANCH   4  25
TORSDOF 9
ENDMDL
MODEL 3
REMARK VINA RESULT:   -11.766      1.681      2.127
REMARK INTER + INTRA:         -15.616
REMARK INTER:                 -14.451
REMARK INTRA:                  -1.166
REMARK CONF_INDEPENDENT:        2.685
REMARK UNBOUND:                -1.166
REMARK  9 active torsions:
REMARK  status: ('A' for Active; 'I' for Inactive)
REMARK    1  A    between atoms: O1_2  and  C2_3 
REMARK    2  A    between atoms: C2_3  and  C3_5 
REMARK    3  A    between atoms: C7_9  and  N1_10 
REMARK       I    between atoms: N1_10  and  C8_11 
REMARK    4  A    between atoms: C8_11  and  C9_13 
REMARK    5  A    between atoms: C10_14  and  C11_15 
REMARK    6  A    between atoms: C14_18  and  O4_19 
REMARK    7  A    between atoms: O4_19  and  S1_20 
REMARK    8  A    between atoms: S1_20  and  C15_23 
REMARK    9  A    between atoms: C22_30  and  O7_31 
ROOT
ATOM      1  C11 NON d   1     -42.456  17.826  -3.887  0.00  0.00    -0.033 A 
ATOM      2  C12 NON d   1     -41.673  17.725  -2.701  0.00  0.00     0.014 A 
ATOM      3  C13 NON d   1     -40.331  18.313  -2.501  0.00  0.00     0.042 A 
ATOM      4  C14 NON d   1     -39.664  19.060  -3.492  0.00  0.00     0.123 A 
ATOM      5  C22 NON d   1     -40.478  19.160  -4.717  0.00  0.00     0.103 A 
ATOM      6  C24 NON d   1     -41.806  18.558  -4.872  0.00  0.00     0.051 A 
ENDROOT
BRANCH   1   7
ATOM      7  C10 NON d   1     -43.868  17.188  -4.069  0.00  0.00     0.017 C 
ATOM      8  C9  NON d   1     -44.830  17.203  -5.060  0.00  0.00     0.075 C 
BRANCH   8   9
ATOM      9  C8  NON d   1     -46.215  16.427  -4.963  0.00  0.00     0.245 C 
ATOM     10  N1  NON d   1     -47.150  16.772  -3.926  0.00  0.00    -0.324 N 
ATOM     11  H7  NON d   1     -46.882  17.503  -3.283  0.00  0.00     0.169 HD
ATOM     12  O3  NON d   1     -46.406  15.552  -5.808  0.00  0.00    -0.268 OA
BRANCH  10  13
ATOM     13  C7  NON d   1     -48.499  16.174  -3.666  0.00  0.00     0.035 A 
ATOM     14  C6  NON d   1     -48.795  14.864  -4.040  0.00  0.00     0.029 A 
ATOM     15  C5  NON d   1     -50.066  14.285  -3.805  0.00  0.00     0.003 A 
ATOM     16  C4  NON d   1     -51.118  14.980  -3.182  0.00  0.00     0.018 A 
ATOM     17  C3  NON d   1     -50.932  16.293  -2.767  0.00  0.00     0.041 A 
ATOM     18  C25 NON d   1     -49.601  16.880  -3.020  0.00  0.00     0.047 A 
BRANCH  17  19
ATOM     19  C2  NON d   1     -52.127  17.039  -2.070  0.00  0.00     0.293 C 
ATOM     20  O2  NON d   1     -51.914  17.692  -1.054  0.00  0.00    -0.259 OA
BRANCH  19  21
ATOM     21  O1  NON d   1     -53.418  16.946  -2.645  0.00  0.00    -0.323 OA
ATOM     22  C1  NON d   1     -54.568  17.602  -1.857  0.00  0.00     0.213 C 
ENDBRANCH  19  21
ENDBRANCH  17  19
ENDBRANCH  10  13
ENDBRANCH   8   9
ENDBRANCH   1   7
BRANCH   5  23
ATOM     23  O7  NON d   1     -40.034  19.845  -5.822  0.00  0.00    -0.353 OA
ATOM     24  C23 NON d   1     -40.017  19.179  -7.211  0.00  0.00     0.210 C 
ENDBRANCH   5  23
BRANCH   4  25
ATOM     25  O4  NON d   1     -38.305  19.656  -3.281  0.00  0.00    -0.226 OA
BRANCH  25  26
ATOM     26  S1  NON d   1     -37.951  21.153  -3.210  0.00  0.00     0.303 S 
ATOM     27  O5  NON d   1     -39.371  21.496  -3.029  0.00  0.00    -0.193 OA
ATOM     28  O6  NON d   1     -37.328  21.089  -4.542  0.00  0.00    -0.193 OA
BRANCH  26  29
ATOM     29  C15 NON d   1     -37.597  22.650  -3.139  0.00  0.00     0.086 A 
ATOM     30  C16 NON d   1     -38.202  23.657  -3.928  0.00  0.00     0.026 A 
ATOM     31  C17 NON d   1     -37.861  25.087  -3.865  0.00  0.00     0.008 A 
ATOM     32  C18 NON d   1     -36.889  25.644  -2.998  0.00  0.00    -0.062 A 
ATOM     33  C19 NON d   1     -36.535  27.141  -2.928  0.00  0.00     0.048 C 
ATOM     34  C20 NON d   1     -36.260  24.651  -2.226  0.00  0.00     0.008 A 
ATOM     35  C21 NON d   1     -36.606  23.237  -2.293  0.00  0.00     0.026 A 
ENDBRANCH  26  29
ENDBRANCH  25  26
ENDBRANCH   4  25
TORSDOF 9
ENDMDL
MODEL 4
REMARK VINA RESULT:   -11.346      3.344      5.118
REMARK INTER + INTRA:         -15.041
REMARK INTER:                 -14.030
REMARK INTRA:                  -1.010
REMARK CONF_INDEPENDENT:        2.685
REMARK UNBOUND:                -1.010
REMARK  9 active torsions:
REMARK  status: ('A' for Active; 'I' for Inactive)
REMARK    1  A    between atoms: O1_2  and  C2_3 
REMARK    2  A    between atoms: C2_3  and  C3_5 
REMARK    3  A    between atoms: C7_9  and  N1_10 
REMARK       I    between atoms: N1_10  and  C8_11 
REMARK    4  A    between atoms: C8_11  and  C9_13 
REMARK    5  A    between atoms: C10_14  and  C11_15 
REMARK    6  A    between atoms: C14_18  and  O4_19 
REMARK    7  A    between atoms: O4_19  and  S1_20 
REMARK    8  A    between atoms: S1_20  and  C15_23 
REMARK    9  A    between atoms: C22_30  and  O7_31 
ROOT
ATOM      1  C11 NON d   1     -42.580  18.796  -5.130  0.00  0.00    -0.033 A 
ATOM      2  C12 NON d   1     -42.186  19.674  -6.180  0.00  0.00     0.014 A 
ATOM      3  C13 NON d   1     -40.890  20.381  -6.271  0.00  0.00     0.042 A 
ATOM      4  C14 NON d   1     -39.876  20.256  -5.301  0.00  0.00     0.123 A 
ATOM      5  C22 NON d   1     -40.290  19.348  -4.216  0.00  0.00     0.103 A 
ATOM      6  C24 NON d   1     -41.589  18.668  -4.165  0.00  0.00     0.051 A 
ENDROOT
BRANCH   1   7
ATOM      7  C10 NON d   1     -43.959  18.069  -5.059  0.00  0.00     0.017 C 
ATOM      8  C9  NON d   1     -44.565  17.203  -4.170  0.00  0.00     0.075 C 
BRANCH   8   9
ATOM      9  C8  NON d   1     -46.029  16.612  -4.367  0.00  0.00     0.245 C 
ATOM     10  N1  NON d   1     -46.921  16.537  -3.242  0.00  0.00    -0.324 N 
ATOM     11  H7  NON d   1     -46.574  16.863  -2.351  0.00  0.00     0.169 HD
ATOM     12  O3  NON d   1     -46.314  16.243  -5.507  0.00  0.00    -0.268 OA
BRANCH  10  13
ATOM     13  C7  NON d   1     -48.329  16.025  -3.215  0.00  0.00     0.035 A 
ATOM     14  C6  NON d   1     -48.650  14.763  -3.713  0.00  0.00     0.029 A 
ATOM     15  C5  NON d   1     -49.976  14.265  -3.699  0.00  0.00     0.003 A 
ATOM     16  C4  NON d   1     -51.060  14.998  -3.185  0.00  0.00     0.018 A 
ATOM     17  C3  NON d   1     -50.854  16.268  -2.661  0.00  0.00     0.041 A 
ATOM     18  C25 NON d   1     -49.466  16.771  -2.684  0.00  0.00     0.047 A 
BRANCH  17  19
ATOM     19  C2  NON d   1     -52.088  17.058  -2.091  0.00  0.00     0.293 C 
ATOM     20  O2  NON d   1     -51.960  17.696  -1.051  0.00  0.00    -0.259 OA
BRANCH  19  21
ATOM     21  O1  NON d   1     -53.311  17.022  -2.804  0.00  0.00    -0.323 OA
ATOM     22  C1  NON d   1     -54.565  17.483  -2.038  0.00  0.00     0.213 C 
ENDBRANCH  19  21
ENDBRANCH  17  19
ENDBRANCH  10  13
ENDBRANCH   8   9
ENDBRANCH   1   7
BRANCH   5  23
ATOM     23  O7  NON d   1     -39.463  19.069  -3.155  0.00  0.00    -0.353 OA
ATOM     24  C23 NON d   1     -39.889  18.073  -2.061  0.00  0.00     0.210 C 
ENDBRANCH   5  23
BRANCH   4  25
ATOM     25  O4  NON d   1     -38.564  20.974  -5.403  0.00  0.00    -0.226 OA
BRANCH  25  26
ATOM     26  S1  NON d   1     -38.098  21.894  -6.546  0.00  0.00     0.303 S 
ATOM     27  O5  NON d   1     -39.209  22.821  -6.274  0.00  0.00    -0.193 OA
ATOM     28  O6  NON d   1     -38.223  20.791  -7.512  0.00  0.00    -0.193 OA
BRANCH  26  29
ATOM     29  C15 NON d   1     -37.633  22.815  -7.690  0.00  0.00     0.086 A 
ATOM     30  C16 NON d   1     -36.768  23.922  -7.529  0.00  0.00     0.026 A 
ATOM     31  C17 NON d   1     -36.326  24.805  -8.621  0.00  0.00     0.008 A 
ATOM     32  C18 NON d   1     -36.702  24.656  -9.977  0.00  0.00    -0.062 A 
ATOM     33  C19 NON d   1     -36.237  25.576 -11.121  0.00  0.00     0.048 C 
ATOM     34  C20 NON d   1     -37.584  23.574 -10.150  0.00  0.00     0.008 A 
ATOM     35  C21 NON d   1     -38.014  22.702  -9.063  0.00  0.00     0.026 A 
ENDBRANCH  26  29
ENDBRANCH  25  26
ENDBRANCH   4  25
TORSDOF 9
ENDMDL
MODEL 5
REMARK VINA RESULT:   -11.122      2.839      4.742
REMARK INTER + INTRA:         -14.855
REMARK INTER:                 -13.807
REMARK INTRA:                  -1.048
REMARK CONF_INDEPENDENT:        2.685
REMARK UNBOUND:                -1.048
REMARK  9 active torsions:
REMARK  status: ('A' for Active; 'I' for Inactive)
REMARK    1  A    between atoms: O1_2  and  C2_3 
REMARK    2  A    between atoms: C2_3  and  C3_5 
REMARK    3  A    between atoms: C7_9  and  N1_10 
REMARK       I    between atoms: N1_10  and  C8_11 
REMARK    4  A    between atoms: C8_11  and  C9_13 
REMARK    5  A    between atoms: C10_14  and  C11_15 
REMARK    6  A    between atoms: C14_18  and  O4_19 
REMARK    7  A    between atoms: O4_19  and  S1_20 
REMARK    8  A    between atoms: S1_20  and  C15_23 
REMARK    9  A    between atoms: C22_30  and  O7_31 
ROOT
ATOM      1  C11 NON d   1     -42.585  18.751  -5.041  0.00  0.00    -0.033 A 
ATOM      2  C12 NON d   1     -42.119  19.509  -6.153  0.00  0.00     0.014 A 
ATOM      3  C13 NON d   1     -40.820  20.210  -6.234  0.00  0.00     0.042 A 
ATOM      4  C14 NON d   1     -39.875  20.201  -5.190  0.00  0.00     0.123 A 
ATOM      5  C22 NON d   1     -40.363  19.417  -4.041  0.00  0.00     0.103 A 
ATOM      6  C24 NON d   1     -41.663  18.738  -4.002  0.00  0.00     0.051 A 
ENDROOT
BRANCH   1   7
ATOM      7  C10 NON d   1     -43.966  18.027  -4.983  0.00  0.00     0.017 C 
ATOM      8  C9  NON d   1     -44.582  17.159  -4.102  0.00  0.00     0.075 C 
BRANCH   8   9
ATOM      9  C8  NON d   1     -46.045  16.573  -4.312  0.00  0.00     0.245 C 
ATOM     10  N1  NON d   1     -46.956  16.522  -3.201  0.00  0.00    -0.324 N 
ATOM     11  H7  NON d   1     -46.622  16.861  -2.309  0.00  0.00     0.169 HD
ATOM     12  O3  NON d   1     -46.314  16.186  -5.450  0.00  0.00    -0.268 OA
BRANCH  10  13
ATOM     13  C7  NON d   1     -48.367  16.018  -3.187  0.00  0.00     0.035 A 
ATOM     14  C6  NON d   1     -48.687  14.751  -3.675  0.00  0.00     0.029 A 
ATOM     15  C5  NON d   1     -50.016  14.260  -3.673  0.00  0.00     0.003 A 
ATOM     16  C4  NON d   1     -51.104  15.005  -3.184  0.00  0.00     0.018 A 
ATOM     17  C3  NON d   1     -50.898  16.281  -2.674  0.00  0.00     0.041 A 
ATOM     18  C25 NON d   1     -49.507  16.776  -2.683  0.00  0.00     0.047 A 
BRANCH  17  19
ATOM     19  C2  NON d   1     -52.136  17.084  -2.132  0.00  0.00     0.293 C 
ATOM     20  O2  NON d   1     -53.242  16.881  -2.624  0.00  0.00    -0.259 OA
BRANCH  19  21
ATOM     21  O1  NON d   1     -51.942  18.012  -1.081  0.00  0.00    -0.323 OA
ATOM     22  C1  NON d   1     -53.136  18.237  -0.134  0.00  0.00     0.213 C 
ENDBRANCH  19  21
ENDBRANCH  17  19
ENDBRANCH  10  13
ENDBRANCH   8   9
ENDBRANCH   1   7
BRANCH   5  23
ATOM     23  O7  NON d   1     -39.610  19.264  -2.902  0.00  0.00    -0.353 OA
ATOM     24  C23 NON d   1     -39.709  20.278  -1.747  0.00  0.00     0.210 C 
ENDBRANCH   5  23
BRANCH   4  25
ATOM     25  O4  NON d   1     -38.558  20.912  -5.281  0.00  0.00    -0.226 OA
BRANCH  25  26
ATOM     26  S1  NON d   1     -38.223  22.129  -6.163  0.00  0.00     0.303 S 
ATOM     27  O5  NON d   1     -36.882  22.216  -5.561  0.00  0.00    -0.193 OA
ATOM     28  O6  NON d   1     -39.372  22.867  -5.615  0.00  0.00    -0.193 OA
BRANCH  26  29
ATOM     29  C15 NON d   1     -37.888  23.347  -7.044  0.00  0.00     0.086 A 
ATOM     30  C16 NON d   1     -38.502  23.635  -8.285  0.00  0.00     0.026 A 
ATOM     31  C17 NON d   1     -38.179  24.796  -9.130  0.00  0.00     0.008 A 
ATOM     32  C18 NON d   1     -37.218  25.782  -8.806  0.00  0.00    -0.062 A 
ATOM     33  C19 NON d   1     -36.882  27.000  -9.687  0.00  0.00     0.048 C 
ATOM     34  C20 NON d   1     -36.578  25.496  -7.587  0.00  0.00     0.008 A 
ATOM     35  C21 NON d   1     -36.907  24.346  -6.754  0.00  0.00     0.026 A 
ENDBRANCH  26  29
ENDBRANCH  25  26
ENDBRANCH   4  25
TORSDOF 9
ENDMDL
MODEL 6
REMARK VINA RESULT:   -11.003      1.576      2.213
REMARK INTER + INTRA:         -14.851
REMARK INTER:                 -13.688
REMARK INTRA:                  -1.163
REMARK CONF_INDEPENDENT:        2.685
REMARK UNBOUND:                -1.163
REMARK  9 active torsions:
REMARK  status: ('A' for Active; 'I' for Inactive)
REMARK    1  A    between atoms: O1_2  and  C2_3 
REMARK    2  A    between atoms: C2_3  and  C3_5 
REMARK    3  A    between atoms: C7_9  and  N1_10 
REMARK       I    between atoms: N1_10  and  C8_11 
REMARK    4  A    between atoms: C8_11  and  C9_13 
REMARK    5  A    between atoms: C10_14  and  C11_15 
REMARK    6  A    between atoms: C14_18  and  O4_19 
REMARK    7  A    between atoms: O4_19  and  S1_20 
REMARK    8  A    between atoms: S1_20  and  C15_23 
REMARK    9  A    between atoms: C22_30  and  O7_31 
ROOT
ATOM      1  C11 NON d   1     -42.983  18.379  -4.177  0.00  0.00    -0.033 A 
ATOM      2  C12 NON d   1     -42.572  19.444  -5.030  0.00  0.00     0.014 A 
ATOM      3  C13 NON d   1     -41.278  20.157  -4.955  0.00  0.00     0.042 A 
ATOM      4  C14 NON d   1     -40.285  19.850  -4.005  0.00  0.00     0.123 A 
ATOM      5  C22 NON d   1     -40.716  18.750  -3.124  0.00  0.00     0.103 A 
ATOM      6  C24 NON d   1     -42.012  18.070  -3.233  0.00  0.00     0.051 A 
ENDROOT
BRANCH   1   7
ATOM      7  C10 NON d   1     -44.358  17.650  -4.278  0.00  0.00     0.017 C 
ATOM      8  C9  NON d   1     -44.888  16.664  -5.087  0.00  0.00     0.075 C 
BRANCH   8   9
ATOM      9  C8  NON d   1     -46.368  16.100  -4.944  0.00  0.00     0.245 C 
ATOM     10  N1  NON d   1     -47.150  16.444  -3.788  0.00  0.00    -0.324 N 
ATOM     11  H7  NON d   1     -46.718  17.038  -3.094  0.00  0.00     0.169 HD
ATOM     12  O3  NON d   1     -46.764  15.380  -5.862  0.00  0.00    -0.268 OA
BRANCH  10  13
ATOM     13  C7  NON d   1     -48.554  16.028  -3.467  0.00  0.00     0.035 A 
ATOM     14  C6  NON d   1     -49.045  14.781  -3.852  0.00  0.00     0.029 A 
ATOM     15  C5  NON d   1     -50.369  14.373  -3.560  0.00  0.00     0.003 A 
ATOM     16  C4  NON d   1     -51.283  15.187  -2.866  0.00  0.00     0.018 A 
ATOM     17  C3  NON d   1     -50.898  16.450  -2.434  0.00  0.00     0.041 A 
ATOM     18  C25 NON d   1     -49.514  16.858  -2.747  0.00  0.00     0.047 A 
BRANCH  17  19
ATOM     19  C2  NON d   1     -51.943  17.331  -1.658  0.00  0.00     0.293 C 
ATOM     20  O2  NON d   1     -51.566  18.005  -0.705  0.00  0.00    -0.259 OA
BRANCH  19  21
ATOM     21  O1  NON d   1     -53.291  17.333  -2.091  0.00  0.00    -0.323 OA
ATOM     22  C1  NON d   1     -54.313  17.996  -1.148  0.00  0.00     0.213 C 
ENDBRANCH  19  21
ENDBRANCH  17  19
ENDBRANCH  10  13
ENDBRANCH   8   9
ENDBRANCH   1   7
BRANCH   5  23
ATOM     23  O7  NON d   1     -39.910  18.274  -2.119  0.00  0.00    -0.353 OA
ATOM     24  C23 NON d   1     -38.538  17.650  -2.434  0.00  0.00     0.210 C 
ENDBRANCH   5  23
BRANCH   4  25
ATOM     25  O4  NON d   1     -38.975  20.577  -3.938  0.00  0.00    -0.226 OA
BRANCH  25  26
ATOM     26  S1  NON d   1     -38.668  21.859  -3.143  0.00  0.00     0.303 S 
ATOM     27  O5  NON d   1     -38.917  21.153  -1.876  0.00  0.00    -0.193 OA
ATOM     28  O6  NON d   1     -39.734  22.581  -3.856  0.00  0.00    -0.193 OA
BRANCH  26  29
ATOM     29  C15 NON d   1     -38.360  23.142  -2.349  0.00  0.00     0.086 A 
ATOM     30  C16 NON d   1     -37.059  23.603  -2.037  0.00  0.00     0.026 A 
ATOM     31  C17 NON d   1     -36.765  24.826  -1.274  0.00  0.00     0.008 A 
ATOM     32  C18 NON d   1     -37.746  25.708  -0.759  0.00  0.00    -0.062 A 
ATOM     33  C19 NON d   1     -37.438  26.991   0.036  0.00  0.00     0.048 C 
ATOM     34  C20 NON d   1     -39.046  25.249  -1.037  0.00  0.00     0.008 A 
ATOM     35  C21 NON d   1     -39.329  24.038  -1.798  0.00  0.00     0.026 A 
ENDBRANCH  26  29
ENDBRANCH  25  26
ENDBRANCH   4  25
TORSDOF 9
ENDMDL
MODEL 7
REMARK VINA RESULT:   -10.873      3.773     12.474
REMARK INTER + INTRA:         -14.587
REMARK INTER:                 -13.558
REMARK INTRA:                  -1.029
REMARK CONF_INDEPENDENT:        2.685
REMARK UNBOUND:                -1.029
REMARK  9 active torsions:
REMARK  status: ('A' for Active; 'I' for Inactive)
REMARK    1  A    between atoms: O1_2  and  C2_3 
REMARK    2  A    between atoms: C2_3  and  C3_5 
REMARK    3  A    between atoms: C7_9  and  N1_10 
REMARK       I    between atoms: N1_10  and  C8_11 
REMARK    4  A    between atoms: C8_11  and  C9_13 
REMARK    5  A    between atoms: C10_14  and  C11_15 
REMARK    6  A    between atoms: C14_18  and  O4_19 
REMARK    7  A    between atoms: O4_19  and  S1_20 
REMARK    8  A    between atoms: S1_20  and  C15_23 
REMARK    9  A    between atoms: C22_30  and  O7_31 
ROOT
ATOM      1  C11 NON d   1     -40.950  20.265  -4.127  0.00  0.00    -0.033 A 
ATOM      2  C12 NON d   1     -41.950  20.226  -5.140  0.00  0.00     0.014 A 
ATOM      3  C13 NON d   1     -42.849  19.086  -5.421  0.00  0.00     0.042 A 
ATOM      4  C14 NON d   1     -42.812  17.880  -4.693  0.00  0.00     0.123 A 
ATOM      5  C22 NON d   1     -41.774  17.925  -3.647  0.00  0.00     0.103 A 
ATOM      6  C24 NON d   1     -40.901  19.079  -3.405  0.00  0.00     0.051 A 
ENDROOT
BRANCH   1   7
ATOM      7  C10 NON d   1     -40.011  21.482  -3.860  0.00  0.00     0.017 C 
ATOM      8  C9  NON d   1     -39.210  22.292  -4.641  0.00  0.00     0.075 C 
BRANCH   8   9
ATOM      9  C8  NON d   1     -38.344  23.498  -4.070  0.00  0.00     0.245 C 
ATOM     10  N1  NON d   1     -38.611  24.001  -2.750  0.00  0.00    -0.324 N 
ATOM     11  H7  NON d   1     -39.358  23.564  -2.228  0.00  0.00     0.169 HD
ATOM     12  O3  NON d   1     -37.472  23.940  -4.819  0.00  0.00    -0.268 OA
BRANCH  10  13
ATOM     13  C7  NON d   1     -37.914  25.115  -2.029  0.00  0.00     0.035 A 
ATOM     14  C6  NON d   1     -37.132  26.043  -2.716  0.00  0.00     0.029 A 
ATOM     15  C5  NON d   1     -36.463  27.099  -2.050  0.00  0.00     0.003 A 
ATOM     16  C4  NON d   1     -36.537  27.291  -0.658  0.00  0.00     0.018 A 
ATOM     17  C3  NON d   1     -37.290  26.425   0.123  0.00  0.00     0.041 A 
ATOM     18  C25 NON d   1     -37.980  25.330  -0.587  0.00  0.00     0.047 A 
BRANCH  17  19
ATOM     19  C2  NON d   1     -37.353  26.671   1.675  0.00  0.00     0.293 C 
ATOM     20  O2  NON d   1     -36.472  27.336   2.210  0.00  0.00    -0.259 OA
BRANCH  19  21
ATOM     21  O1  NON d   1     -38.436  26.129   2.409  0.00  0.00    -0.323 OA
ATOM     22  C1  NON d   1     -38.408  24.609   2.651  0.00  0.00     0.213 C 
ENDBRANCH  19  21
ENDBRANCH  17  19
ENDBRANCH  10  13
ENDBRANCH   8   9
ENDBRANCH   1   7
BRANCH   5  23
ATOM     23  O7  NON d   1     -41.551  16.861  -2.807  0.00  0.00    -0.353 OA
ATOM     24  C23 NON d   1     -40.429  16.907  -1.754  0.00  0.00     0.210 C 
ENDBRANCH   5  23
BRANCH   4  25
ATOM     25  O4  NON d   1     -43.729  16.730  -4.981  0.00  0.00    -0.226 OA
BRANCH  25  26
ATOM     26  S1  NON d   1     -45.184  16.564  -4.504  0.00  0.00     0.303 S 
ATOM     27  O5  NON d   1     -45.565  16.002  -5.810  0.00  0.00    -0.193 OA
ATOM     28  O6  NON d   1     -45.276  18.005  -4.219  0.00  0.00    -0.193 OA
BRANCH  26  29
ATOM     29  C15 NON d   1     -46.638  16.398  -4.027  0.00  0.00     0.086 A 
ATOM     30  C16 NON d   1     -47.648  15.718  -4.747  0.00  0.00     0.026 A 
ATOM     31  C17 NON d   1     -49.040  15.563  -4.294  0.00  0.00     0.008 A 
ATOM     32  C18 NON d   1     -49.548  16.065  -3.072  0.00  0.00    -0.062 A 
ATOM     33  C19 NON d   1     -51.002  15.899  -2.595  0.00  0.00     0.048 C 
ATOM     34  C20 NON d   1     -48.562  16.767  -2.355  0.00  0.00     0.008 A 
ATOM     35  C21 NON d   1     -47.184  16.913  -2.810  0.00  0.00     0.026 A 
ENDBRANCH  26  29
ENDBRANCH  25  26
ENDBRANCH   4  25
TORSDOF 9
ENDMDL
MODEL 8
REMARK VINA RESULT:   -10.280      5.273     12.725
REMARK INTER + INTRA:         -14.030
REMARK INTER:                 -12.965
REMARK INTRA:                  -1.065
REMARK CONF_INDEPENDENT:        2.685
REMARK UNBOUND:                -1.065
REMARK  9 active torsions:
REMARK  status: ('A' for Active; 'I' for Inactive)
REMARK    1  A    between atoms: O1_2  and  C2_3 
REMARK    2  A    between atoms: C2_3  and  C3_5 
REMARK    3  A    between atoms: C7_9  and  N1_10 
REMARK       I    between atoms: N1_10  and  C8_11 
REMARK    4  A    between atoms: C8_11  and  C9_13 
REMARK    5  A    between atoms: C10_14  and  C11_15 
REMARK    6  A    between atoms: C14_18  and  O4_19 
REMARK    7  A    between atoms: O4_19  and  S1_20 
REMARK    8  A    between atoms: S1_20  and  C15_23 
REMARK    9  A    between atoms: C22_30  and  O7_31 
ROOT
ATOM      1  C11 NON d   1     -45.114  17.566  -4.686  0.00  0.00    -0.033 A 
ATOM      2  C12 NON d   1     -45.512  17.630  -3.320  0.00  0.00     0.014 A 
ATOM      3  C13 NON d   1     -46.690  16.955  -2.734  0.00  0.00     0.042 A 
ATOM      4  C14 NON d   1     -47.570  16.152  -3.486  0.00  0.00     0.123 A 
ATOM      5  C22 NON d   1     -47.155  16.092  -4.899  0.00  0.00     0.103 A 
ATOM      6  C24 NON d   1     -45.977  16.780  -5.439  0.00  0.00     0.051 A 
ENDROOT
BRANCH   1   7
ATOM      7  C10 NON d   1     -43.868  18.296  -5.277  0.00  0.00     0.017 C 
ATOM      8  C9  NON d   1     -42.561  18.488  -4.872  0.00  0.00     0.075 C 
BRANCH   8   9
ATOM      9  C8  NON d   1     -41.482  19.297  -5.714  0.00  0.00     0.245 C 
ATOM     10  N1  NON d   1     -40.716  18.620  -6.725  0.00  0.00    -0.324 N 
ATOM     11  H7  NON d   1     -40.893  17.634  -6.859  0.00  0.00     0.169 HD
ATOM     12  O3  NON d   1     -41.365  20.492  -5.437  0.00  0.00    -0.268 OA
BRANCH  10  13
ATOM     13  C7  NON d   1     -39.665  19.194  -7.625  0.00  0.00     0.035 A 
ATOM     14  C6  NON d   1     -38.385  18.644  -7.686  0.00  0.00     0.029 A 
ATOM     15  C5  NON d   1     -37.379  19.176  -8.528  0.00  0.00     0.003 A 
ATOM     16  C4  NON d   1     -37.591  20.289  -9.361  0.00  0.00     0.018 A 
ATOM     17  C3  NON d   1     -38.831  20.915  -9.381  0.00  0.00     0.041 A 
ATOM     18  C25 NON d   1     -39.868  20.347  -8.497  0.00  0.00     0.047 A 
BRANCH  17  19
ATOM     19  C2  NON d   1     -39.034  22.154 -10.326  0.00  0.00     0.293 C 
ATOM     20  O2  NON d   1     -38.878  23.284  -9.873  0.00  0.00    -0.259 OA
BRANCH  19  21
ATOM     21  O1  NON d   1     -39.381  21.931 -11.681  0.00  0.00    -0.323 OA
ATOM     22  C1  NON d   1     -39.851  23.161 -12.481  0.00  0.00     0.213 C 
ENDBRANCH  19  21
ENDBRANCH  17  19
ENDBRANCH  10  13
ENDBRANCH   8   9
ENDBRANCH   1   7
BRANCH   5  23
ATOM     23  O7  NON d   1     -47.860  15.364  -5.826  0.00  0.00    -0.353 OA
ATOM     24  C23 NON d   1     -49.156  14.630  -5.435  0.00  0.00     0.210 C 
ENDBRANCH   5  23
BRANCH   4  25
ATOM     25  O4  NON d   1     -48.760  15.469  -2.882  0.00  0.00    -0.226 OA
BRANCH  25  26
ATOM     26  S1  NON d   1     -50.060  16.135  -2.392  0.00  0.00     0.303 S 
ATOM     27  O5  NON d   1     -50.060  17.032  -3.560  0.00  0.00    -0.193 OA
ATOM     28  O6  NON d   1     -49.414  16.508  -1.123  0.00  0.00    -0.193 OA
BRANCH  26  29
ATOM     29  C15 NON d   1     -51.359  16.801  -1.902  0.00  0.00     0.086 A 
ATOM     30  C16 NON d   1     -51.441  17.697  -0.811  0.00  0.00     0.026 A 
ATOM     31  C17 NON d   1     -52.683  18.330  -0.339  0.00  0.00     0.008 A 
ATOM     32  C18 NON d   1     -53.958  18.132  -0.922  0.00  0.00    -0.062 A 
ATOM     33  C19 NON d   1     -55.257  18.797  -0.432  0.00  0.00     0.048 C 
ATOM     34  C20 NON d   1     -53.897  17.221  -1.993  0.00  0.00     0.008 A 
ATOM     35  C21 NON d   1     -52.662  16.601  -2.456  0.00  0.00     0.026 A 
ENDBRANCH  26  29
ENDBRANCH  25  26
ENDBRANCH   4  25
TORSDOF 9
ENDMDL
