MODEL 1
REMARK VINA RESULT:    -9.525      0.000      0.000
REMARK INTER + INTRA:         -12.614
REMARK INTER:                 -11.017
REMARK INTRA:                  -1.597
REMARK CONF_INDEPENDENT:        1.492
REMARK UNBOUND:                -1.597
REMARK  5 active torsions:
REMARK  status: ('A' for Active; 'I' for Inactive)
REMARK       I    between atoms: C1_2  and  N1_3 
REMARK       I    between atoms: C1_2  and  N2_18 
REMARK    1  A    between atoms: N1_3  and  C2_4 
REMARK    2  A    between atoms: C7_9  and  O2_10 
REMARK    3  A    between atoms: O2_10  and  C8_11 
REMARK    4  A    between atoms: C8_11  and  C9_12 
REMARK    5  A    between atoms: N2_18  and  C15_19 
ROOT
ATOM      1  C2  NON d   1     -41.752  18.558  -4.095  0.00  0.00     0.069 A 
ATOM      2  C3  NON d   1     -41.285  17.672  -3.110  0.00  0.00     0.032 A 
ATOM      3  C4  NON d   1     -39.986  17.765  -2.614  0.00  0.00     0.002 A 
ATOM      4  C5  NON d   1     -39.137  18.749  -3.095  0.00  0.00     0.003 A 
ATOM      5  C6  NON d   1     -39.589  19.646  -4.065  0.00  0.00     0.039 A 
ATOM      6  C7  NON d   1     -40.899  19.573  -4.574  0.00  0.00     0.096 A 
ENDROOT
BRANCH   1   7
ATOM      7  N1  NON d   1     -43.088  18.472  -4.559  0.00  0.00    -0.306 N 
ATOM      8  C1  NON d   1     -43.881  17.349  -4.438  0.00  0.00     0.321 C 
ATOM      9  O1  NON d   1     -43.478  16.211  -4.222  0.00  0.00    -0.247 OA
ATOM     10  N2  NON d   1     -45.223  17.651  -4.558  0.00  0.00    -0.338 N 
ATOM     11  H13 NON d   1     -45.461  18.596  -4.298  0.00  0.00     0.164 HD
ATOM     12  H1  NON d   1     -43.351  19.140  -5.271  0.00  0.00     0.171 HD
BRANCH  10  13
ATOM     13  C15 NON d   1     -46.226  16.614  -4.316  0.00  0.00     0.086 C 
ATOM     14  C16 NON d   1     -47.160  16.470  -5.523  0.00  0.00     0.025 C 
ATOM     15  C17 NON d   1     -48.208  15.379  -5.300  0.00  0.00     0.002 C 
ATOM     16  C18 NON d   1     -49.000  15.598  -4.013  0.00  0.00     0.000 C 
ATOM     17  C19 NON d   1     -48.083  15.780  -2.809  0.00  0.00     0.002 C 
ATOM     18  C20 NON d   1     -47.055  16.884  -3.046  0.00  0.00     0.025 C 
ENDBRANCH  10  13
ENDBRANCH   1   7
BRANCH   6  19
ATOM     19  O2  NON d   1     -41.405  20.434  -5.533  0.00  0.00    -0.344 OA
BRANCH  19  20
ATOM     20  C8  NON d   1     -41.468  19.882  -6.858  0.00  0.00     0.214 C 
BRANCH  20  21
ATOM     21  C9  NON d   1     -40.136  19.703  -7.554  0.00  0.00    -0.034 A 
ATOM     22  C10 NON d   1     -39.452  20.863  -7.968  0.00  0.00     0.009 A 
ATOM     23  C11 NON d   1     -38.216  20.780  -8.609  0.00  0.00     0.001 A 
ATOM     24  C12 NON d   1     -37.644  19.534  -8.844  0.00  0.00     0.000 A 
ATOM     25  C13 NON d   1     -38.308  18.376  -8.434  0.00  0.00     0.001 A 
ATOM     26  C14 NON d   1     -39.548  18.459  -7.790  0.00  0.00     0.009 A 
ENDBRANCH  20  21
ENDBRANCH  19  20
ENDBRANCH   6  19
TORSDOF 5
ENDMDL
MODEL 2
REMARK VINA RESULT:    -8.562      1.928      2.856
REMARK INTER + INTRA:         -11.483
REMARK INTER:                 -10.054
REMARK INTRA:                  -1.429
REMARK CONF_INDEPENDENT:        1.492
REMARK UNBOUND:                -1.429
REMARK  5 active torsions:
REMARK  status: ('A' for Active; 'I' for Inactive)
REMARK       I    between atoms: C1_2  and  N1_3 
REMARK       I    between atoms: C1_2  and  N2_18 
REMARK    1  A    between atoms: N1_3  and  C2_4 
REMARK    2  A    between atoms: C7_9  and  O2_10 
REMARK    3  A    between atoms: O2_10  and  C8_11 
REMARK    4  A    between atoms: C8_11  and  C9_12 
REMARK    5  A    between atoms: N2_18  and  C15_19 
ROOT
ATOM      1  C2  NON d   1     -41.744  18.373  -4.025  0.00  0.00     0.069 A 
ATOM      2  C3  NON d   1     -41.369  17.738  -2.830  0.00  0.00     0.032 A 
ATOM      3  C4  NON d   1     -40.062  17.815  -2.351  0.00  0.00     0.002 A 
ATOM      4  C5  NON d   1     -39.113  18.533  -3.061  0.00  0.00     0.003 A 
ATOM      5  C6  NON d   1     -39.472  19.182  -4.244  0.00  0.00     0.039 A 
ATOM      6  C7  NON d   1     -40.788  19.121  -4.741  0.00  0.00     0.096 A 
ENDROOT
BRANCH   1   7
ATOM      7  N1  NON d   1     -43.086  18.315  -4.475  0.00  0.00    -0.306 N 
ATOM      8  C1  NON d   1     -43.941  17.260  -4.234  0.00  0.00     0.321 C 
ATOM      9  O1  NON d   1     -43.602  16.130  -3.898  0.00  0.00    -0.247 OA
ATOM     10  N2  NON d   1     -45.264  17.624  -4.384  0.00  0.00    -0.338 N 
ATOM     11  H13 NON d   1     -45.446  18.604  -4.226  0.00  0.00     0.164 HD
ATOM     12  H1  NON d   1     -43.316  18.918  -5.255  0.00  0.00     0.171 HD
BRANCH  10  13
ATOM     13  C15 NON d   1     -46.323  16.678  -4.031  0.00  0.00     0.086 C 
ATOM     14  C16 NON d   1     -47.240  16.417  -5.232  0.00  0.00     0.025 C 
ATOM     15  C17 NON d   1     -48.347  15.418  -4.892  0.00  0.00     0.002 C 
ATOM     16  C18 NON d   1     -49.151  15.846  -3.666  0.00  0.00     0.000 C 
ATOM     17  C19 NON d   1     -48.248  16.145  -2.474  0.00  0.00     0.002 C 
ATOM     18  C20 NON d   1     -47.161  17.157  -2.830  0.00  0.00     0.025 C 
ENDBRANCH  10  13
ENDBRANCH   1   7
BRANCH   6  19
ATOM     19  O2  NON d   1     -41.203  19.745  -5.905  0.00  0.00    -0.344 OA
BRANCH  19  20
ATOM     20  C8  NON d   1     -40.381  20.848  -6.318  0.00  0.00     0.214 C 
BRANCH  20  21
ATOM     21  C9  NON d   1     -40.470  22.086  -5.452  0.00  0.00    -0.034 A 
ATOM     22  C10 NON d   1     -39.935  23.285  -5.963  0.00  0.00     0.009 A 
ATOM     23  C11 NON d   1     -39.986  24.469  -5.227  0.00  0.00     0.001 A 
ATOM     24  C12 NON d   1     -40.575  24.471  -3.967  0.00  0.00     0.000 A 
ATOM     25  C13 NON d   1     -41.114  23.292  -3.449  0.00  0.00     0.001 A 
ATOM     26  C14 NON d   1     -41.064  22.104  -4.188  0.00  0.00     0.009 A 
ENDBRANCH  20  21
ENDBRANCH  19  20
ENDBRANCH   6  19
TORSDOF 5
ENDMDL
MODEL 3
REMARK VINA RESULT:    -8.395      2.755      4.885
REMARK INTER + INTRA:         -11.247
REMARK INTER:                  -9.886
REMARK INTRA:                  -1.361
REMARK CONF_INDEPENDENT:        1.492
REMARK UNBOUND:                -1.361
REMARK  5 active torsions:
REMARK  status: ('A' for Active; 'I' for Inactive)
REMARK       I    between atoms: C1_2  and  N1_3 
REMARK       I    between atoms: C1_2  and  N2_18 
REMARK    1  A    between atoms: N1_3  and  C2_4 
REMARK    2  A    between atoms: C7_9  and  O2_10 
REMARK    3  A    between atoms: O2_10  and  C8_11 
REMARK    4  A    between atoms: C8_11  and  C9_12 
REMARK    5  A    between atoms: N2_18  and  C15_19 
ROOT
ATOM      1  C2  NON d   1     -41.682  18.357  -4.428  0.00  0.00     0.069 A 
ATOM      2  C3  NON d   1     -41.525  18.050  -5.789  0.00  0.00     0.032 A 
ATOM      3  C4  NON d   1     -40.382  18.431  -6.488  0.00  0.00     0.002 A 
ATOM      4  C5  NON d   1     -39.376  19.123  -5.832  0.00  0.00     0.003 A 
ATOM      5  C6  NON d   1     -39.510  19.426  -4.476  0.00  0.00     0.039 A 
ATOM      6  C7  NON d   1     -40.654  19.044  -3.751  0.00  0.00     0.096 A 
ENDROOT
BRANCH   1   7
ATOM      7  N1  NON d   1     -42.835  17.928  -3.725  0.00  0.00    -0.306 N 
ATOM      8  C1  NON d   1     -44.114  17.950  -4.244  0.00  0.00     0.321 C 
ATOM      9  O1  NON d   1     -44.480  18.610  -5.210  0.00  0.00    -0.247 OA
ATOM     10  N2  NON d   1     -44.961  17.101  -3.561  0.00  0.00    -0.338 N 
ATOM     11  H13 NON d   1     -44.499  16.324  -3.112  0.00  0.00     0.164 HD
ATOM     12  H1  NON d   1     -42.753  17.903  -2.717  0.00  0.00     0.171 HD
BRANCH  10  13
ATOM     13  C15 NON d   1     -46.321  16.881  -4.052  0.00  0.00     0.086 C 
ATOM     14  C16 NON d   1     -47.201  16.264  -2.958  0.00  0.00     0.025 C 
ATOM     15  C17 NON d   1     -48.633  16.040  -3.444  0.00  0.00     0.002 C 
ATOM     16  C18 NON d   1     -48.683  15.210  -4.725  0.00  0.00     0.000 C 
ATOM     17  C19 NON d   1     -47.783  15.792  -5.810  0.00  0.00     0.002 C 
ATOM     18  C20 NON d   1     -46.354  15.992  -5.310  0.00  0.00     0.025 C 
ENDBRANCH  10  13
ENDBRANCH   1   7
BRANCH   6  19
ATOM     19  O2  NON d   1     -40.842  19.313  -2.405  0.00  0.00    -0.344 OA
BRANCH  19  20
ATOM     20  C8  NON d   1     -39.800  20.097  -1.802  0.00  0.00     0.214 C 
BRANCH  20  21
ATOM     21  C9  NON d   1     -40.249  21.393  -1.161  0.00  0.00    -0.034 A 
ATOM     22  C10 NON d   1     -40.301  21.446   0.246  0.00  0.00     0.009 A 
ATOM     23  C11 NON d   1     -40.697  22.606   0.910  0.00  0.00     0.001 A 
ATOM     24  C12 NON d   1     -41.047  23.734   0.175  0.00  0.00     0.000 A 
ATOM     25  C13 NON d   1     -40.996  23.699  -1.220  0.00  0.00     0.001 A 
ATOM     26  C14 NON d   1     -40.597  22.535  -1.886  0.00  0.00     0.009 A 
ENDBRANCH  20  21
ENDBRANCH  19  20
ENDBRANCH   6  19
TORSDOF 5
ENDMDL
MODEL 4
REMARK VINA RESULT:    -8.380      1.557      8.211
REMARK INTER + INTRA:         -11.247
REMARK INTER:                  -9.872
REMARK INTRA:                  -1.375
REMARK CONF_INDEPENDENT:        1.492
REMARK UNBOUND:                -1.375
REMARK  5 active torsions:
REMARK  status: ('A' for Active; 'I' for Inactive)
REMARK       I    between atoms: C1_2  and  N1_3 
REMARK       I    between atoms: C1_2  and  N2_18 
REMARK    1  A    between atoms: N1_3  and  C2_4 
REMARK    2  A    between atoms: C7_9  and  O2_10 
REMARK    3  A    between atoms: O2_10  and  C8_11 
REMARK    4  A    between atoms: C8_11  and  C9_12 
REMARK    5  A    between atoms: N2_18  and  C15_19 
ROOT
ATOM      1  C2  NON d   1     -41.167  18.207  -4.601  0.00  0.00     0.069 A 
ATOM      2  C3  NON d   1     -40.133  18.710  -3.793  0.00  0.00     0.032 A 
ATOM      3  C4  NON d   1     -40.267  18.779  -2.408  0.00  0.00     0.002 A 
ATOM      4  C5  NON d   1     -41.439  18.341  -1.810  0.00  0.00     0.003 A 
ATOM      5  C6  NON d   1     -42.471  17.826  -2.597  0.00  0.00     0.039 A 
ATOM      6  C7  NON d   1     -42.352  17.742  -3.996  0.00  0.00     0.096 A 
ENDROOT
BRANCH   1   7
ATOM      7  N1  NON d   1     -40.996  18.109  -6.003  0.00  0.00    -0.306 N 
ATOM      8  C1  NON d   1     -40.083  18.848  -6.728  0.00  0.00     0.321 C 
ATOM      9  O1  NON d   1     -39.538  19.879  -6.347  0.00  0.00    -0.247 OA
ATOM     10  N2  NON d   1     -39.811  18.274  -7.953  0.00  0.00    -0.338 N 
ATOM     11  H13 NON d   1     -39.948  17.274  -7.983  0.00  0.00     0.164 HD
ATOM     12  H1  NON d   1     -41.776  17.722  -6.516  0.00  0.00     0.171 HD
BRANCH  10  13
ATOM     13  C15 NON d   1     -38.761  18.835  -8.803  0.00  0.00     0.086 C 
ATOM     14  C16 NON d   1     -37.376  18.568  -8.203  0.00  0.00     0.025 C 
ATOM     15  C17 NON d   1     -36.260  19.131  -9.083  0.00  0.00     0.002 C 
ATOM     16  C18 NON d   1     -36.456  20.617  -9.379  0.00  0.00     0.000 C 
ATOM     17  C19 NON d   1     -37.844  20.903  -9.942  0.00  0.00     0.002 C 
ATOM     18  C20 NON d   1     -38.943  20.346  -9.040  0.00  0.00     0.025 C 
ENDBRANCH  10  13
ENDBRANCH   1   7
BRANCH   6  19
ATOM     19  O2  NON d   1     -43.339  17.239  -4.827  0.00  0.00    -0.344 OA
BRANCH  19  20
ATOM     20  C8  NON d   1     -44.608  17.904  -4.717  0.00  0.00     0.214 C 
BRANCH  20  21
ATOM     21  C9  NON d   1     -45.798  17.000  -4.473  0.00  0.00    -0.034 A 
ATOM     22  C10 NON d   1     -46.369  17.001  -3.185  0.00  0.00     0.009 A 
ATOM     23  C11 NON d   1     -47.471  16.201  -2.885  0.00  0.00     0.001 A 
ATOM     24  C12 NON d   1     -48.020  15.388  -3.871  0.00  0.00     0.000 A 
ATOM     25  C13 NON d   1     -47.468  15.380  -5.153  0.00  0.00     0.001 A 
ATOM     26  C14 NON d   1     -46.363  16.183  -5.455  0.00  0.00     0.009 A 
ENDBRANCH  20  21
ENDBRANCH  19  20
ENDBRANCH   6  19
TORSDOF 5
ENDMDL
MODEL 5
REMARK VINA RESULT:    -8.255      1.576      8.185
REMARK INTER + INTRA:         -11.090
REMARK INTER:                  -9.746
REMARK INTRA:                  -1.343
REMARK CONF_INDEPENDENT:        1.492
REMARK UNBOUND:                -1.343
REMARK  5 active torsions:
REMARK  status: ('A' for Active; 'I' for Inactive)
REMARK       I    between atoms: C1_2  and  N1_3 
REMARK       I    between atoms: C1_2  and  N2_18 
REMARK    1  A    between atoms: N1_3  and  C2_4 
REMARK    2  A    between atoms: C7_9  and  O2_10 
REMARK    3  A    between atoms: O2_10  and  C8_11 
REMARK    4  A    between atoms: C8_11  and  C9_12 
REMARK    5  A    between atoms: N2_18  and  C15_19 
ROOT
ATOM      1  C2  NON d   1     -41.761  18.876  -4.819  0.00  0.00     0.069 A 
ATOM      2  C3  NON d   1     -40.488  18.907  -4.225  0.00  0.00     0.032 A 
ATOM      3  C4  NON d   1     -40.256  18.317  -2.984  0.00  0.00     0.002 A 
ATOM      4  C5  NON d   1     -41.296  17.683  -2.322  0.00  0.00     0.003 A 
ATOM      5  C6  NON d   1     -42.564  17.631  -2.903  0.00  0.00     0.039 A 
ATOM      6  C7  NON d   1     -42.817  18.216  -4.159  0.00  0.00     0.096 A 
ENDROOT
BRANCH   1   7
ATOM      7  N1  NON d   1     -41.967  19.448  -6.098  0.00  0.00    -0.306 N 
ATOM      8  C1  NON d   1     -41.051  20.251  -6.747  0.00  0.00     0.321 C 
ATOM      9  O1  NON d   1     -40.109  20.830  -6.217  0.00  0.00    -0.247 OA
ATOM     10  N2  NON d   1     -41.290  20.311  -8.105  0.00  0.00    -0.338 N 
ATOM     11  H13 NON d   1     -41.768  19.505  -8.480  0.00  0.00     0.164 HD
ATOM     12  H1  NON d   1     -42.931  19.526  -6.396  0.00  0.00     0.171 HD
BRANCH  10  13
ATOM     13  C15 NON d   1     -40.340  20.997  -8.981  0.00  0.00     0.086 C 
ATOM     14  C16 NON d   1     -38.952  20.353  -8.887  0.00  0.00     0.025 C 
ATOM     15  C17 NON d   1     -37.945  21.043  -9.807  0.00  0.00     0.002 C 
ATOM     16  C18 NON d   1     -37.873  22.548  -9.556  0.00  0.00     0.000 C 
ATOM     17  C19 NON d   1     -39.253  23.196  -9.609  0.00  0.00     0.002 C 
ATOM     18  C20 NON d   1     -40.238  22.502  -8.672  0.00  0.00     0.025 C 
ENDBRANCH  10  13
ENDBRANCH   1   7
BRANCH   6  19
ATOM     19  O2  NON d   1     -44.051  18.195  -4.787  0.00  0.00    -0.344 OA
BRANCH  19  20
ATOM     20  C8  NON d   1     -44.559  16.879  -5.060  0.00  0.00     0.214 C 
BRANCH  20  21
ATOM     21  C9  NON d   1     -45.958  16.603  -4.551  0.00  0.00    -0.034 A 
ATOM     22  C10 NON d   1     -46.870  15.994  -5.435  0.00  0.00     0.009 A 
ATOM     23  C11 NON d   1     -48.174  15.702  -5.038  0.00  0.00     0.001 A 
ATOM     24  C12 NON d   1     -48.586  16.013  -3.746  0.00  0.00     0.000 A 
ATOM     25  C13 NON d   1     -47.692  16.613  -2.857  0.00  0.00     0.001 A 
ATOM     26  C14 NON d   1     -46.383  16.905  -3.255  0.00  0.00     0.009 A 
ENDBRANCH  20  21
ENDBRANCH  19  20
ENDBRANCH   6  19
TORSDOF 5
ENDMDL
MODEL 6
REMARK VINA RESULT:    -8.045      1.896      3.899
REMARK INTER + INTRA:         -10.948
REMARK INTER:                  -9.537
REMARK INTRA:                  -1.411
REMARK CONF_INDEPENDENT:        1.492
REMARK UNBOUND:                -1.411
REMARK  5 active torsions:
REMARK  status: ('A' for Active; 'I' for Inactive)
REMARK       I    between atoms: C1_2  and  N1_3 
REMARK       I    between atoms: C1_2  and  N2_18 
REMARK    1  A    between atoms: N1_3  and  C2_4 
REMARK    2  A    between atoms: C7_9  and  O2_10 
REMARK    3  A    between atoms: O2_10  and  C8_11 
REMARK    4  A    between atoms: C8_11  and  C9_12 
REMARK    5  A    between atoms: N2_18  and  C15_19 
ROOT
ATOM      1  C2  NON d   1     -42.333  18.421  -4.687  0.00  0.00     0.069 A 
ATOM      2  C3  NON d   1     -42.563  19.229  -5.813  0.00  0.00     0.032 A 
ATOM      3  C4  NON d   1     -41.513  19.644  -6.631  0.00  0.00     0.002 A 
ATOM      4  C5  NON d   1     -40.217  19.253  -6.333  0.00  0.00     0.003 A 
ATOM      5  C6  NON d   1     -39.972  18.440  -5.225  0.00  0.00     0.039 A 
ATOM      6  C7  NON d   1     -41.019  18.005  -4.391  0.00  0.00     0.096 A 
ENDROOT
BRANCH   1   7
ATOM      7  N1  NON d   1     -43.417  17.978  -3.891  0.00  0.00    -0.306 N 
ATOM      8  C1  NON d   1     -44.730  17.942  -4.317  0.00  0.00     0.321 C 
ATOM      9  O1  NON d   1     -45.186  18.557  -5.275  0.00  0.00    -0.247 OA
ATOM     10  N2  NON d   1     -45.497  17.089  -3.549  0.00  0.00    -0.338 N 
ATOM     11  H13 NON d   1     -44.978  16.343  -3.111  0.00  0.00     0.164 HD
ATOM     12  H1  NON d   1     -43.264  17.990  -2.891  0.00  0.00     0.171 HD
BRANCH  10  13
ATOM     13  C15 NON d   1     -46.880  16.809  -3.935  0.00  0.00     0.086 C 
ATOM     14  C16 NON d   1     -47.794  16.787  -2.703  0.00  0.00     0.025 C 
ATOM     15  C17 NON d   1     -49.249  16.511  -3.084  0.00  0.00     0.002 C 
ATOM     16  C18 NON d   1     -49.396  15.232  -3.904  0.00  0.00     0.000 C 
ATOM     17  C19 NON d   1     -48.466  15.224  -5.112  0.00  0.00     0.002 C 
ATOM     18  C20 NON d   1     -47.016  15.484  -4.709  0.00  0.00     0.025 C 
ENDBRANCH  10  13
ENDBRANCH   1   7
BRANCH   6  19
ATOM     19  O2  NON d   1     -40.839  17.196  -3.281  0.00  0.00    -0.344 OA
BRANCH  19  20
ATOM     20  C8  NON d   1     -40.567  17.907  -2.063  0.00  0.00     0.214 C 
BRANCH  20  21
ATOM     21  C9  NON d   1     -39.751  19.173  -2.216  0.00  0.00    -0.034 A 
ATOM     22  C10 NON d   1     -38.365  19.039  -2.430  0.00  0.00     0.009 A 
ATOM     23  C11 NON d   1     -37.548  20.158  -2.588  0.00  0.00     0.001 A 
ATOM     24  C12 NON d   1     -38.107  21.431  -2.536  0.00  0.00     0.000 A 
ATOM     25  C13 NON d   1     -39.480  21.579  -2.329  0.00  0.00     0.001 A 
ATOM     26  C14 NON d   1     -40.300  20.457  -2.172  0.00  0.00     0.009 A 
ENDBRANCH  20  21
ENDBRANCH  19  20
ENDBRANCH   6  19
TORSDOF 5
ENDMDL
MODEL 7
REMARK VINA RESULT:    -7.673      2.413      3.159
REMARK INTER + INTRA:         -10.332
REMARK INTER:                  -9.164
REMARK INTRA:                  -1.168
REMARK CONF_INDEPENDENT:        1.492
REMARK UNBOUND:                -1.168
REMARK  5 active torsions:
REMARK  status: ('A' for Active; 'I' for Inactive)
REMARK       I    between atoms: C1_2  and  N1_3 
REMARK       I    between atoms: C1_2  and  N2_18 
REMARK    1  A    between atoms: N1_3  and  C2_4 
REMARK    2  A    between atoms: C7_9  and  O2_10 
REMARK    3  A    between atoms: O2_10  and  C8_11 
REMARK    4  A    between atoms: C8_11  and  C9_12 
REMARK    5  A    between atoms: N2_18  and  C15_19 
ROOT
ATOM      1  C2  NON d   1     -41.486  19.060  -4.123  0.00  0.00     0.069 A 
ATOM      2  C3  NON d   1     -40.747  17.912  -3.794  0.00  0.00     0.032 A 
ATOM      3  C4  NON d   1     -39.446  18.007  -3.303  0.00  0.00     0.002 A 
ATOM      4  C5  NON d   1     -38.867  19.254  -3.131  0.00  0.00     0.003 A 
ATOM      5  C6  NON d   1     -39.592  20.407  -3.440  0.00  0.00     0.039 A 
ATOM      6  C7  NON d   1     -40.909  20.332  -3.931  0.00  0.00     0.096 A 
ENDROOT
BRANCH   1   7
ATOM      7  N1  NON d   1     -42.820  18.945  -4.583  0.00  0.00    -0.306 N 
ATOM      8  C1  NON d   1     -43.546  17.771  -4.574  0.00  0.00     0.321 C 
ATOM      9  O1  NON d   1     -43.076  16.643  -4.479  0.00  0.00    -0.247 OA
ATOM     10  N2  NON d   1     -44.904  18.005  -4.652  0.00  0.00    -0.338 N 
ATOM     11  H13 NON d   1     -45.193  18.904  -4.295  0.00  0.00     0.164 HD
ATOM     12  H1  NON d   1     -43.130  19.666  -5.221  0.00  0.00     0.171 HD
BRANCH  10  13
ATOM     13  C15 NON d   1     -45.843  16.892  -4.512  0.00  0.00     0.086 C 
ATOM     14  C16 NON d   1     -46.819  16.853  -5.694  0.00  0.00     0.025 C 
ATOM     15  C17 NON d   1     -47.801  15.686  -5.578  0.00  0.00     0.002 C 
ATOM     16  C18 NON d   1     -48.548  15.695  -4.246  0.00  0.00     0.000 C 
ATOM     17  C19 NON d   1     -47.591  15.772  -3.061  0.00  0.00     0.002 C 
ATOM     18  C20 NON d   1     -46.630  16.952  -3.189  0.00  0.00     0.025 C 
ENDBRANCH  10  13
ENDBRANCH   1   7
BRANCH   6  19
ATOM     19  O2  NON d   1     -41.678  21.439  -4.252  0.00  0.00    -0.344 OA
BRANCH  19  20
ATOM     20  C8  NON d   1     -41.190  22.680  -3.718  0.00  0.00     0.214 C 
BRANCH  20  21
ATOM     21  C9  NON d   1     -40.622  23.647  -4.735  0.00  0.00    -0.034 A 
ATOM     22  C10 NON d   1     -39.989  23.108  -5.871  0.00  0.00     0.009 A 
ATOM     23  C11 NON d   1     -39.447  23.934  -6.855  0.00  0.00     0.001 A 
ATOM     24  C12 NON d   1     -39.532  25.316  -6.717  0.00  0.00     0.000 A 
ATOM     25  C13 NON d   1     -40.161  25.865  -5.598  0.00  0.00     0.001 A 
ATOM     26  C14 NON d   1     -40.705  25.036  -4.611  0.00  0.00     0.009 A 
ENDBRANCH  20  21
ENDBRANCH  19  20
ENDBRANCH   6  19
TORSDOF 5
ENDMDL
MODEL 8
REMARK VINA RESULT:    -7.586      2.954      4.577
REMARK INTER + INTRA:         -10.176
REMARK INTER:                  -9.078
REMARK INTRA:                  -1.099
REMARK CONF_INDEPENDENT:        1.492
REMARK UNBOUND:                -1.099
REMARK  5 active torsions:
REMARK  status: ('A' for Active; 'I' for Inactive)
REMARK       I    between atoms: C1_2  and  N1_3 
REMARK       I    between atoms: C1_2  and  N2_18 
REMARK    1  A    between atoms: N1_3  and  C2_4 
REMARK    2  A    between atoms: C7_9  and  O2_10 
REMARK    3  A    between atoms: O2_10  and  C8_11 
REMARK    4  A    between atoms: C8_11  and  C9_12 
REMARK    5  A    between atoms: N2_18  and  C15_19 
ROOT
ATOM      1  C2  NON d   1     -41.469  19.337  -4.642  0.00  0.00     0.069 A 
ATOM      2  C3  NON d   1     -40.606  18.250  -4.859  0.00  0.00     0.032 A 
ATOM      3  C4  NON d   1     -39.238  18.355  -4.615  0.00  0.00     0.002 A 
ATOM      4  C5  NON d   1     -38.715  19.550  -4.147  0.00  0.00     0.003 A 
ATOM      5  C6  NON d   1     -39.560  20.637  -3.913  0.00  0.00     0.039 A 
ATOM      6  C7  NON d   1     -40.945  20.549  -4.147  0.00  0.00     0.096 A 
ENDROOT
BRANCH   1   7
ATOM      7  N1  NON d   1     -42.862  19.199  -4.859  0.00  0.00    -0.306 N 
ATOM      8  C1  NON d   1     -43.532  17.993  -4.860  0.00  0.00     0.321 C 
ATOM      9  O1  NON d   1     -43.013  16.890  -4.995  0.00  0.00    -0.247 OA
ATOM     10  N2  NON d   1     -44.887  18.155  -4.657  0.00  0.00    -0.338 N 
ATOM     11  H13 NON d   1     -45.133  18.989  -4.144  0.00  0.00     0.164 HD
ATOM     12  H1  NON d   1     -43.312  19.970  -5.334  0.00  0.00     0.171 HD
BRANCH  10  13
ATOM     13  C15 NON d   1     -45.743  16.982  -4.484  0.00  0.00     0.086 C 
ATOM     14  C16 NON d   1     -46.678  16.810  -5.687  0.00  0.00     0.025 C 
ATOM     15  C17 NON d   1     -47.573  15.579  -5.537  0.00  0.00     0.002 C 
ATOM     16  C18 NON d   1     -48.356  15.594  -4.226  0.00  0.00     0.000 C 
ATOM     17  C19 NON d   1     -47.442  15.803  -3.023  0.00  0.00     0.002 C 
ATOM     18  C20 NON d   1     -46.570  17.046  -3.186  0.00  0.00     0.025 C 
ENDBRANCH  10  13
ENDBRANCH   1   7
BRANCH   6  19
ATOM     19  O2  NON d   1     -41.833  21.590  -3.933  0.00  0.00    -0.344 OA
BRANCH  19  20
ATOM     20  C8  NON d   1     -41.235  22.896  -3.945  0.00  0.00     0.214 C 
BRANCH  20  21
ATOM     21  C9  NON d   1     -40.999  23.518  -2.585  0.00  0.00    -0.034 A 
ATOM     22  C10 NON d   1     -40.686  22.656  -1.516  0.00  0.00     0.009 A 
ATOM     23  C11 NON d   1     -40.448  23.154  -0.235  0.00  0.00     0.001 A 
ATOM     24  C12 NON d   1     -40.518  24.525  -0.005  0.00  0.00     0.000 A 
ATOM     25  C13 NON d   1     -40.822  25.391  -1.057  0.00  0.00     0.001 A 
ATOM     26  C14 NON d   1     -41.060  24.892  -2.342  0.00  0.00     0.009 A 
ENDBRANCH  20  21
ENDBRANCH  19  20
ENDBRANCH   6  19
TORSDOF 5
ENDMDL
