MODEL 1
REMARK VINA RESULT:   -13.222      0.000      0.000
REMARK INTER + INTRA:         -16.510
REMARK INTER:                 -15.310
REMARK INTRA:                  -1.200
REMARK CONF_INDEPENDENT:        2.088
REMARK UNBOUND:                -1.200
REMARK  7 active torsions:
REMARK  status: ('A' for Active; 'I' for Inactive)
REMARK    1  A    between atoms: C2_2  and  O1_3 
REMARK    2  A    between atoms: O1_3  and  C3_4 
REMARK    3  A    between atoms: C3_4  and  C4_5 
REMARK       I    between atoms: C4_5  and  N1_7 
REMARK    4  A    between atoms: N1_7  and  N2_8 
REMARK       I    between atoms: N2_8  and  C5_9 
REMARK       I    between atoms: C5_9  and  N3_11 
REMARK    5  A    between atoms: N3_11  and  C6_12 
REMARK    6  A    between atoms: C6_12  and  C9_15 
REMARK       I    between atoms: C9_15  and  N4_17 
REMARK    7  A    between atoms: N4_17  and  C10_18 
ROOT
ATOM      1  N2  NON d   1     -46.477  16.935  -3.698  0.00  0.00    -0.249 N 
ATOM      2  C5  NON d   1     -45.562  17.189  -4.708  0.00  0.00     0.335 C 
ATOM      3  O3  NON d   1     -45.606  16.650  -5.809  0.00  0.00    -0.246 OA
ATOM      4  N3  NON d   1     -44.491  17.970  -4.277  0.00  0.00    -0.324 N 
ATOM      5  H9  NON d   1     -46.935  17.740  -3.270  0.00  0.00     0.192 HD
ATOM      6  H10 NON d   1     -44.376  18.076  -3.272  0.00  0.00     0.165 HD
ENDROOT
BRANCH   4   7
ATOM      7  C6  NON d   1     -43.180  17.999  -5.143  0.00  0.00     0.108 C 
ATOM      8  C7  NON d   1     -43.040  16.495  -4.846  0.00  0.00     0.049 C 
ATOM      9  C8  NON d   1     -43.319  19.504  -5.440  0.00  0.00     0.049 C 
BRANCH   7  10
ATOM     10  C9  NON d   1     -41.608  18.340  -4.789  0.00  0.00     0.249 C 
ATOM     11  O4  NON d   1     -41.151  18.363  -3.649  0.00  0.00    -0.270 OA
ATOM     12  N4  NON d   1     -40.859  18.594  -5.956  0.00  0.00    -0.325 N 
ATOM     13  H17 NON d   1     -41.362  18.978  -6.745  0.00  0.00     0.169 HD
BRANCH  12  14
ATOM     14  C10 NON d   1     -39.467  18.770  -6.037  0.00  0.00     0.034 A 
ATOM     15  C11 NON d   1     -38.881  18.758  -7.311  0.00  0.00     0.029 A 
ATOM     16  C12 NON d   1     -37.493  18.781  -7.449  0.00  0.00     0.002 A 
ATOM     17  C13 NON d   1     -36.687  18.761  -6.314  0.00  0.00     0.000 A 
ATOM     18  C14 NON d   1     -37.272  18.763  -5.045  0.00  0.00     0.002 A 
ATOM     19  C15 NON d   1     -38.661  18.795  -4.904  0.00  0.00     0.029 A 
ENDBRANCH  12  14
ENDBRANCH   7  10
ENDBRANCH   4   7
BRANCH   1  20
ATOM     20  N1  NON d   1     -47.318  15.813  -3.892  0.00  0.00    -0.264 N 
ATOM     21  C4  NON d   1     -48.146  15.739  -5.005  0.00  0.00     0.259 C 
ATOM     22  O2  NON d   1     -48.043  16.503  -5.960  0.00  0.00    -0.269 OA
ATOM     23  H8  NON d   1     -47.388  15.169  -3.109  0.00  0.00     0.190 HD
BRANCH  21  24
ATOM     24  C3  NON d   1     -49.211  14.631  -4.869  0.00  0.00     0.272 C 
BRANCH  24  25
ATOM     25  O1  NON d   1     -49.610  14.253  -3.564  0.00  0.00    -0.382 OA
BRANCH  25  26
ATOM     26  C2  NON d   1     -50.445  15.196  -2.896  0.00  0.00     0.163 C 
ATOM     27  C1  NON d   1     -49.642  16.162  -2.050  0.00  0.00     0.033 C 
ENDBRANCH  25  26
ENDBRANCH  24  25
ENDBRANCH  21  24
ENDBRANCH   1  20
TORSDOF 7
ENDMDL
MODEL 2
REMARK VINA RESULT:   -13.169      1.904      2.393
REMARK INTER + INTRA:         -16.574
REMARK INTER:                 -15.257
REMARK INTRA:                  -1.317
REMARK CONF_INDEPENDENT:        2.088
REMARK UNBOUND:                -1.317
REMARK  7 active torsions:
REMARK  status: ('A' for Active; 'I' for Inactive)
REMARK    1  A    between atoms: C2_2  and  O1_3 
REMARK    2  A    between atoms: O1_3  and  C3_4 
REMARK    3  A    between atoms: C3_4  and  C4_5 
REMARK       I    between atoms: C4_5  and  N1_7 
REMARK    4  A    between atoms: N1_7  and  N2_8 
REMARK       I    between atoms: N2_8  and  C5_9 
REMARK       I    between atoms: C5_9  and  N3_11 
REMARK    5  A    between atoms: N3_11  and  C6_12 
REMARK    6  A    between atoms: C6_12  and  C9_15 
REMARK       I    between atoms: C9_15  and  N4_17 
REMARK    7  A    between atoms: N4_17  and  C10_18 
ROOT
ATOM      1  N2  NON d   1     -46.503  16.931  -3.739  0.00  0.00    -0.249 N 
ATOM      2  C5  NON d   1     -45.553  17.122  -4.731  0.00  0.00     0.335 C 
ATOM      3  O3  NON d   1     -45.577  16.537  -5.809  0.00  0.00    -0.246 OA
ATOM      4  N3  NON d   1     -44.479  17.899  -4.302  0.00  0.00    -0.324 N 
ATOM      5  H9  NON d   1     -46.955  17.762  -3.360  0.00  0.00     0.192 HD
ATOM      6  H10 NON d   1     -44.391  18.046  -3.299  0.00  0.00     0.165 HD
ENDROOT
BRANCH   4   7
ATOM      7  C6  NON d   1     -43.142  17.864  -5.129  0.00  0.00     0.108 C 
ATOM      8  C7  NON d   1     -43.083  16.355  -4.827  0.00  0.00     0.049 C 
ATOM      9  C8  NON d   1     -43.201  19.373  -5.430  0.00  0.00     0.049 C 
BRANCH   7  10
ATOM     10  C9  NON d   1     -41.567  18.130  -4.728  0.00  0.00     0.249 C 
ATOM     11  O4  NON d   1     -40.630  18.012  -5.512  0.00  0.00    -0.270 OA
ATOM     12  N4  NON d   1     -41.436  18.514  -3.377  0.00  0.00    -0.325 N 
ATOM     13  H17 NON d   1     -42.138  18.169  -2.736  0.00  0.00     0.169 HD
BRANCH  12  14
ATOM     14  C10 NON d   1     -40.264  18.958  -2.742  0.00  0.00     0.034 A 
ATOM     15  C11 NON d   1     -40.314  20.184  -2.062  0.00  0.00     0.029 A 
ATOM     16  C12 NON d   1     -39.151  20.748  -1.538  0.00  0.00     0.002 A 
ATOM     17  C13 NON d   1     -37.927  20.115  -1.739  0.00  0.00     0.000 A 
ATOM     18  C14 NON d   1     -37.877  18.899  -2.424  0.00  0.00     0.002 A 
ATOM     19  C15 NON d   1     -39.047  18.305  -2.903  0.00  0.00     0.029 A 
ENDBRANCH  12  14
ENDBRANCH   7  10
ENDBRANCH   4   7
BRANCH   1  20
ATOM     20  N1  NON d   1     -47.362  15.819  -3.911  0.00  0.00    -0.264 N 
ATOM     21  C4  NON d   1     -48.179  15.728  -5.030  0.00  0.00     0.259 C 
ATOM     22  O2  NON d   1     -48.052  16.462  -6.006  0.00  0.00    -0.269 OA
ATOM     23  H8  NON d   1     -47.451  15.198  -3.111  0.00  0.00     0.190 HD
BRANCH  21  24
ATOM     24  C3  NON d   1     -49.266  14.643  -4.875  0.00  0.00     0.272 C 
BRANCH  24  25
ATOM     25  O1  NON d   1     -49.627  14.252  -3.562  0.00  0.00    -0.382 OA
BRANCH  25  26
ATOM     26  C2  NON d   1     -50.459  15.178  -2.869  0.00  0.00     0.163 C 
ATOM     27  C1  NON d   1     -49.649  16.167  -2.057  0.00  0.00     0.033 C 
ENDBRANCH  25  26
ENDBRANCH  24  25
ENDBRANCH  21  24
ENDBRANCH   1  20
TORSDOF 7
ENDMDL
MODEL 3
REMARK VINA RESULT:   -13.066      3.771      4.813
REMARK INTER + INTRA:         -16.617
REMARK INTER:                 -15.154
REMARK INTRA:                  -1.463
REMARK CONF_INDEPENDENT:        2.088
REMARK UNBOUND:                -1.463
REMARK  7 active torsions:
REMARK  status: ('A' for Active; 'I' for Inactive)
REMARK    1  A    between atoms: C2_2  and  O1_3 
REMARK    2  A    between atoms: O1_3  and  C3_4 
REMARK    3  A    between atoms: C3_4  and  C4_5 
REMARK       I    between atoms: C4_5  and  N1_7 
REMARK    4  A    between atoms: N1_7  and  N2_8 
REMARK       I    between atoms: N2_8  and  C5_9 
REMARK       I    between atoms: C5_9  and  N3_11 
REMARK    5  A    between atoms: N3_11  and  C6_12 
REMARK    6  A    between atoms: C6_12  and  C9_15 
REMARK       I    between atoms: C9_15  and  N4_17 
REMARK    7  A    between atoms: N4_17  and  C10_18 
ROOT
ATOM      1  N2  NON d   1     -44.026  18.458  -4.853  0.00  0.00    -0.249 N 
ATOM      2  C5  NON d   1     -42.649  18.381  -4.717  0.00  0.00     0.335 C 
ATOM      3  O3  NON d   1     -42.020  17.330  -4.793  0.00  0.00    -0.246 OA
ATOM      4  N3  NON d   1     -42.083  19.586  -4.304  0.00  0.00    -0.324 N 
ATOM      5  H9  NON d   1     -44.392  19.129  -5.527  0.00  0.00     0.192 HD
ATOM      6  H10 NON d   1     -42.721  20.292  -3.942  0.00  0.00     0.165 HD
ENDROOT
BRANCH   4   7
ATOM      7  C6  NON d   1     -40.631  19.573  -3.701  0.00  0.00     0.108 C 
ATOM      8  C7  NON d   1     -41.233  18.885  -2.462  0.00  0.00     0.049 C 
ATOM      9  C8  NON d   1     -40.029  20.261  -4.940  0.00  0.00     0.049 C 
BRANCH   7  10
ATOM     10  C9  NON d   1     -39.770  20.669  -2.825  0.00  0.00     0.249 C 
ATOM     11  O4  NON d   1     -39.322  21.717  -3.284  0.00  0.00    -0.270 OA
ATOM     12  N4  NON d   1     -39.618  20.255  -1.485  0.00  0.00    -0.325 N 
ATOM     13  H17 NON d   1     -39.614  19.258  -1.315  0.00  0.00     0.169 HD
BRANCH  12  14
ATOM     14  C10 NON d   1     -39.072  21.008  -0.432  0.00  0.00     0.034 A 
ATOM     15  C11 NON d   1     -39.954  21.757   0.361  0.00  0.00     0.029 A 
ATOM     16  C12 NON d   1     -39.461  22.635   1.326  0.00  0.00     0.002 A 
ATOM     17  C13 NON d   1     -38.086  22.809   1.464  0.00  0.00     0.000 A 
ATOM     18  C14 NON d   1     -37.209  22.069   0.667  0.00  0.00     0.002 A 
ATOM     19  C15 NON d   1     -37.699  21.148  -0.263  0.00  0.00     0.029 A 
ENDBRANCH  12  14
ENDBRANCH   7  10
ENDBRANCH   4   7
BRANCH   1  20
ATOM     20  N1  NON d   1     -44.721  17.225  -4.811  0.00  0.00    -0.264 N 
ATOM     21  C4  NON d   1     -45.938  17.082  -5.465  0.00  0.00     0.259 C 
ATOM     22  O2  NON d   1     -46.361  17.908  -6.268  0.00  0.00    -0.269 OA
ATOM     23  H8  NON d   1     -44.358  16.532  -4.161  0.00  0.00     0.190 HD
BRANCH  21  24
ATOM     24  C3  NON d   1     -46.689  15.806  -5.030  0.00  0.00     0.272 C 
BRANCH  24  25
ATOM     25  O1  NON d   1     -47.796  15.391  -5.810  0.00  0.00    -0.382 OA
BRANCH  25  26
ATOM     26  C2  NON d   1     -48.946  15.005  -5.061  0.00  0.00     0.163 C 
ATOM     27  C1  NON d   1     -48.776  15.284  -3.582  0.00  0.00     0.033 C 
ENDBRANCH  25  26
ENDBRANCH  24  25
ENDBRANCH  21  24
ENDBRANCH   1  20
TORSDOF 7
ENDMDL
MODEL 4
REMARK VINA RESULT:   -12.932      1.928      2.380
REMARK INTER + INTRA:         -16.314
REMARK INTER:                 -15.020
REMARK INTRA:                  -1.294
REMARK CONF_INDEPENDENT:        2.088
REMARK UNBOUND:                -1.294
REMARK  7 active torsions:
REMARK  status: ('A' for Active; 'I' for Inactive)
REMARK    1  A    between atoms: C2_2  and  O1_3 
REMARK    2  A    between atoms: O1_3  and  C3_4 
REMARK    3  A    between atoms: C3_4  and  C4_5 
REMARK       I    between atoms: C4_5  and  N1_7 
REMARK    4  A    between atoms: N1_7  and  N2_8 
REMARK       I    between atoms: N2_8  and  C5_9 
REMARK       I    between atoms: C5_9  and  N3_11 
REMARK    5  A    between atoms: N3_11  and  C6_12 
REMARK    6  A    between atoms: C6_12  and  C9_15 
REMARK       I    between atoms: C9_15  and  N4_17 
REMARK    7  A    between atoms: N4_17  and  C10_18 
ROOT
ATOM      1  N2  NON d   1     -46.442  16.963  -3.701  0.00  0.00    -0.249 N 
ATOM      2  C5  NON d   1     -45.522  17.203  -4.710  0.00  0.00     0.335 C 
ATOM      3  O3  NON d   1     -45.565  16.654  -5.807  0.00  0.00    -0.246 OA
ATOM      4  N3  NON d   1     -44.450  17.984  -4.284  0.00  0.00    -0.324 N 
ATOM      5  H9  NON d   1     -46.897  17.773  -3.282  0.00  0.00     0.192 HD
ATOM      6  H10 NON d   1     -44.337  18.100  -3.279  0.00  0.00     0.165 HD
ENDROOT
BRANCH   4   7
ATOM      7  C6  NON d   1     -43.135  18.001  -5.146  0.00  0.00     0.108 C 
ATOM      8  C7  NON d   1     -42.988  16.505  -4.813  0.00  0.00     0.049 C 
ATOM      9  C8  NON d   1     -43.283  19.498  -5.479  0.00  0.00     0.049 C 
BRANCH   7  10
ATOM     10  C9  NON d   1     -41.567  18.359  -4.795  0.00  0.00     0.249 C 
ATOM     11  O4  NON d   1     -40.624  18.124  -5.546  0.00  0.00    -0.270 OA
ATOM     12  N4  NON d   1     -41.447  18.972  -3.530  0.00  0.00    -0.325 N 
ATOM     13  H17 NON d   1     -42.147  18.730  -2.840  0.00  0.00     0.169 HD
BRANCH  12  14
ATOM     14  C10 NON d   1     -40.286  19.539  -2.979  0.00  0.00     0.034 A 
ATOM     15  C11 NON d   1     -39.166  18.710  -2.823  0.00  0.00     0.029 A 
ATOM     16  C12 NON d   1     -38.035  19.173  -2.149  0.00  0.00     0.002 A 
ATOM     17  C13 NON d   1     -38.042  20.445  -1.584  0.00  0.00     0.000 A 
ATOM     18  C14 NON d   1     -39.162  21.267  -1.733  0.00  0.00     0.002 A 
ATOM     19  C15 NON d   1     -40.275  20.826  -2.452  0.00  0.00     0.029 A 
ENDBRANCH  12  14
ENDBRANCH   7  10
ENDBRANCH   4   7
BRANCH   1  20
ATOM     20  N1  NON d   1     -47.286  15.843  -3.888  0.00  0.00    -0.264 N 
ATOM     21  C4  NON d   1     -48.101  15.755  -5.009  0.00  0.00     0.259 C 
ATOM     22  O2  NON d   1     -47.982  16.503  -5.975  0.00  0.00    -0.269 OA
ATOM     23  H8  NON d   1     -47.368  15.211  -3.095  0.00  0.00     0.190 HD
BRANCH  21  24
ATOM     24  C3  NON d   1     -49.173  14.655  -4.869  0.00  0.00     0.272 C 
BRANCH  24  25
ATOM     25  O1  NON d   1     -49.552  14.263  -3.561  0.00  0.00    -0.382 OA
BRANCH  25  26
ATOM     26  C2  NON d   1     -50.408  15.181  -2.885  0.00  0.00     0.163 C 
ATOM     27  C1  NON d   1     -49.624  16.191  -2.074  0.00  0.00     0.033 C 
ENDBRANCH  25  26
ENDBRANCH  24  25
ENDBRANCH  21  24
ENDBRANCH   1  20
TORSDOF 7
ENDMDL
MODEL 5
REMARK VINA RESULT:   -12.360      1.740      3.103
REMARK INTER + INTRA:         -15.452
REMARK INTER:                 -14.448
REMARK INTRA:                  -1.004
REMARK CONF_INDEPENDENT:        2.088
REMARK UNBOUND:                -1.004
REMARK  7 active torsions:
REMARK  status: ('A' for Active; 'I' for Inactive)
REMARK    1  A    between atoms: C2_2  and  O1_3 
REMARK    2  A    between atoms: O1_3  and  C3_4 
REMARK    3  A    between atoms: C3_4  and  C4_5 
REMARK       I    between atoms: C4_5  and  N1_7 
REMARK    4  A    between atoms: N1_7  and  N2_8 
REMARK       I    between atoms: N2_8  and  C5_9 
REMARK       I    between atoms: C5_9  and  N3_11 
REMARK    5  A    between atoms: N3_11  and  C6_12 
REMARK    6  A    between atoms: C6_12  and  C9_15 
REMARK       I    between atoms: C9_15  and  N4_17 
REMARK    7  A    between atoms: N4_17  and  C10_18 
ROOT
ATOM      1  N2  NON d   1     -44.123  18.713  -4.872  0.00  0.00    -0.249 N 
ATOM      2  C5  NON d   1     -42.750  18.800  -5.038  0.00  0.00     0.335 C 
ATOM      3  O3  NON d   1     -42.056  17.866  -5.429  0.00  0.00    -0.246 OA
ATOM      4  N3  NON d   1     -42.224  19.991  -4.540  0.00  0.00    -0.324 N 
ATOM      5  H9  NON d   1     -44.694  19.425  -5.325  0.00  0.00     0.192 HD
ATOM      6  H10 NON d   1     -42.829  20.541  -3.934  0.00  0.00     0.165 HD
ENDROOT
BRANCH   4   7
ATOM      7  C6  NON d   1     -40.680  20.079  -4.261  0.00  0.00     0.108 C 
ATOM      8  C7  NON d   1     -40.700  21.430  -5.001  0.00  0.00     0.049 C 
ATOM      9  C8  NON d   1     -40.660  18.728  -3.521  0.00  0.00     0.049 C 
BRANCH   7  10
ATOM     10  C9  NON d   1     -39.359  19.518  -5.069  0.00  0.00     0.249 C 
ATOM     11  O4  NON d   1     -38.467  18.852  -4.548  0.00  0.00    -0.270 OA
ATOM     12  N4  NON d   1     -39.387  19.892  -6.428  0.00  0.00    -0.325 N 
ATOM     13  H17 NON d   1     -39.872  20.751  -6.654  0.00  0.00     0.169 HD
BRANCH  12  14
ATOM     14  C10 NON d   1     -38.505  19.464  -7.434  0.00  0.00     0.034 A 
ATOM     15  C11 NON d   1     -37.641  18.401  -7.136  0.00  0.00     0.029 A 
ATOM     16  C12 NON d   1     -36.645  18.027  -8.039  0.00  0.00     0.002 A 
ATOM     17  C13 NON d   1     -36.475  18.750  -9.217  0.00  0.00     0.000 A 
ATOM     18  C14 NON d   1     -37.331  19.815  -9.509  0.00  0.00     0.002 A 
ATOM     19  C15 NON d   1     -38.364  20.157  -8.632  0.00  0.00     0.029 A 
ENDBRANCH  12  14
ENDBRANCH   7  10
ENDBRANCH   4   7
BRANCH   1  20
ATOM     20  N1  NON d   1     -44.668  17.407  -4.910  0.00  0.00    -0.264 N 
ATOM     21  C4  NON d   1     -45.877  17.168  -5.552  0.00  0.00     0.259 C 
ATOM     22  O2  NON d   1     -46.413  17.994  -6.285  0.00  0.00    -0.269 OA
ATOM     23  H8  NON d   1     -44.211  16.716  -4.320  0.00  0.00     0.190 HD
BRANCH  21  24
ATOM     24  C3  NON d   1     -46.463  15.785  -5.201  0.00  0.00     0.272 C 
BRANCH  24  25
ATOM     25  O1  NON d   1     -47.686  15.410  -5.809  0.00  0.00    -0.382 OA
BRANCH  25  26
ATOM     26  C2  NON d   1     -48.797  15.331  -4.920  0.00  0.00     0.163 C 
ATOM     27  C1  NON d   1     -48.361  15.093  -3.490  0.00  0.00     0.033 C 
ENDBRANCH  25  26
ENDBRANCH  24  25
ENDBRANCH  21  24
ENDBRANCH   1  20
TORSDOF 7
ENDMDL
MODEL 6
REMARK VINA RESULT:   -11.940      1.901      2.909
REMARK INTER + INTRA:         -15.200
REMARK INTER:                 -14.028
REMARK INTRA:                  -1.172
REMARK CONF_INDEPENDENT:        2.088
REMARK UNBOUND:                -1.172
REMARK  7 active torsions:
REMARK  status: ('A' for Active; 'I' for Inactive)
REMARK    1  A    between atoms: C2_2  and  O1_3 
REMARK    2  A    between atoms: O1_3  and  C3_4 
REMARK    3  A    between atoms: C3_4  and  C4_5 
REMARK       I    between atoms: C4_5  and  N1_7 
REMARK    4  A    between atoms: N1_7  and  N2_8 
REMARK       I    between atoms: N2_8  and  C5_9 
REMARK       I    between atoms: C5_9  and  N3_11 
REMARK    5  A    between atoms: N3_11  and  C6_12 
REMARK    6  A    between atoms: C6_12  and  C9_15 
REMARK       I    between atoms: C9_15  and  N4_17 
REMARK    7  A    between atoms: N4_17  and  C10_18 
ROOT
ATOM      1  N2  NON d   1     -44.616  17.246  -3.325  0.00  0.00    -0.249 N 
ATOM      2  C5  NON d   1     -43.638  17.987  -3.969  0.00  0.00     0.335 C 
ATOM      3  O3  NON d   1     -43.880  18.793  -4.862  0.00  0.00    -0.246 OA
ATOM      4  N3  NON d   1     -42.348  17.584  -3.628  0.00  0.00    -0.324 N 
ATOM      5  H9  NON d   1     -44.627  17.274  -2.306  0.00  0.00     0.192 HD
ATOM      6  H10 NON d   1     -42.259  16.691  -3.148  0.00  0.00     0.165 HD
ENDROOT
BRANCH   4   7
ATOM      7  C6  NON d   1     -41.152  18.008  -4.555  0.00  0.00     0.108 C 
ATOM      8  C7  NON d   1     -40.567  18.744  -3.335  0.00  0.00     0.049 C 
ATOM      9  C8  NON d   1     -41.737  17.272  -5.775  0.00  0.00     0.049 C 
BRANCH   7  10
ATOM     10  C9  NON d   1     -40.922  19.274  -5.582  0.00  0.00     0.249 C 
ATOM     11  O4  NON d   1     -41.433  20.382  -5.432  0.00  0.00    -0.270 OA
ATOM     12  N4  NON d   1     -40.065  18.928  -6.646  0.00  0.00    -0.325 N 
ATOM     13  H17 NON d   1     -40.059  17.956  -6.927  0.00  0.00     0.169 HD
BRANCH  12  14
ATOM     14  C10 NON d   1     -39.538  19.796  -7.617  0.00  0.00     0.034 A 
ATOM     15  C11 NON d   1     -40.353  20.846  -8.065  0.00  0.00     0.029 A 
ATOM     16  C12 NON d   1     -39.944  21.651  -9.129  0.00  0.00     0.002 A 
ATOM     17  C13 NON d   1     -38.746  21.375  -9.782  0.00  0.00     0.000 A 
ATOM     18  C14 NON d   1     -37.939  20.324  -9.340  0.00  0.00     0.002 A 
ATOM     19  C15 NON d   1     -38.320  19.550  -8.241  0.00  0.00     0.029 A 
ENDBRANCH  12  14
ENDBRANCH   7  10
ENDBRANCH   4   7
BRANCH   1  20
ATOM     20  N1  NON d   1     -45.896  17.253  -3.929  0.00  0.00    -0.264 N 
ATOM     21  C4  NON d   1     -46.067  16.770  -5.220  0.00  0.00     0.259 C 
ATOM     22  O2  NON d   1     -45.200  16.131  -5.810  0.00  0.00    -0.269 OA
ATOM     23  H8  NON d   1     -46.621  17.764  -3.431  0.00  0.00     0.190 HD
BRANCH  21  24
ATOM     24  C3  NON d   1     -47.433  17.167  -5.818  0.00  0.00     0.272 C 
BRANCH  24  25
ATOM     25  O1  NON d   1     -48.345  16.130  -6.134  0.00  0.00    -0.382 OA
BRANCH  25  26
ATOM     26  C2  NON d   1     -48.510  15.147  -5.114  0.00  0.00     0.163 C 
ATOM     27  C1  NON d   1     -48.876  15.771  -3.783  0.00  0.00     0.033 C 
ENDBRANCH  25  26
ENDBRANCH  24  25
ENDBRANCH  21  24
ENDBRANCH   1  20
TORSDOF 7
ENDMDL
MODEL 7
REMARK VINA RESULT:   -11.425      3.589      5.991
REMARK INTER + INTRA:         -15.477
REMARK INTER:                 -13.513
REMARK INTRA:                  -1.964
REMARK CONF_INDEPENDENT:        2.088
REMARK UNBOUND:                -1.964
REMARK  7 active torsions:
REMARK  status: ('A' for Active; 'I' for Inactive)
REMARK    1  A    between atoms: C2_2  and  O1_3 
REMARK    2  A    between atoms: O1_3  and  C3_4 
REMARK    3  A    between atoms: C3_4  and  C4_5 
REMARK       I    between atoms: C4_5  and  N1_7 
REMARK    4  A    between atoms: N1_7  and  N2_8 
REMARK       I    between atoms: N2_8  and  C5_9 
REMARK       I    between atoms: C5_9  and  N3_11 
REMARK    5  A    between atoms: N3_11  and  C6_12 
REMARK    6  A    between atoms: C6_12  and  C9_15 
REMARK       I    between atoms: C9_15  and  N4_17 
REMARK    7  A    between atoms: N4_17  and  C10_18 
ROOT
ATOM      1  N2  NON d   1     -51.389  16.702  -2.739  0.00  0.00    -0.249 N 
ATOM      2  C5  NON d   1     -50.115  16.239  -2.446  0.00  0.00     0.335 C 
ATOM      3  O3  NON d   1     -49.689  16.115  -1.302  0.00  0.00    -0.246 OA
ATOM      4  N3  NON d   1     -49.317  16.111  -3.581  0.00  0.00    -0.324 N 
ATOM      5  H9  NON d   1     -51.961  16.132  -3.361  0.00  0.00     0.192 HD
ATOM      6  H10 NON d   1     -49.652  16.561  -4.430  0.00  0.00     0.165 HD
ENDROOT
BRANCH   4   7
ATOM      7  C6  NON d   1     -47.758  16.014  -3.404  0.00  0.00     0.108 C 
ATOM      8  C7  NON d   1     -47.826  17.392  -2.721  0.00  0.00     0.049 C 
ATOM      9  C8  NON d   1     -47.691  14.635  -4.087  0.00  0.00     0.049 C 
BRANCH   7  10
ATOM     10  C9  NON d   1     -46.491  16.420  -4.373  0.00  0.00     0.249 C 
ATOM     11  O4  NON d   1     -46.509  16.339  -5.598  0.00  0.00    -0.270 OA
ATOM     12  N4  NON d   1     -45.389  16.875  -3.619  0.00  0.00    -0.325 N 
ATOM     13  H17 NON d   1     -45.296  16.507  -2.681  0.00  0.00     0.169 HD
BRANCH  12  14
ATOM     14  C10 NON d   1     -44.205  17.439  -4.121  0.00  0.00     0.034 A 
ATOM     15  C11 NON d   1     -42.991  17.011  -3.565  0.00  0.00     0.029 A 
ATOM     16  C12 NON d   1     -41.794  17.636  -3.916  0.00  0.00     0.002 A 
ATOM     17  C13 NON d   1     -41.814  18.727  -4.782  0.00  0.00     0.000 A 
ATOM     18  C14 NON d   1     -43.025  19.159  -5.328  0.00  0.00     0.002 A 
ATOM     19  C15 NON d   1     -44.218  18.500  -5.020  0.00  0.00     0.029 A 
ENDBRANCH  12  14
ENDBRANCH   7  10
ENDBRANCH   4   7
BRANCH   1  20
ATOM     20  N1  NON d   1     -52.095  17.292  -1.664  0.00  0.00    -0.264 N 
ATOM     21  C4  NON d   1     -53.482  17.374  -1.694  0.00  0.00     0.259 C 
ATOM     22  O2  NON d   1     -54.164  16.769  -2.515  0.00  0.00    -0.269 OA
ATOM     23  H8  NON d   1     -51.529  17.775  -0.971  0.00  0.00     0.190 HD
BRANCH  21  24
ATOM     24  C3  NON d   1     -54.035  18.332  -0.618  0.00  0.00     0.272 C 
BRANCH  24  25
ATOM     25  O1  NON d   1     -53.178  19.353  -0.137  0.00  0.00    -0.382 OA
BRANCH  25  26
ATOM     26  C2  NON d   1     -53.825  20.586   0.164  0.00  0.00     0.163 C 
ATOM     27  C1  NON d   1     -54.782  21.004  -0.934  0.00  0.00     0.033 C 
ENDBRANCH  25  26
ENDBRANCH  24  25
ENDBRANCH  21  24
ENDBRANCH   1  20
TORSDOF 7
ENDMDL
MODEL 8
REMARK VINA RESULT:   -10.434      1.526      2.231
REMARK INTER + INTRA:         -14.808
REMARK INTER:                 -12.522
REMARK INTRA:                  -2.286
REMARK CONF_INDEPENDENT:        2.088
REMARK UNBOUND:                -2.286
REMARK  7 active torsions:
REMARK  status: ('A' for Active; 'I' for Inactive)
REMARK    1  A    between atoms: C2_2  and  O1_3 
REMARK    2  A    between atoms: O1_3  and  C3_4 
REMARK    3  A    between atoms: C3_4  and  C4_5 
REMARK       I    between atoms: C4_5  and  N1_7 
REMARK    4  A    between atoms: N1_7  and  N2_8 
REMARK       I    between atoms: N2_8  and  C5_9 
REMARK       I    between atoms: C5_9  and  N3_11 
REMARK    5  A    between atoms: N3_11  and  C6_12 
REMARK    6  A    between atoms: C6_12  and  C9_15 
REMARK       I    between atoms: C9_15  and  N4_17 
REMARK    7  A    between atoms: N4_17  and  C10_18 
ROOT
ATOM      1  N2  NON d   1     -44.564  16.582  -5.057  0.00  0.00    -0.249 N 
ATOM      2  C5  NON d   1     -43.563  17.199  -4.322  0.00  0.00     0.335 C 
ATOM      3  O3  NON d   1     -43.669  17.467  -3.129  0.00  0.00    -0.246 OA
ATOM      4  N3  NON d   1     -42.511  17.647  -5.119  0.00  0.00    -0.324 N 
ATOM      5  H9  NON d   1     -44.307  15.752  -5.589  0.00  0.00     0.192 HD
ATOM      6  H10 NON d   1     -42.678  17.681  -6.122  0.00  0.00     0.165 HD
ENDROOT
BRANCH   4   7
ATOM      7  C6  NON d   1     -41.520  18.718  -4.533  0.00  0.00     0.108 C 
ATOM      8  C7  NON d   1     -42.270  19.764  -5.379  0.00  0.00     0.049 C 
ATOM      9  C8  NON d   1     -40.771  17.671  -3.687  0.00  0.00     0.049 C 
BRANCH   7  10
ATOM     10  C9  NON d   1     -40.027  19.236  -4.994  0.00  0.00     0.249 C 
ATOM     11  O4  NON d   1     -39.249  19.835  -4.255  0.00  0.00    -0.270 OA
ATOM     12  N4  NON d   1     -39.755  18.900  -6.336  0.00  0.00    -0.325 N 
ATOM     13  H17 NON d   1     -40.551  18.827  -6.957  0.00  0.00     0.169 HD
BRANCH  12  14
ATOM     14  C10 NON d   1     -38.531  19.055  -7.008  0.00  0.00     0.034 A 
ATOM     15  C11 NON d   1     -38.553  19.649  -8.278  0.00  0.00     0.029 A 
ATOM     16  C12 NON d   1     -37.395  19.697  -9.055  0.00  0.00     0.002 A 
ATOM     17  C13 NON d   1     -36.226  19.102  -8.587  0.00  0.00     0.000 A 
ATOM     18  C14 NON d   1     -36.207  18.503  -7.326  0.00  0.00     0.002 A 
ATOM     19  C15 NON d   1     -37.351  18.501  -6.523  0.00  0.00     0.029 A 
ENDBRANCH  12  14
ENDBRANCH   7  10
ENDBRANCH   4   7
BRANCH   1  20
ATOM     20  N1  NON d   1     -45.835  16.516  -4.437  0.00  0.00    -0.264 N 
ATOM     21  C4  NON d   1     -46.924  15.991  -5.122  0.00  0.00     0.259 C 
ATOM     22  O2  NON d   1     -46.810  15.377  -6.178  0.00  0.00    -0.269 OA
ATOM     23  H8  NON d   1     -45.924  17.007  -3.552  0.00  0.00     0.190 HD
BRANCH  21  24
ATOM     24  C3  NON d   1     -48.262  16.311  -4.424  0.00  0.00     0.272 C 
BRANCH  24  25
ATOM     25  O1  NON d   1     -48.215  16.965  -3.168  0.00  0.00    -0.382 OA
BRANCH  25  26
ATOM     26  C2  NON d   1     -49.147  16.480  -2.204  0.00  0.00     0.163 C 
ATOM     27  C1  NON d   1     -50.163  15.543  -2.823  0.00  0.00     0.033 C 
ENDBRANCH  25  26
ENDBRANCH  24  25
ENDBRANCH  21  24
ENDBRANCH   1  20
TORSDOF 7
ENDMDL
MODEL 9
REMARK VINA RESULT:   -10.399      3.678      5.449
REMARK INTER + INTRA:         -14.326
REMARK INTER:                 -12.487
REMARK INTRA:                  -1.839
REMARK CONF_INDEPENDENT:        2.088
REMARK UNBOUND:                -1.839
REMARK  7 active torsions:
REMARK  status: ('A' for Active; 'I' for Inactive)
REMARK    1  A    between atoms: C2_2  and  O1_3 
REMARK    2  A    between atoms: O1_3  and  C3_4 
REMARK    3  A    between atoms: C3_4  and  C4_5 
REMARK       I    between atoms: C4_5  and  N1_7 
REMARK    4  A    between atoms: N1_7  and  N2_8 
REMARK       I    between atoms: N2_8  and  C5_9 
REMARK       I    between atoms: C5_9  and  N3_11 
REMARK    5  A    between atoms: N3_11  and  C6_12 
REMARK    6  A    between atoms: C6_12  and  C9_15 
REMARK       I    between atoms: C9_15  and  N4_17 
REMARK    7  A    between atoms: N4_17  and  C10_18 
ROOT
ATOM      1  N2  NON d   1     -42.084  18.144  -5.015  0.00  0.00    -0.249 N 
ATOM      2  C5  NON d   1     -41.471  19.076  -5.837  0.00  0.00     0.335 C 
ATOM      3  O3  NON d   1     -42.078  19.985  -6.397  0.00  0.00    -0.246 OA
ATOM      4  N3  NON d   1     -40.141  18.762  -6.106  0.00  0.00    -0.324 N 
ATOM      5  H9  NON d   1     -41.686  18.008  -4.086  0.00  0.00     0.192 HD
ATOM      6  H10 NON d   1     -39.837  17.818  -5.876  0.00  0.00     0.165 HD
ENDROOT
BRANCH   4   7
ATOM      7  C6  NON d   1     -39.432  19.451  -7.328  0.00  0.00     0.108 C 
ATOM      8  C7  NON d   1     -39.298  20.706  -6.445  0.00  0.00     0.049 C 
ATOM      9  C8  NON d   1     -39.565  18.196  -8.211  0.00  0.00     0.049 C 
BRANCH   7  10
ATOM     10  C9  NON d   1     -39.998  20.280  -8.633  0.00  0.00     0.249 C 
ATOM     11  O4  NON d   1     -41.070  20.043  -9.185  0.00  0.00    -0.270 OA
ATOM     12  N4  NON d   1     -39.103  21.295  -9.030  0.00  0.00    -0.325 N 
ATOM     13  H17 NON d   1     -38.122  21.138  -8.834  0.00  0.00     0.169 HD
BRANCH  12  14
ATOM     14  C10 NON d   1     -39.331  22.281 -10.003  0.00  0.00     0.034 A 
ATOM     15  C11 NON d   1     -39.930  23.480  -9.590  0.00  0.00     0.029 A 
ATOM     16  C12 NON d   1     -40.315  24.436 -10.530  0.00  0.00     0.002 A 
ATOM     17  C13 NON d   1     -40.152  24.174 -11.888  0.00  0.00     0.000 A 
ATOM     18  C14 NON d   1     -39.563  22.976 -12.299  0.00  0.00     0.002 A 
ATOM     19  C15 NON d   1     -39.127  22.039 -11.358  0.00  0.00     0.029 A 
ENDBRANCH  12  14
ENDBRANCH   7  10
ENDBRANCH   4   7
BRANCH   1  20
ATOM     20  N1  NON d   1     -43.498  18.114  -5.060  0.00  0.00    -0.264 N 
ATOM     21  C4  NON d   1     -44.206  17.179  -4.315  0.00  0.00     0.259 C 
ATOM     22  O2  NON d   1     -43.684  16.496  -3.439  0.00  0.00    -0.269 OA
ATOM     23  H8  NON d   1     -43.933  18.696  -5.772  0.00  0.00     0.190 HD
BRANCH  21  24
ATOM     24  C3  NON d   1     -45.684  17.083  -4.750  0.00  0.00     0.272 C 
BRANCH  24  25
ATOM     25  O1  NON d   1     -46.006  16.199  -5.809  0.00  0.00    -0.382 OA
BRANCH  25  26
ATOM     26  C2  NON d   1     -47.352  15.729  -5.809  0.00  0.00     0.163 C 
ATOM     27  C1  NON d   1     -47.885  15.544  -4.403  0.00  0.00     0.033 C 
ENDBRANCH  25  26
ENDBRANCH  24  25
ENDBRANCH  21  24
ENDBRANCH   1  20
TORSDOF 7
ENDMDL
