MODEL 1
REMARK VINA RESULT:   -30.586      0.000      0.000
REMARK INTER + INTRA:         -32.694
REMARK INTER:                 -33.569
REMARK INTRA:                   0.875
REMARK CONF_INDEPENDENT:        2.983
REMARK UNBOUND:                 0.875
REMARK  10 active torsions:
REMARK  status: ('A' for Active; 'I' for Inactive)
REMARK    1  A    between atoms: C2_2  and  C4_4 
REMARK    2  A    between atoms: C4_4  and  C5_5 
REMARK    3  A    between atoms: C9_9  and  C8_8 
REMARK    4  A    between atoms: C9_9  and  C11_11 
REMARK       I    between atoms: C11_11  and  N1_13 
REMARK    5  A    between atoms: N1_13  and  N2_14 
REMARK    6  A    between atoms: C12_15  and  C13_16 
REMARK    7  A    between atoms: C16_19  and  O2_20 
REMARK    8  A    between atoms: O2_20  and  C17_21 
REMARK    9  A    between atoms: C20_24  and  N3_25 
REMARK   10  A    between atoms: C22_29  and  N4_30 
ROOT
ATOM      1  C13 NON d   1     -44.845  17.575  -4.967  0.00  0.00    -0.017 A 
ATOM      2  C14 NON d   1     -43.685  16.884  -4.600  0.00  0.00     0.015 A 
ATOM      3  C15 NON d   1     -42.409  17.492  -4.646  0.00  0.00     0.038 A 
ATOM      4  C16 NON d   1     -42.242  18.789  -5.114  0.00  0.00     0.076 A 
ATOM      5  C23 NON d   1     -43.422  19.488  -5.453  0.00  0.00     0.038 A 
ATOM      6  C24 NON d   1     -44.709  18.899  -5.376  0.00  0.00     0.015 A 
ENDROOT
BRANCH   1   7
ATOM      7  C12 NON d   1     -46.147  16.835  -4.891  0.00  0.00     0.150 C 
ATOM      8  N2  NON d   1     -47.066  16.845  -5.810  0.00  0.00    -0.184 NA
BRANCH   8   9
ATOM      9  N1  NON d   1     -48.214  16.082  -5.559  0.00  0.00    -0.247 N 
ATOM     10  C11 NON d   1     -48.657  15.936  -4.242  0.00  0.00     0.245 C 
ATOM     11  O1  NON d   1     -48.028  16.480  -3.326  0.00  0.00    -0.271 OA
ATOM     12  H16 NON d   1     -48.713  15.684  -6.342  0.00  0.00     0.192 HD
BRANCH  10  13
ATOM     13  C9  NON d   1     -49.925  15.117  -3.936  0.00  0.00     0.108 C 
ATOM     14  C10 NON d   1     -50.285  13.902  -4.810  0.00  0.00     0.025 C 
BRANCH  13  15
ATOM     15  C8  NON d   1     -50.862  15.848  -2.728  0.00  0.00    -0.045 A 
ATOM     16  C7  NON d   1     -50.251  16.651  -1.709  0.00  0.00     0.008 A 
ATOM     17  C6  NON d   1     -50.963  17.608  -0.944  0.00  0.00     0.007 A 
ATOM     18  C5  NON d   1     -52.354  17.730  -1.026  0.00  0.00    -0.058 A 
ATOM     19  C26 NON d   1     -52.988  16.877  -1.955  0.00  0.00     0.007 A 
ATOM     20  C25 NON d   1     -52.259  15.978  -2.807  0.00  0.00     0.008 A 
BRANCH  18  21
ATOM     21  C4  NON d   1     -53.084  18.742  -0.085  0.00  0.00     0.042 C 
BRANCH  21  22
ATOM     22  C2  NON d   1     -54.557  19.030  -0.430  0.00  0.00    -0.019 C 
ATOM     23  C1  NON d   1     -55.192  18.399  -1.683  0.00  0.00     0.010 C 
ATOM     24  C3  NON d   1     -54.561  20.636  -0.437  0.00  0.00     0.010 C 
ENDBRANCH  21  22
ENDBRANCH  18  21
ENDBRANCH  13  15
ENDBRANCH  10  13
ENDBRANCH   8   9
ENDBRANCH   1   7
BRANCH   4  25
ATOM     25  O2  NON d   1     -41.089  19.522  -5.310  0.00  0.00    -0.308 OA
BRANCH  25  26
ATOM     26  C17 NON d   1     -40.694  20.300  -6.378  0.00  0.00     0.109 A 
ATOM     27  C18 NON d   1     -40.619  21.695  -6.415  0.00  0.00     0.042 A 
ATOM     28  C19 NON d   1     -40.190  22.392  -7.563  0.00  0.00     0.039 A 
ATOM     29  C20 NON d   1     -39.769  21.696  -8.698  0.00  0.00     0.105 A 
ATOM     30  C21 NON d   1     -39.771  20.306  -8.691  0.00  0.00     0.075 A 
ATOM     31  C22 NON d   1     -40.228  19.627  -7.538  0.00  0.00     0.139 A 
BRANCH  29  32
ATOM     32  N3  NON d   1     -39.294  22.434  -9.885  0.00  0.00    -0.116 N 
ATOM     33  O3  NON d   1     -39.192  21.794 -10.938  0.00  0.00    -0.532 OA
ATOM     34  O4  NON d   1     -39.045  23.637  -9.762  0.00  0.00    -0.532 OA
ENDBRANCH  29  32
BRANCH  31  35
ATOM     35  N4  NON d   1     -40.144  18.166  -7.579  0.00  0.00    -0.113 N 
ATOM     36  O5  NON d   1     -40.687  17.524  -6.675  0.00  0.00    -0.532 OA
ATOM     37  O6  NON d   1     -39.574  17.669  -8.561  0.00  0.00    -0.532 OA
ENDBRANCH  31  35
ENDBRANCH  25  26
ENDBRANCH   4  25
TORSDOF 10
ENDMDL
MODEL 2
REMARK VINA RESULT:   -30.144      1.287      1.935
REMARK INTER + INTRA:         -33.805
REMARK INTER:                 -33.127
REMARK INTRA:                  -0.678
REMARK CONF_INDEPENDENT:        2.983
REMARK UNBOUND:                -0.678
REMARK  10 active torsions:
REMARK  status: ('A' for Active; 'I' for Inactive)
REMARK    1  A    between atoms: C2_2  and  C4_4 
REMARK    2  A    between atoms: C4_4  and  C5_5 
REMARK    3  A    between atoms: C9_9  and  C8_8 
REMARK    4  A    between atoms: C9_9  and  C11_11 
REMARK       I    between atoms: C11_11  and  N1_13 
REMARK    5  A    between atoms: N1_13  and  N2_14 
REMARK    6  A    between atoms: C12_15  and  C13_16 
REMARK    7  A    between atoms: C16_19  and  O2_20 
REMARK    8  A    between atoms: O2_20  and  C17_21 
REMARK    9  A    between atoms: C20_24  and  N3_25 
REMARK   10  A    between atoms: C22_29  and  N4_30 
ROOT
ATOM      1  C13 NON d   1     -44.763  17.214  -4.978  0.00  0.00    -0.017 A 
ATOM      2  C14 NON d   1     -44.760  18.604  -5.145  0.00  0.00     0.015 A 
ATOM      3  C15 NON d   1     -43.566  19.324  -5.376  0.00  0.00     0.038 A 
ATOM      4  C16 NON d   1     -42.330  18.691  -5.392  0.00  0.00     0.076 A 
ATOM      5  C23 NON d   1     -42.346  17.286  -5.253  0.00  0.00     0.038 A 
ATOM      6  C24 NON d   1     -43.542  16.549  -5.057  0.00  0.00     0.015 A 
ENDROOT
BRANCH   1   7
ATOM      7  C12 NON d   1     -46.082  16.547  -4.728  0.00  0.00     0.150 C 
ATOM      8  N2  NON d   1     -47.068  16.505  -5.574  0.00  0.00    -0.184 NA
BRANCH   8   9
ATOM      9  N1  NON d   1     -48.223  15.826  -5.160  0.00  0.00    -0.247 N 
ATOM     10  C11 NON d   1     -48.740  16.082  -3.887  0.00  0.00     0.245 C 
ATOM     11  O1  NON d   1     -48.170  16.898  -3.152  0.00  0.00    -0.271 OA
ATOM     12  H16 NON d   1     -48.671  15.194  -5.806  0.00  0.00     0.192 HD
BRANCH  10  13
ATOM     13  C9  NON d   1     -50.016  15.363  -3.411  0.00  0.00     0.108 C 
ATOM     14  C10 NON d   1     -50.276  13.903  -3.822  0.00  0.00     0.025 C 
BRANCH  13  15
ATOM     15  C8  NON d   1     -51.069  16.427  -2.616  0.00  0.00    -0.045 A 
ATOM     16  C7  NON d   1     -52.487  16.339  -2.809  0.00  0.00     0.008 A 
ATOM     17  C6  NON d   1     -53.430  16.880  -1.899  0.00  0.00     0.007 A 
ATOM     18  C5  NON d   1     -53.037  17.676  -0.819  0.00  0.00    -0.058 A 
ATOM     19  C26 NON d   1     -51.646  17.857  -0.667  0.00  0.00     0.007 A 
ATOM     20  C25 NON d   1     -50.682  17.225  -1.526  0.00  0.00     0.008 A 
BRANCH  18  21
ATOM     21  C4  NON d   1     -54.136  18.316   0.090  0.00  0.00     0.042 C 
BRANCH  21  22
ATOM     22  C2  NON d   1     -55.203  19.151  -0.642  0.00  0.00    -0.019 C 
ATOM     23  C1  NON d   1     -55.663  18.744  -2.055  0.00  0.00     0.010 C 
ATOM     24  C3  NON d   1     -54.550  20.616  -0.567  0.00  0.00     0.010 C 
ENDBRANCH  21  22
ENDBRANCH  18  21
ENDBRANCH  13  15
ENDBRANCH  10  13
ENDBRANCH   8   9
ENDBRANCH   1   7
BRANCH   4  25
ATOM     25  O2  NON d   1     -41.061  19.220  -5.519  0.00  0.00    -0.308 OA
BRANCH  25  26
ATOM     26  C17 NON d   1     -40.652  20.503  -5.815  0.00  0.00     0.109 A 
ATOM     27  C18 NON d   1     -40.371  21.523  -4.903  0.00  0.00     0.042 A 
ATOM     28  C19 NON d   1     -39.947  22.803  -5.317  0.00  0.00     0.039 A 
ATOM     29  C20 NON d   1     -39.741  23.078  -6.670  0.00  0.00     0.105 A 
ATOM     30  C21 NON d   1     -39.954  22.078  -7.613  0.00  0.00     0.075 A 
ATOM     31  C22 NON d   1     -40.401  20.809  -7.179  0.00  0.00     0.139 A 
BRANCH  29  32
ATOM     32  N3  NON d   1     -39.271  24.412  -7.092  0.00  0.00    -0.116 N 
ATOM     33  O3  NON d   1     -38.049  24.602  -7.087  0.00  0.00    -0.532 OA
ATOM     34  O4  NON d   1     -40.115  25.245  -7.435  0.00  0.00    -0.532 OA
ENDBRANCH  29  32
BRANCH  31  35
ATOM     35  N4  NON d   1     -40.543  19.789  -8.219  0.00  0.00    -0.113 N 
ATOM     36  O5  NON d   1     -41.285  20.031  -9.176  0.00  0.00    -0.532 OA
ATOM     37  O6  NON d   1     -39.857  18.765  -8.091  0.00  0.00    -0.532 OA
ENDBRANCH  31  35
ENDBRANCH  25  26
ENDBRANCH   4  25
TORSDOF 10
ENDMDL
MODEL 3
REMARK VINA RESULT:   -29.349      1.215      1.924
REMARK INTER + INTRA:         -32.790
REMARK INTER:                 -32.332
REMARK INTRA:                  -0.459
REMARK CONF_INDEPENDENT:        2.983
REMARK UNBOUND:                -0.459
REMARK  10 active torsions:
REMARK  status: ('A' for Active; 'I' for Inactive)
REMARK    1  A    between atoms: C2_2  and  C4_4 
REMARK    2  A    between atoms: C4_4  and  C5_5 
REMARK    3  A    between atoms: C9_9  and  C8_8 
REMARK    4  A    between atoms: C9_9  and  C11_11 
REMARK       I    between atoms: C11_11  and  N1_13 
REMARK    5  A    between atoms: N1_13  and  N2_14 
REMARK    6  A    between atoms: C12_15  and  C13_16 
REMARK    7  A    between atoms: C16_19  and  O2_20 
REMARK    8  A    between atoms: O2_20  and  C17_21 
REMARK    9  A    between atoms: C20_24  and  N3_25 
REMARK   10  A    between atoms: C22_29  and  N4_30 
ROOT
ATOM      1  C13 NON d   1     -44.792  17.472  -5.018  0.00  0.00    -0.017 A 
ATOM      2  C14 NON d   1     -43.631  16.698  -4.901  0.00  0.00     0.015 A 
ATOM      3  C15 NON d   1     -42.342  17.274  -4.976  0.00  0.00     0.038 A 
ATOM      4  C16 NON d   1     -42.167  18.629  -5.224  0.00  0.00     0.076 A 
ATOM      5  C23 NON d   1     -43.344  19.406  -5.310  0.00  0.00     0.038 A 
ATOM      6  C24 NON d   1     -44.641  18.844  -5.201  0.00  0.00     0.015 A 
ENDROOT
BRANCH   1   7
ATOM      7  C12 NON d   1     -46.110  16.762  -4.934  0.00  0.00     0.150 C 
ATOM      8  N2  NON d   1     -47.065  16.857  -5.810  0.00  0.00    -0.184 NA
BRANCH   8   9
ATOM      9  N1  NON d   1     -48.224  16.108  -5.561  0.00  0.00    -0.247 N 
ATOM     10  C11 NON d   1     -48.622  15.895  -4.239  0.00  0.00     0.245 C 
ATOM     11  O1  NON d   1     -47.946  16.368  -3.317  0.00  0.00    -0.271 OA
ATOM     12  H16 NON d   1     -48.761  15.770  -6.346  0.00  0.00     0.192 HD
BRANCH  10  13
ATOM     13  C9  NON d   1     -49.899  15.090  -3.934  0.00  0.00     0.108 C 
ATOM     14  C10 NON d   1     -50.272  13.879  -4.808  0.00  0.00     0.025 C 
BRANCH  13  15
ATOM     15  C8  NON d   1     -50.829  15.831  -2.726  0.00  0.00    -0.045 A 
ATOM     16  C7  NON d   1     -50.209  16.619  -1.702  0.00  0.00     0.008 A 
ATOM     17  C6  NON d   1     -50.908  17.585  -0.935  0.00  0.00     0.007 A 
ATOM     18  C5  NON d   1     -52.296  17.729  -1.022  0.00  0.00    -0.058 A 
ATOM     19  C26 NON d   1     -52.940  16.891  -1.956  0.00  0.00     0.007 A 
ATOM     20  C25 NON d   1     -52.223  15.984  -2.810  0.00  0.00     0.008 A 
BRANCH  18  21
ATOM     21  C4  NON d   1     -53.013  18.750  -0.079  0.00  0.00     0.042 C 
BRANCH  21  22
ATOM     22  C2  NON d   1     -54.388  19.249  -0.560  0.00  0.00    -0.019 C 
ATOM     23  C1  NON d   1     -54.630  20.755  -0.770  0.00  0.00     0.010 C 
ATOM     24  C3  NON d   1     -55.355  18.581   0.534  0.00  0.00     0.010 C 
ENDBRANCH  21  22
ENDBRANCH  18  21
ENDBRANCH  13  15
ENDBRANCH  10  13
ENDBRANCH   8   9
ENDBRANCH   1   7
BRANCH   4  25
ATOM     25  O2  NON d   1     -41.010  19.358  -5.410  0.00  0.00    -0.308 OA
BRANCH  25  26
ATOM     26  C17 NON d   1     -40.656  20.234  -6.414  0.00  0.00     0.109 A 
ATOM     27  C18 NON d   1     -40.713  20.000  -7.790  0.00  0.00     0.042 A 
ATOM     28  C19 NON d   1     -40.334  20.976  -8.734  0.00  0.00     0.039 A 
ATOM     29  C20 NON d   1     -39.934  22.247  -8.316  0.00  0.00     0.105 A 
ATOM     30  C21 NON d   1     -39.914  22.549  -6.959  0.00  0.00     0.075 A 
ATOM     31  C22 NON d   1     -40.275  21.548  -6.028  0.00  0.00     0.139 A 
BRANCH  29  32
ATOM     32  N3  NON d   1     -39.566  23.272  -9.312  0.00  0.00    -0.116 N 
ATOM     33  O3  NON d   1     -38.633  23.000 -10.077  0.00  0.00    -0.532 OA
ATOM     34  O4  NON d   1     -40.214  24.323  -9.333  0.00  0.00    -0.532 OA
ENDBRANCH  29  32
BRANCH  31  35
ATOM     35  N4  NON d   1     -40.290  21.954  -4.622  0.00  0.00    -0.113 N 
ATOM     36  O5  NON d   1     -41.300  22.516  -4.188  0.00  0.00    -0.532 OA
ATOM     37  O6  NON d   1     -39.297  21.652  -3.945  0.00  0.00    -0.532 OA
ENDBRANCH  31  35
ENDBRANCH  25  26
ENDBRANCH   4  25
TORSDOF 10
ENDMDL
MODEL 4
REMARK VINA RESULT:   -29.045      1.574      2.419
REMARK INTER + INTRA:         -32.407
REMARK INTER:                 -32.028
REMARK INTRA:                  -0.379
REMARK CONF_INDEPENDENT:        2.983
REMARK UNBOUND:                -0.379
REMARK  10 active torsions:
REMARK  status: ('A' for Active; 'I' for Inactive)
REMARK    1  A    between atoms: C2_2  and  C4_4 
REMARK    2  A    between atoms: C4_4  and  C5_5 
REMARK    3  A    between atoms: C9_9  and  C8_8 
REMARK    4  A    between atoms: C9_9  and  C11_11 
REMARK       I    between atoms: C11_11  and  N1_13 
REMARK    5  A    between atoms: N1_13  and  N2_14 
REMARK    6  A    between atoms: C12_15  and  C13_16 
REMARK    7  A    between atoms: C16_19  and  O2_20 
REMARK    8  A    between atoms: O2_20  and  C17_21 
REMARK    9  A    between atoms: C20_24  and  N3_25 
REMARK   10  A    between atoms: C22_29  and  N4_30 
ROOT
ATOM      1  C13 NON d   1     -44.868  17.369  -4.663  0.00  0.00    -0.017 A 
ATOM      2  C14 NON d   1     -44.859  18.634  -5.263  0.00  0.00     0.015 A 
ATOM      3  C15 NON d   1     -43.660  19.356  -5.462  0.00  0.00     0.038 A 
ATOM      4  C16 NON d   1     -42.438  18.866  -5.019  0.00  0.00     0.076 A 
ATOM      5  C23 NON d   1     -42.453  17.576  -4.443  0.00  0.00     0.038 A 
ATOM      6  C24 NON d   1     -43.646  16.829  -4.271  0.00  0.00     0.015 A 
ENDROOT
BRANCH   1   7
ATOM      7  C12 NON d   1     -46.195  16.692  -4.489  0.00  0.00     0.150 C 
ATOM      8  N2  NON d   1     -47.066  16.505  -5.435  0.00  0.00    -0.184 NA
BRANCH   8   9
ATOM      9  N1  NON d   1     -48.249  15.843  -5.078  0.00  0.00    -0.247 N 
ATOM     10  C11 NON d   1     -48.778  16.043  -3.801  0.00  0.00     0.245 C 
ATOM     11  O1  NON d   1     -48.194  16.796  -3.012  0.00  0.00    -0.271 OA
ATOM     12  H16 NON d   1     -48.707  15.264  -5.767  0.00  0.00     0.192 HD
BRANCH  10  13
ATOM     13  C9  NON d   1     -50.086  15.343  -3.386  0.00  0.00     0.108 C 
ATOM     14  C10 NON d   1     -50.367  13.902  -3.848  0.00  0.00     0.025 C 
BRANCH  13  15
ATOM     15  C8  NON d   1     -51.139  16.409  -2.593  0.00  0.00    -0.045 A 
ATOM     16  C7  NON d   1     -52.554  16.340  -2.809  0.00  0.00     0.008 A 
ATOM     17  C6  NON d   1     -53.504  16.880  -1.906  0.00  0.00     0.007 A 
ATOM     18  C5  NON d   1     -53.119  17.658  -0.809  0.00  0.00    -0.058 A 
ATOM     19  C26 NON d   1     -51.728  17.821  -0.635  0.00  0.00     0.007 A 
ATOM     20  C25 NON d   1     -50.758  17.189  -1.487  0.00  0.00     0.008 A 
BRANCH  18  21
ATOM     21  C4  NON d   1     -54.223  18.300   0.091  0.00  0.00     0.042 C 
BRANCH  21  22
ATOM     22  C2  NON d   1     -55.239  19.199  -0.639  0.00  0.00    -0.019 C 
ATOM     23  C1  NON d   1     -55.682  18.854  -2.073  0.00  0.00     0.010 C 
ATOM     24  C3  NON d   1     -54.529  20.633  -0.504  0.00  0.00     0.010 C 
ENDBRANCH  21  22
ENDBRANCH  18  21
ENDBRANCH  13  15
ENDBRANCH  10  13
ENDBRANCH   8   9
ENDBRANCH   1   7
BRANCH   4  25
ATOM     25  O2  NON d   1     -41.185  19.445  -5.046  0.00  0.00    -0.308 OA
BRANCH  25  26
ATOM     26  C17 NON d   1     -40.249  19.506  -6.056  0.00  0.00     0.109 A 
ATOM     27  C18 NON d   1     -40.003  18.534  -7.029  0.00  0.00     0.042 A 
ATOM     28  C19 NON d   1     -39.022  18.704  -8.028  0.00  0.00     0.039 A 
ATOM     29  C20 NON d   1     -38.292  19.891  -8.108  0.00  0.00     0.105 A 
ATOM     30  C21 NON d   1     -38.539  20.912  -7.196  0.00  0.00     0.075 A 
ATOM     31  C22 NON d   1     -39.510  20.711  -6.189  0.00  0.00     0.139 A 
BRANCH  29  32
ATOM     32  N3  NON d   1     -37.287  20.072  -9.174  0.00  0.00    -0.116 N 
ATOM     33  O3  NON d   1     -36.402  19.213  -9.260  0.00  0.00    -0.532 OA
ATOM     34  O4  NON d   1     -37.397  21.051  -9.918  0.00  0.00    -0.532 OA
ENDBRANCH  29  32
BRANCH  31  35
ATOM     35  N4  NON d   1     -39.760  21.850  -5.304  0.00  0.00    -0.113 N 
ATOM     36  O5  NON d   1     -39.345  21.789  -4.142  0.00  0.00    -0.532 OA
ATOM     37  O6  NON d   1     -40.329  22.830  -5.806  0.00  0.00    -0.532 OA
ENDBRANCH  31  35
ENDBRANCH  25  26
ENDBRANCH   4  25
TORSDOF 10
ENDMDL
MODEL 5
REMARK VINA RESULT:   -28.152      2.299      2.918
REMARK INTER + INTRA:         -31.358
REMARK INTER:                 -31.135
REMARK INTRA:                  -0.223
REMARK CONF_INDEPENDENT:        2.983
REMARK UNBOUND:                -0.223
REMARK  10 active torsions:
REMARK  status: ('A' for Active; 'I' for Inactive)
REMARK    1  A    between atoms: C2_2  and  C4_4 
REMARK    2  A    between atoms: C4_4  and  C5_5 
REMARK    3  A    between atoms: C9_9  and  C8_8 
REMARK    4  A    between atoms: C9_9  and  C11_11 
REMARK       I    between atoms: C11_11  and  N1_13 
REMARK    5  A    between atoms: N1_13  and  N2_14 
REMARK    6  A    between atoms: C12_15  and  C13_16 
REMARK    7  A    between atoms: C16_19  and  O2_20 
REMARK    8  A    between atoms: O2_20  and  C17_21 
REMARK    9  A    between atoms: C20_24  and  N3_25 
REMARK   10  A    between atoms: C22_29  and  N4_30 
ROOT
ATOM      1  C13 NON d   1     -44.863  17.410  -4.864  0.00  0.00    -0.017 A 
ATOM      2  C14 NON d   1     -43.712  16.613  -4.890  0.00  0.00     0.015 A 
ATOM      3  C15 NON d   1     -42.428  17.167  -5.093  0.00  0.00     0.038 A 
ATOM      4  C16 NON d   1     -42.254  18.524  -5.334  0.00  0.00     0.076 A 
ATOM      5  C23 NON d   1     -43.418  19.323  -5.276  0.00  0.00     0.038 A 
ATOM      6  C24 NON d   1     -44.706  18.782  -5.037  0.00  0.00     0.015 A 
ENDROOT
BRANCH   1   7
ATOM      7  C12 NON d   1     -46.178  16.722  -4.651  0.00  0.00     0.150 C 
ATOM      8  N2  NON d   1     -47.065  16.505  -5.576  0.00  0.00    -0.184 NA
BRANCH   8   9
ATOM      9  N1  NON d   1     -48.234  15.838  -5.182  0.00  0.00    -0.247 N 
ATOM     10  C11 NON d   1     -48.747  16.066  -3.903  0.00  0.00     0.245 C 
ATOM     11  O1  NON d   1     -48.162  16.849  -3.145  0.00  0.00    -0.271 OA
ATOM     12  H16 NON d   1     -48.694  15.233  -5.848  0.00  0.00     0.192 HD
BRANCH  10  13
ATOM     13  C9  NON d   1     -50.038  15.360  -3.449  0.00  0.00     0.108 C 
ATOM     14  C10 NON d   1     -50.319  13.912  -3.889  0.00  0.00     0.025 C 
BRANCH  13  15
ATOM     15  C8  NON d   1     -51.079  16.426  -2.641  0.00  0.00    -0.045 A 
ATOM     16  C7  NON d   1     -52.500  16.335  -2.809  0.00  0.00     0.008 A 
ATOM     17  C6  NON d   1     -53.428  16.878  -1.886  0.00  0.00     0.007 A 
ATOM     18  C5  NON d   1     -53.018  17.679  -0.816  0.00  0.00    -0.058 A 
ATOM     19  C26 NON d   1     -51.625  17.864  -0.688  0.00  0.00     0.007 A 
ATOM     20  C25 NON d   1     -50.674  17.229  -1.561  0.00  0.00     0.008 A 
BRANCH  18  21
ATOM     21  C4  NON d   1     -54.102  18.323   0.109  0.00  0.00     0.042 C 
BRANCH  21  22
ATOM     22  C2  NON d   1     -55.220  19.097  -0.614  0.00  0.00    -0.019 C 
ATOM     23  C1  NON d   1     -55.576  18.753  -2.073  0.00  0.00     0.010 C 
ATOM     24  C3  NON d   1     -54.730  20.610  -0.403  0.00  0.00     0.010 C 
ENDBRANCH  21  22
ENDBRANCH  18  21
ENDBRANCH  13  15
ENDBRANCH  10  13
ENDBRANCH   8   9
ENDBRANCH   1   7
BRANCH   4  25
ATOM     25  O2  NON d   1     -41.109  19.235  -5.631  0.00  0.00    -0.308 OA
BRANCH  25  26
ATOM     26  C17 NON d   1     -40.532  20.311  -4.990  0.00  0.00     0.109 A 
ATOM     27  C18 NON d   1     -40.635  20.631  -3.634  0.00  0.00     0.042 A 
ATOM     28  C19 NON d   1     -39.992  21.756  -3.078  0.00  0.00     0.039 A 
ATOM     29  C20 NON d   1     -39.175  22.567  -3.869  0.00  0.00     0.105 A 
ATOM     30  C21 NON d   1     -38.995  22.258  -5.212  0.00  0.00     0.075 A 
ATOM     31  C22 NON d   1     -39.668  21.140  -5.755  0.00  0.00     0.139 A 
BRANCH  29  32
ATOM     32  N3  NON d   1     -38.483  23.726  -3.272  0.00  0.00    -0.116 N 
ATOM     33  O3  NON d   1     -38.424  24.755  -3.955  0.00  0.00    -0.532 OA
ATOM     34  O4  NON d   1     -38.021  23.606  -2.133  0.00  0.00    -0.532 OA
ENDBRANCH  29  32
BRANCH  31  35
ATOM     35  N4  NON d   1     -39.384  20.839  -7.159  0.00  0.00    -0.113 N 
ATOM     36  O5  NON d   1     -38.204  20.804  -7.521  0.00  0.00    -0.532 OA
ATOM     37  O6  NON d   1     -40.358  20.583  -7.881  0.00  0.00    -0.532 OA
ENDBRANCH  31  35
ENDBRANCH  25  26
ENDBRANCH   4  25
TORSDOF 10
ENDMDL
MODEL 6
REMARK VINA RESULT:   -27.904      2.411      3.168
REMARK INTER + INTRA:         -31.397
REMARK INTER:                 -30.887
REMARK INTRA:                  -0.509
REMARK CONF_INDEPENDENT:        2.983
REMARK UNBOUND:                -0.509
REMARK  10 active torsions:
REMARK  status: ('A' for Active; 'I' for Inactive)
REMARK    1  A    between atoms: C2_2  and  C4_4 
REMARK    2  A    between atoms: C4_4  and  C5_5 
REMARK    3  A    between atoms: C9_9  and  C8_8 
REMARK    4  A    between atoms: C9_9  and  C11_11 
REMARK       I    between atoms: C11_11  and  N1_13 
REMARK    5  A    between atoms: N1_13  and  N2_14 
REMARK    6  A    between atoms: C12_15  and  C13_16 
REMARK    7  A    between atoms: C16_19  and  O2_20 
REMARK    8  A    between atoms: O2_20  and  C17_21 
REMARK    9  A    between atoms: C20_24  and  N3_25 
REMARK   10  A    between atoms: C22_29  and  N4_30 
ROOT
ATOM      1  C13 NON d   1     -44.862  17.417  -4.897  0.00  0.00    -0.017 A 
ATOM      2  C14 NON d   1     -43.709  16.624  -4.896  0.00  0.00     0.015 A 
ATOM      3  C15 NON d   1     -42.425  17.176  -5.106  0.00  0.00     0.038 A 
ATOM      4  C16 NON d   1     -42.253  18.528  -5.379  0.00  0.00     0.076 A 
ATOM      5  C23 NON d   1     -43.419  19.324  -5.346  0.00  0.00     0.038 A 
ATOM      6  C24 NON d   1     -44.708  18.786  -5.101  0.00  0.00     0.015 A 
ENDROOT
BRANCH   1   7
ATOM      7  C12 NON d   1     -46.176  16.731  -4.674  0.00  0.00     0.150 C 
ATOM      8  N2  NON d   1     -47.065  16.505  -5.595  0.00  0.00    -0.184 NA
BRANCH   8   9
ATOM      9  N1  NON d   1     -48.232  15.841  -5.193  0.00  0.00    -0.247 N 
ATOM     10  C11 NON d   1     -48.710  16.036  -3.895  0.00  0.00     0.245 C 
ATOM     11  O1  NON d   1     -48.095  16.786  -3.127  0.00  0.00    -0.271 OA
ATOM     12  H16 NON d   1     -48.718  15.264  -5.865  0.00  0.00     0.192 HD
BRANCH  10  13
ATOM     13  C9  NON d   1     -49.999  15.332  -3.430  0.00  0.00     0.108 C 
ATOM     14  C10 NON d   1     -50.280  13.880  -3.856  0.00  0.00     0.025 C 
BRANCH  13  15
ATOM     15  C8  NON d   1     -51.039  16.405  -2.629  0.00  0.00    -0.045 A 
ATOM     16  C7  NON d   1     -52.459  16.325  -2.810  0.00  0.00     0.008 A 
ATOM     17  C6  NON d   1     -53.390  16.873  -1.893  0.00  0.00     0.007 A 
ATOM     18  C5  NON d   1     -52.984  17.670  -0.818  0.00  0.00    -0.058 A 
ATOM     19  C26 NON d   1     -51.590  17.843  -0.679  0.00  0.00     0.007 A 
ATOM     20  C25 NON d   1     -50.637  17.203  -1.544  0.00  0.00     0.008 A 
BRANCH  18  21
ATOM     21  C4  NON d   1     -54.070  18.320   0.098  0.00  0.00     0.042 C 
BRANCH  21  22
ATOM     22  C2  NON d   1     -55.140  19.157  -0.628  0.00  0.00    -0.019 C 
ATOM     23  C1  NON d   1     -55.614  18.748  -2.035  0.00  0.00     0.010 C 
ATOM     24  C3  NON d   1     -54.480  20.619  -0.563  0.00  0.00     0.010 C 
ENDBRANCH  21  22
ENDBRANCH  18  21
ENDBRANCH  13  15
ENDBRANCH  10  13
ENDBRANCH   8   9
ENDBRANCH   1   7
BRANCH   4  25
ATOM     25  O2  NON d   1     -41.108  19.235  -5.686  0.00  0.00    -0.308 OA
BRANCH  25  26
ATOM     26  C17 NON d   1     -40.557  20.349  -5.090  0.00  0.00     0.109 A 
ATOM     27  C18 NON d   1     -40.503  21.641  -5.618  0.00  0.00     0.042 A 
ATOM     28  C19 NON d   1     -39.921  22.715  -4.914  0.00  0.00     0.039 A 
ATOM     29  C20 NON d   1     -39.422  22.528  -3.623  0.00  0.00     0.105 A 
ATOM     30  C21 NON d   1     -39.503  21.273  -3.031  0.00  0.00     0.075 A 
ATOM     31  C22 NON d   1     -40.068  20.204  -3.764  0.00  0.00     0.139 A 
BRANCH  29  32
ATOM     32  N3  NON d   1     -38.840  23.665  -2.883  0.00  0.00    -0.116 N 
ATOM     33  O3  NON d   1     -37.654  23.567  -2.549  0.00  0.00    -0.532 OA
ATOM     34  O4  NON d   1     -39.560  24.642  -2.656  0.00  0.00    -0.532 OA
ENDBRANCH  29  32
BRANCH  31  35
ATOM     35  N4  NON d   1     -40.177  18.928  -3.056  0.00  0.00    -0.113 N 
ATOM     36  O5  NON d   1     -41.091  18.789  -2.238  0.00  0.00    -0.532 OA
ATOM     37  O6  NON d   1     -39.366  18.045  -3.373  0.00  0.00    -0.532 OA
ENDBRANCH  31  35
ENDBRANCH  25  26
ENDBRANCH   4  25
TORSDOF 10
ENDMDL
