MODEL 1
REMARK VINA RESULT:   -13.297      0.000      0.000
REMARK INTER + INTRA:         -15.201
REMARK INTER:                 -14.491
REMARK INTRA:                  -0.710
REMARK CONF_INDEPENDENT:        1.193
REMARK UNBOUND:                -0.710
REMARK  4 active torsions:
REMARK  status: ('A' for Active; 'I' for Inactive)
REMARK       I    between atoms: C1_2  and  N1_3 
REMARK    1  A    between atoms: C1_2  and  C14_17 
REMARK    2  A    between atoms: N1_3  and  C2_4 
REMARK    3  A    between atoms: C6_8  and  O2_9 
REMARK    4  A    between atoms: O2_9  and  C7_10 
ROOT
ATOM      1  C2  NON d   1     -48.103  16.263  -3.547  0.00  0.00     0.037 A 
ATOM      2  C3  NON d   1     -48.442  15.103  -4.246  0.00  0.00     0.029 A 
ATOM      3  C4  NON d   1     -49.690  14.514  -4.067  0.00  0.00     0.005 A 
ATOM      4  C5  NON d   1     -50.620  15.076  -3.185  0.00  0.00     0.037 A 
ATOM      5  C6  NON d   1     -50.315  16.228  -2.475  0.00  0.00     0.078 A 
ATOM      6  C13 NON d   1     -49.043  16.812  -2.670  0.00  0.00     0.066 A 
ENDROOT
BRANCH   1   7
ATOM      7  N1  NON d   1     -46.817  16.793  -3.791  0.00  0.00    -0.322 N 
ATOM      8  C1  NON d   1     -45.983  16.554  -4.871  0.00  0.00     0.272 C 
ATOM      9  O1  NON d   1     -46.259  15.816  -5.810  0.00  0.00    -0.266 OA
ATOM     10  H1  NON d   1     -46.484  17.417  -3.079  0.00  0.00     0.169 HD
BRANCH   8  11
ATOM     11  C14 NON d   1     -44.705  17.264  -4.823  0.00  0.00     0.100 A 
ATOM     12  C15 NON d   1     -43.450  16.690  -4.659  0.00  0.00     0.036 A 
ATOM     13  C16 NON d   1     -42.476  17.715  -4.668  0.00  0.00     0.019 A 
ATOM     14  C17 NON d   1     -43.144  18.902  -4.837  0.00  0.00     0.088 A 
ATOM     15  N2  NON d   1     -44.483  18.622  -4.930  0.00  0.00    -0.361 N 
ATOM     16  H14 NON d   1     -45.190  19.332  -5.058  0.00  0.00     0.165 HD
ENDBRANCH   8  11
ENDBRANCH   1   7
BRANCH   5  17
ATOM     17  O2  NON d   1     -51.068  16.931  -1.575  0.00  0.00    -0.311 OA
BRANCH  17  18
ATOM     18  C7  NON d   1     -52.387  17.293  -1.606  0.00  0.00     0.076 A 
ATOM     19  C8  NON d   1     -53.422  16.878  -2.435  0.00  0.00     0.037 A 
ATOM     20  C9  NON d   1     -54.718  17.394  -2.280  0.00  0.00     0.003 A 
ATOM     21  C10 NON d   1     -54.997  18.332  -1.293  0.00  0.00     0.000 A 
ATOM     22  C11 NON d   1     -53.978  18.760  -0.454  0.00  0.00     0.003 A 
ATOM     23  C12 NON d   1     -52.690  18.243  -0.613  0.00  0.00     0.037 A 
ENDBRANCH  17  18
ENDBRANCH   5  17
TORSDOF 4
ENDMDL
MODEL 2
REMARK VINA RESULT:   -12.567      3.540      9.989
REMARK INTER + INTRA:         -14.556
REMARK INTER:                 -13.760
REMARK INTRA:                  -0.796
REMARK CONF_INDEPENDENT:        1.193
REMARK UNBOUND:                -0.796
REMARK  4 active torsions:
REMARK  status: ('A' for Active; 'I' for Inactive)
REMARK       I    between atoms: C1_2  and  N1_3 
REMARK    1  A    between atoms: C1_2  and  C14_17 
REMARK    2  A    between atoms: N1_3  and  C2_4 
REMARK    3  A    between atoms: C6_8  and  O2_9 
REMARK    4  A    between atoms: O2_9  and  C7_10 
ROOT
ATOM      1  C2  NON d   1     -43.839  17.449  -4.128  0.00  0.00     0.037 A 
ATOM      2  C3  NON d   1     -42.889  17.054  -3.185  0.00  0.00     0.029 A 
ATOM      3  C4  NON d   1     -41.596  17.567  -3.234  0.00  0.00     0.005 A 
ATOM      4  C5  NON d   1     -41.232  18.483  -4.226  0.00  0.00     0.037 A 
ATOM      5  C6  NON d   1     -42.152  18.896  -5.179  0.00  0.00     0.078 A 
ATOM      6  C13 NON d   1     -43.460  18.366  -5.114  0.00  0.00     0.066 A 
ENDROOT
BRANCH   1   7
ATOM      7  N1  NON d   1     -45.126  16.881  -4.003  0.00  0.00    -0.322 N 
ATOM      8  C1  NON d   1     -46.155  16.881  -4.929  0.00  0.00     0.272 C 
ATOM      9  O1  NON d   1     -46.090  17.398  -6.039  0.00  0.00    -0.266 OA
ATOM     10  H1  NON d   1     -45.295  16.425  -3.125  0.00  0.00     0.169 HD
BRANCH   8  11
ATOM     11  C14 NON d   1     -47.373  16.200  -4.489  0.00  0.00     0.100 A 
ATOM     12  C15 NON d   1     -47.852  16.129  -3.186  0.00  0.00     0.036 A 
ATOM     13  C16 NON d   1     -49.053  15.381  -3.183  0.00  0.00     0.019 A 
ATOM     14  C17 NON d   1     -49.294  15.004  -4.481  0.00  0.00     0.088 A 
ATOM     15  N2  NON d   1     -48.280  15.501  -5.259  0.00  0.00    -0.361 N 
ATOM     16  H14 NON d   1     -48.228  15.358  -6.258  0.00  0.00     0.165 HD
ENDBRANCH   8  11
ENDBRANCH   1   7
BRANCH   5  17
ATOM     17  O2  NON d   1     -42.007  19.771  -6.221  0.00  0.00    -0.311 OA
BRANCH  17  18
ATOM     18  C7  NON d   1     -40.983  19.929  -7.116  0.00  0.00     0.076 A 
ATOM     19  C8  NON d   1     -40.686  20.978  -7.976  0.00  0.00     0.037 A 
ATOM     20  C9  NON d   1     -39.564  20.921  -8.818  0.00  0.00     0.003 A 
ATOM     21  C10 NON d   1     -38.724  19.814  -8.810  0.00  0.00     0.000 A 
ATOM     22  C11 NON d   1     -39.003  18.755  -7.957  0.00  0.00     0.003 A 
ATOM     23  C12 NON d   1     -40.121  18.817  -7.122  0.00  0.00     0.037 A 
ENDBRANCH  17  18
ENDBRANCH   5  17
TORSDOF 4
ENDMDL
MODEL 3
REMARK VINA RESULT:   -12.389      3.428     10.129
REMARK INTER + INTRA:         -14.405
REMARK INTER:                 -13.583
REMARK INTRA:                  -0.822
REMARK CONF_INDEPENDENT:        1.193
REMARK UNBOUND:                -0.822
REMARK  4 active torsions:
REMARK  status: ('A' for Active; 'I' for Inactive)
REMARK       I    between atoms: C1_2  and  N1_3 
REMARK    1  A    between atoms: C1_2  and  C14_17 
REMARK    2  A    between atoms: N1_3  and  C2_4 
REMARK    3  A    between atoms: C6_8  and  O2_9 
REMARK    4  A    between atoms: O2_9  and  C7_10 
ROOT
ATOM      1  C2  NON d   1     -43.674  17.610  -4.024  0.00  0.00     0.037 A 
ATOM      2  C3  NON d   1     -42.715  17.256  -3.074  0.00  0.00     0.029 A 
ATOM      3  C4  NON d   1     -41.390  17.651  -3.232  0.00  0.00     0.005 A 
ATOM      4  C5  NON d   1     -41.002  18.409  -4.343  0.00  0.00     0.037 A 
ATOM      5  C6  NON d   1     -41.930  18.778  -5.305  0.00  0.00     0.078 A 
ATOM      6  C13 NON d   1     -43.271  18.367  -5.128  0.00  0.00     0.066 A 
ENDROOT
BRANCH   1   7
ATOM      7  N1  NON d   1     -44.993  17.168  -3.784  0.00  0.00    -0.322 N 
ATOM      8  C1  NON d   1     -45.849  16.514  -4.655  0.00  0.00     0.272 C 
ATOM      9  O1  NON d   1     -45.566  16.213  -5.810  0.00  0.00    -0.266 OA
ATOM     10  H1  NON d   1     -45.335  17.362  -2.860  0.00  0.00     0.169 HD
BRANCH   8  11
ATOM     11  C14 NON d   1     -47.160  16.189  -4.094  0.00  0.00     0.100 A 
ATOM     12  C15 NON d   1     -48.231  15.622  -4.775  0.00  0.00     0.036 A 
ATOM     13  C16 NON d   1     -49.312  15.469  -3.877  0.00  0.00     0.019 A 
ATOM     14  C17 NON d   1     -48.892  15.942  -2.659  0.00  0.00     0.088 A 
ATOM     15  N2  NON d   1     -47.598  16.372  -2.797  0.00  0.00    -0.361 N 
ATOM     16  H14 NON d   1     -47.061  16.766  -2.038  0.00  0.00     0.165 HD
ENDBRANCH   8  11
ENDBRANCH   1   7
BRANCH   5  17
ATOM     17  O2  NON d   1     -41.766  19.505  -6.452  0.00  0.00    -0.311 OA
BRANCH  17  18
ATOM     18  C7  NON d   1     -40.691  19.616  -7.291  0.00  0.00     0.076 A 
ATOM     19  C8  NON d   1     -39.602  18.775  -7.484  0.00  0.00     0.037 A 
ATOM     20  C9  NON d   1     -38.602  19.096  -8.416  0.00  0.00     0.003 A 
ATOM     21  C10 NON d   1     -38.679  20.263  -9.168  0.00  0.00     0.000 A 
ATOM     22  C11 NON d   1     -39.759  21.116  -8.991  0.00  0.00     0.003 A 
ATOM     23  C12 NON d   1     -40.750  20.792  -8.061  0.00  0.00     0.037 A 
ENDBRANCH  17  18
ENDBRANCH   5  17
TORSDOF 4
ENDMDL
MODEL 4
REMARK VINA RESULT:   -11.593      3.172      9.634
REMARK INTER + INTRA:         -13.645
REMARK INTER:                 -12.786
REMARK INTRA:                  -0.860
REMARK CONF_INDEPENDENT:        1.193
REMARK UNBOUND:                -0.860
REMARK  4 active torsions:
REMARK  status: ('A' for Active; 'I' for Inactive)
REMARK       I    between atoms: C1_2  and  N1_3 
REMARK    1  A    between atoms: C1_2  and  C14_17 
REMARK    2  A    between atoms: N1_3  and  C2_4 
REMARK    3  A    between atoms: C6_8  and  O2_9 
REMARK    4  A    between atoms: O2_9  and  C7_10 
ROOT
ATOM      1  C2  NON d   1     -44.668  17.598  -4.032  0.00  0.00     0.037 A 
ATOM      2  C3  NON d   1     -44.589  18.500  -5.094  0.00  0.00     0.029 A 
ATOM      3  C4  NON d   1     -43.385  19.130  -5.392  0.00  0.00     0.005 A 
ATOM      4  C5  NON d   1     -42.240  18.870  -4.632  0.00  0.00     0.037 A 
ATOM      5  C6  NON d   1     -42.284  17.980  -3.569  0.00  0.00     0.078 A 
ATOM      6  C13 NON d   1     -43.515  17.349  -3.282  0.00  0.00     0.066 A 
ENDROOT
BRANCH   1   7
ATOM      7  N1  NON d   1     -45.929  17.004  -3.801  0.00  0.00    -0.322 N 
ATOM      8  C1  NON d   1     -46.681  16.229  -4.668  0.00  0.00     0.272 C 
ATOM      9  O1  NON d   1     -46.341  15.937  -5.810  0.00  0.00    -0.266 OA
ATOM     10  H1  NON d   1     -46.309  17.178  -2.889  0.00  0.00     0.169 HD
BRANCH   8  11
ATOM     11  C14 NON d   1     -47.953  15.761  -4.120  0.00  0.00     0.100 A 
ATOM     12  C15 NON d   1     -48.435  15.995  -2.837  0.00  0.00     0.036 A 
ATOM     13  C16 NON d   1     -49.698  15.373  -2.704  0.00  0.00     0.019 A 
ATOM     14  C17 NON d   1     -49.975  14.767  -3.903  0.00  0.00     0.088 A 
ATOM     15  N2  NON d   1     -48.922  15.005  -4.749  0.00  0.00    -0.361 N 
ATOM     16  H14 NON d   1     -48.886  14.661  -5.698  0.00  0.00     0.165 HD
ENDBRANCH   8  11
ENDBRANCH   1   7
BRANCH   5  17
ATOM     17  O2  NON d   1     -41.295  17.588  -2.709  0.00  0.00    -0.311 OA
BRANCH  17  18
ATOM     18  C7  NON d   1     -40.040  18.093  -2.503  0.00  0.00     0.076 A 
ATOM     19  C8  NON d   1     -38.807  17.457  -2.435  0.00  0.00     0.037 A 
ATOM     20  C9  NON d   1     -37.632  18.191  -2.212  0.00  0.00     0.003 A 
ATOM     21  C10 NON d   1     -37.673  19.571  -2.055  0.00  0.00     0.000 A 
ATOM     22  C11 NON d   1     -38.895  20.226  -2.121  0.00  0.00     0.003 A 
ATOM     23  C12 NON d   1     -40.062  19.491  -2.342  0.00  0.00     0.037 A 
ENDBRANCH  17  18
ENDBRANCH   5  17
TORSDOF 4
ENDMDL
MODEL 5
REMARK VINA RESULT:   -11.128      3.230      9.829
REMARK INTER + INTRA:         -13.193
REMARK INTER:                 -12.322
REMARK INTRA:                  -0.872
REMARK CONF_INDEPENDENT:        1.193
REMARK UNBOUND:                -0.872
REMARK  4 active torsions:
REMARK  status: ('A' for Active; 'I' for Inactive)
REMARK       I    between atoms: C1_2  and  N1_3 
REMARK    1  A    between atoms: C1_2  and  C14_17 
REMARK    2  A    between atoms: N1_3  and  C2_4 
REMARK    3  A    between atoms: C6_8  and  O2_9 
REMARK    4  A    between atoms: O2_9  and  C7_10 
ROOT
ATOM      1  C2  NON d   1     -44.391  17.807  -4.067  0.00  0.00     0.037 A 
ATOM      2  C3  NON d   1     -44.334  18.689  -5.147  0.00  0.00     0.029 A 
ATOM      3  C4  NON d   1     -43.137  19.316  -5.480  0.00  0.00     0.005 A 
ATOM      4  C5  NON d   1     -41.977  19.072  -4.737  0.00  0.00     0.037 A 
ATOM      5  C6  NON d   1     -41.999  18.202  -3.657  0.00  0.00     0.078 A 
ATOM      6  C13 NON d   1     -43.223  17.574  -3.334  0.00  0.00     0.066 A 
ENDROOT
BRANCH   1   7
ATOM      7  N1  NON d   1     -45.645  17.215  -3.802  0.00  0.00    -0.322 N 
ATOM      8  C1  NON d   1     -46.431  16.456  -4.653  0.00  0.00     0.272 C 
ATOM      9  O1  NON d   1     -46.132  16.179  -5.810  0.00  0.00    -0.266 OA
ATOM     10  H1  NON d   1     -45.993  17.378  -2.874  0.00  0.00     0.169 HD
BRANCH   8  11
ATOM     11  C14 NON d   1     -47.686  15.986  -4.068  0.00  0.00     0.100 A 
ATOM     12  C15 NON d   1     -48.173  16.294  -2.803  0.00  0.00     0.036 A 
ATOM     13  C16 NON d   1     -49.414  15.641  -2.621  0.00  0.00     0.019 A 
ATOM     14  C17 NON d   1     -49.672  14.942  -3.774  0.00  0.00     0.088 A 
ATOM     15  N2  NON d   1     -48.630  15.155  -4.639  0.00  0.00    -0.361 N 
ATOM     16  H14 NON d   1     -48.583  14.746  -5.561  0.00  0.00     0.165 HD
ENDBRANCH   8  11
ENDBRANCH   1   7
BRANCH   5  17
ATOM     17  O2  NON d   1     -40.994  17.828  -2.808  0.00  0.00    -0.311 OA
BRANCH  17  18
ATOM     18  C7  NON d   1     -39.853  18.484  -2.433  0.00  0.00     0.076 A 
ATOM     19  C8  NON d   1     -39.649  19.809  -2.066  0.00  0.00     0.037 A 
ATOM     20  C9  NON d   1     -38.370  20.267  -1.713  0.00  0.00     0.003 A 
ATOM     21  C10 NON d   1     -37.278  19.407  -1.722  0.00  0.00     0.000 A 
ATOM     22  C11 NON d   1     -37.461  18.080  -2.084  0.00  0.00     0.003 A 
ATOM     23  C12 NON d   1     -38.736  17.629  -2.435  0.00  0.00     0.037 A 
ENDBRANCH  17  18
ENDBRANCH   5  17
TORSDOF 4
ENDMDL
MODEL 6
REMARK VINA RESULT:   -10.862      3.463      9.536
REMARK INTER + INTRA:         -12.786
REMARK INTER:                 -12.055
REMARK INTRA:                  -0.730
REMARK CONF_INDEPENDENT:        1.193
REMARK UNBOUND:                -0.730
REMARK  4 active torsions:
REMARK  status: ('A' for Active; 'I' for Inactive)
REMARK       I    between atoms: C1_2  and  N1_3 
REMARK    1  A    between atoms: C1_2  and  C14_17 
REMARK    2  A    between atoms: N1_3  and  C2_4 
REMARK    3  A    between atoms: C6_8  and  O2_9 
REMARK    4  A    between atoms: O2_9  and  C7_10 
ROOT
ATOM      1  C2  NON d   1     -43.631  17.346  -3.943  0.00  0.00     0.037 A 
ATOM      2  C3  NON d   1     -43.088  17.126  -5.210  0.00  0.00     0.029 A 
ATOM      3  C4  NON d   1     -41.789  17.534  -5.498  0.00  0.00     0.005 A 
ATOM      4  C5  NON d   1     -41.011  18.169  -4.524  0.00  0.00     0.037 A 
ATOM      5  C6  NON d   1     -41.520  18.403  -3.255  0.00  0.00     0.078 A 
ATOM      6  C13 NON d   1     -42.841  17.982  -2.980  0.00  0.00     0.066 A 
ENDROOT
BRANCH   1   7
ATOM      7  N1  NON d   1     -44.955  16.900  -3.738  0.00  0.00    -0.322 N 
ATOM      8  C1  NON d   1     -46.000  16.874  -4.646  0.00  0.00     0.272 C 
ATOM      9  O1  NON d   1     -45.917  17.252  -5.810  0.00  0.00    -0.266 OA
ATOM     10  H1  NON d   1     -45.140  16.563  -2.810  0.00  0.00     0.169 HD
BRANCH   8  11
ATOM     11  C14 NON d   1     -47.257  16.347  -4.115  0.00  0.00     0.100 A 
ATOM     12  C15 NON d   1     -48.274  15.746  -4.848  0.00  0.00     0.036 A 
ATOM     13  C16 NON d   1     -49.314  15.377  -3.965  0.00  0.00     0.019 A 
ATOM     14  C17 NON d   1     -48.924  15.754  -2.705  0.00  0.00     0.088 A 
ATOM     15  N2  NON d   1     -47.686  16.336  -2.803  0.00  0.00    -0.361 N 
ATOM     16  H14 NON d   1     -47.180  16.699  -2.009  0.00  0.00     0.165 HD
ENDBRANCH   8  11
ENDBRANCH   1   7
BRANCH   5  17
ATOM     17  O2  NON d   1     -40.938  19.000  -2.170  0.00  0.00    -0.311 OA
BRANCH  17  18
ATOM     18  C7  NON d   1     -40.325  20.217  -2.044  0.00  0.00     0.076 A 
ATOM     19  C8  NON d   1     -39.793  20.852  -0.929  0.00  0.00     0.037 A 
ATOM     20  C9  NON d   1     -39.202  22.120  -1.039  0.00  0.00     0.003 A 
ATOM     21  C10 NON d   1     -39.134  22.770  -2.266  0.00  0.00     0.000 A 
ATOM     22  C11 NON d   1     -39.660  22.153  -3.393  0.00  0.00     0.003 A 
ATOM     23  C12 NON d   1     -40.248  20.890  -3.277  0.00  0.00     0.037 A 
ENDBRANCH  17  18
ENDBRANCH   5  17
TORSDOF 4
ENDMDL
