MODEL 1
REMARK VINA RESULT:   -12.381      0.000      0.000
REMARK INTER + INTRA:         -17.147
REMARK INTER:                 -15.364
REMARK INTRA:                  -1.783
REMARK CONF_INDEPENDENT:        2.983
REMARK UNBOUND:                -1.783
REMARK  10 active torsions:
REMARK  status: ('A' for Active; 'I' for Inactive)
REMARK    1  A    between atoms: C2_2  and  C3_3 
REMARK    2  A    between atoms: C3_3  and  C4_4 
REMARK    3  A    between atoms: C4_4  and  C5_5 
REMARK    4  A    between atoms: C5_5  and  C6_6 
REMARK    5  A    between atoms: C6_6  and  O1_7 
REMARK    6  A    between atoms: O1_7  and  C7_8 
REMARK    7  A    between atoms: C12_13  and  C13_14 
REMARK       I    between atoms: C13_14  and  N1_16 
REMARK    8  A    between atoms: N1_16  and  N2_17 
REMARK       I    between atoms: N2_17  and  C14_18 
REMARK    9  A    between atoms: C14_18  and  C15_20 
REMARK   10  A    between atoms: C18_23  and  N3_24 
ROOT
ATOM      1  C13 NON d   1     -39.759  21.302  -1.045  0.00  0.00     0.272 C 
ATOM      2  O2  NON d   1     -40.653  22.129  -1.211  0.00  0.00    -0.266 OA
ATOM      3  N1  NON d   1     -39.854  20.054  -1.647  0.00  0.00    -0.263 N 
ATOM      4  H18 NON d   1     -39.190  19.292  -1.565  0.00  0.00     0.190 HD
ENDROOT
BRANCH   1   5
ATOM      5  C12 NON d   1     -38.528  21.566  -0.206  0.00  0.00     0.067 A 
ATOM      6  C11 NON d   1     -37.357  20.801  -0.410  0.00  0.00     0.020 A 
ATOM      7  C10 NON d   1     -36.203  21.014   0.348  0.00  0.00     0.001 A 
ATOM      8  C9  NON d   1     -36.190  21.996   1.322  0.00  0.00     0.003 A 
ATOM      9  C8  NON d   1     -37.330  22.769   1.537  0.00  0.00     0.038 A 
ATOM     10  C7  NON d   1     -38.504  22.577   0.783  0.00  0.00     0.084 A 
BRANCH  10  11
ATOM     11  O1  NON d   1     -39.635  23.339   0.984  0.00  0.00    -0.350 OA
BRANCH  11  12
ATOM     12  C6  NON d   1     -39.535  24.407   1.932  0.00  0.00     0.175 C 
BRANCH  12  13
ATOM     13  C5  NON d   1     -40.836  25.199   1.978  0.00  0.00     0.027 C 
BRANCH  13  14
ATOM     14  C4  NON d   1     -40.925  26.173   3.160  0.00  0.00     0.002 C 
BRANCH  14  15
ATOM     15  C3  NON d   1     -42.158  27.088   3.199  0.00  0.00    -0.000 C 
BRANCH  15  16
ATOM     16  C2  NON d   1     -43.104  26.840   4.376  0.00  0.00    -0.005 C 
ATOM     17  C1  NON d   1     -42.480  25.915   5.413  0.00  0.00     0.005 C 
ENDBRANCH  15  16
ENDBRANCH  14  15
ENDBRANCH  13  14
ENDBRANCH  12  13
ENDBRANCH  11  12
ENDBRANCH  10  11
ENDBRANCH   1   5
BRANCH   3  18
ATOM     18  N2  NON d   1     -40.971  19.770  -2.445  0.00  0.00    -0.263 N 
ATOM     19  C14 NON d   1     -41.278  18.440  -2.652  0.00  0.00     0.270 C 
ATOM     20  O3  NON d   1     -40.599  17.540  -2.158  0.00  0.00    -0.266 OA
ATOM     21  H19 NON d   1     -41.454  20.580  -2.825  0.00  0.00     0.190 HD
BRANCH  19  22
ATOM     22  C15 NON d   1     -42.468  18.107  -3.494  0.00  0.00     0.033 A 
ATOM     23  C16 NON d   1     -43.116  16.883  -3.247  0.00  0.00     0.019 A 
ATOM     24  C17 NON d   1     -44.243  16.502  -3.983  0.00  0.00     0.037 A 
ATOM     25  C18 NON d   1     -44.729  17.353  -4.982  0.00  0.00     0.102 A 
ATOM     26  C19 NON d   1     -44.094  18.576  -5.241  0.00  0.00     0.037 A 
ATOM     27  C20 NON d   1     -42.966  18.949  -4.498  0.00  0.00     0.019 A 
BRANCH  25  28
ATOM     28  N3  NON d   1     -45.916  16.967  -5.757  0.00  0.00    -0.116 N 
ATOM     29  O4  NON d   1     -46.206  15.763  -5.808  0.00  0.00    -0.532 OA
ATOM     30  O5  NON d   1     -46.554  17.869  -6.319  0.00  0.00    -0.532 OA
ENDBRANCH  25  28
ENDBRANCH  19  22
ENDBRANCH   3  18
TORSDOF 10
ENDMDL
MODEL 2
REMARK VINA RESULT:   -11.269      2.679      5.384
REMARK INTER + INTRA:         -17.622
REMARK INTER:                 -14.252
REMARK INTRA:                  -3.369
REMARK CONF_INDEPENDENT:        2.983
REMARK UNBOUND:                -3.369
REMARK  10 active torsions:
REMARK  status: ('A' for Active; 'I' for Inactive)
REMARK    1  A    between atoms: C2_2  and  C3_3 
REMARK    2  A    between atoms: C3_3  and  C4_4 
REMARK    3  A    between atoms: C4_4  and  C5_5 
REMARK    4  A    between atoms: C5_5  and  C6_6 
REMARK    5  A    between atoms: C6_6  and  O1_7 
REMARK    6  A    between atoms: O1_7  and  C7_8 
REMARK    7  A    between atoms: C12_13  and  C13_14 
REMARK       I    between atoms: C13_14  and  N1_16 
REMARK    8  A    between atoms: N1_16  and  N2_17 
REMARK       I    between atoms: N2_17  and  C14_18 
REMARK    9  A    between atoms: C14_18  and  C15_20 
REMARK   10  A    between atoms: C18_23  and  N3_24 
ROOT
ATOM      1  C13 NON d   1     -39.702  21.262  -1.239  0.00  0.00     0.272 C 
ATOM      2  O2  NON d   1     -40.501  22.144  -1.546  0.00  0.00    -0.266 OA
ATOM      3  N1  NON d   1     -39.903  19.963  -1.688  0.00  0.00    -0.263 N 
ATOM      4  H18 NON d   1     -39.323  19.157  -1.481  0.00  0.00     0.190 HD
ENDROOT
BRANCH   1   5
ATOM      5  C12 NON d   1     -38.481  21.509  -0.380  0.00  0.00     0.067 A 
ATOM      6  C11 NON d   1     -38.509  22.511   0.616  0.00  0.00     0.020 A 
ATOM      7  C10 NON d   1     -37.399  22.770   1.425  0.00  0.00     0.001 A 
ATOM      8  C9  NON d   1     -36.240  22.033   1.260  0.00  0.00     0.003 A 
ATOM      9  C8  NON d   1     -36.190  21.033   0.290  0.00  0.00     0.038 A 
ATOM     10  C7  NON d   1     -37.297  20.750  -0.534  0.00  0.00     0.084 A 
BRANCH  10  11
ATOM     11  O1  NON d   1     -37.260  19.762  -1.494  0.00  0.00    -0.350 OA
BRANCH  11  12
ATOM     12  C6  NON d   1     -37.135  20.186  -2.855  0.00  0.00     0.175 C 
BRANCH  12  13
ATOM     13  C5  NON d   1     -37.098  18.981  -3.786  0.00  0.00     0.027 C 
BRANCH  13  14
ATOM     14  C4  NON d   1     -38.456  18.645  -4.418  0.00  0.00     0.002 C 
BRANCH  14  15
ATOM     15  C3  NON d   1     -39.291  19.835  -4.912  0.00  0.00    -0.000 C 
BRANCH  15  16
ATOM     16  C2  NON d   1     -40.083  19.574  -6.196  0.00  0.00    -0.005 C 
ATOM     17  C1  NON d   1     -39.291  19.971  -7.434  0.00  0.00     0.005 C 
ENDBRANCH  15  16
ENDBRANCH  14  15
ENDBRANCH  13  14
ENDBRANCH  12  13
ENDBRANCH  11  12
ENDBRANCH  10  11
ENDBRANCH   1   5
BRANCH   3  18
ATOM     18  N2  NON d   1     -41.015  19.690  -2.496  0.00  0.00    -0.263 N 
ATOM     19  C14 NON d   1     -41.391  18.368  -2.628  0.00  0.00     0.270 C 
ATOM     20  O3  NON d   1     -40.776  17.466  -2.060  0.00  0.00    -0.266 OA
ATOM     21  H19 NON d   1     -41.441  20.499  -2.940  0.00  0.00     0.190 HD
BRANCH  19  22
ATOM     22  C15 NON d   1     -42.577  18.047  -3.480  0.00  0.00     0.033 A 
ATOM     23  C16 NON d   1     -43.290  16.871  -3.185  0.00  0.00     0.019 A 
ATOM     24  C17 NON d   1     -44.418  16.506  -3.928  0.00  0.00     0.037 A 
ATOM     25  C18 NON d   1     -44.839  17.324  -4.981  0.00  0.00     0.102 A 
ATOM     26  C19 NON d   1     -44.139  18.498  -5.290  0.00  0.00     0.037 A 
ATOM     27  C20 NON d   1     -43.010  18.857  -4.540  0.00  0.00     0.019 A 
BRANCH  25  28
ATOM     28  N3  NON d   1     -46.026  16.953  -5.765  0.00  0.00    -0.116 N 
ATOM     29  O4  NON d   1     -46.271  15.747  -5.906  0.00  0.00    -0.532 OA
ATOM     30  O5  NON d   1     -46.709  17.871  -6.242  0.00  0.00    -0.532 OA
ENDBRANCH  25  28
ENDBRANCH  19  22
ENDBRANCH   3  18
TORSDOF 10
ENDMDL
MODEL 3
REMARK VINA RESULT:   -11.192      2.361      3.527
REMARK INTER + INTRA:         -17.674
REMARK INTER:                 -14.175
REMARK INTRA:                  -3.498
REMARK CONF_INDEPENDENT:        2.983
REMARK UNBOUND:                -3.498
REMARK  10 active torsions:
REMARK  status: ('A' for Active; 'I' for Inactive)
REMARK    1  A    between atoms: C2_2  and  C3_3 
REMARK    2  A    between atoms: C3_3  and  C4_4 
REMARK    3  A    between atoms: C4_4  and  C5_5 
REMARK    4  A    between atoms: C5_5  and  C6_6 
REMARK    5  A    between atoms: C6_6  and  O1_7 
REMARK    6  A    between atoms: O1_7  and  C7_8 
REMARK    7  A    between atoms: C12_13  and  C13_14 
REMARK       I    between atoms: C13_14  and  N1_16 
REMARK    8  A    between atoms: N1_16  and  N2_17 
REMARK       I    between atoms: N2_17  and  C14_18 
REMARK    9  A    between atoms: C14_18  and  C15_20 
REMARK   10  A    between atoms: C18_23  and  N3_24 
ROOT
ATOM      1  C13 NON d   1     -40.414  22.647  -3.530  0.00  0.00     0.272 C 
ATOM      2  O2  NON d   1     -41.420  23.268  -3.863  0.00  0.00    -0.266 OA
ATOM      3  N1  NON d   1     -40.424  21.259  -3.544  0.00  0.00    -0.263 N 
ATOM      4  H18 NON d   1     -39.662  20.646  -3.272  0.00  0.00     0.190 HD
ENDROOT
BRANCH   1   5
ATOM      5  C12 NON d   1     -39.129  23.319  -3.094  0.00  0.00     0.067 A 
ATOM      6  C11 NON d   1     -38.760  24.565  -3.649  0.00  0.00     0.020 A 
ATOM      7  C10 NON d   1     -37.581  25.213  -3.273  0.00  0.00     0.001 A 
ATOM      8  C9  NON d   1     -36.746  24.633  -2.335  0.00  0.00     0.003 A 
ATOM      9  C8  NON d   1     -37.091  23.408  -1.767  0.00  0.00     0.038 A 
ATOM     10  C7  NON d   1     -38.278  22.738  -2.126  0.00  0.00     0.084 A 
BRANCH  10  11
ATOM     11  O1  NON d   1     -38.631  21.528  -1.568  0.00  0.00    -0.350 OA
BRANCH  11  12
ATOM     12  C6  NON d   1     -37.948  21.145  -0.369  0.00  0.00     0.175 C 
BRANCH  12  13
ATOM     13  C5  NON d   1     -38.576  21.828   0.841  0.00  0.00     0.027 C 
BRANCH  13  14
ATOM     14  C4  NON d   1     -40.108  21.755   0.866  0.00  0.00     0.002 C 
BRANCH  14  15
ATOM     15  C3  NON d   1     -40.853  23.091   1.007  0.00  0.00    -0.000 C 
BRANCH  15  16
ATOM     16  C2  NON d   1     -41.437  23.641  -0.297  0.00  0.00    -0.005 C 
ATOM     17  C1  NON d   1     -40.910  25.036  -0.604  0.00  0.00     0.005 C 
ENDBRANCH  15  16
ENDBRANCH  14  15
ENDBRANCH  13  14
ENDBRANCH  12  13
ENDBRANCH  11  12
ENDBRANCH  10  11
ENDBRANCH   1   5
BRANCH   3  18
ATOM     18  N2  NON d   1     -41.588  20.594  -3.953  0.00  0.00    -0.263 N 
ATOM     19  C14 NON d   1     -41.598  19.217  -3.853  0.00  0.00     0.270 C 
ATOM     20  O3  NON d   1     -40.625  18.597  -3.423  0.00  0.00    -0.266 OA
ATOM     21  H19 NON d   1     -42.328  21.190  -4.313  0.00  0.00     0.190 HD
BRANCH  19  22
ATOM     22  C15 NON d   1     -42.829  18.481  -4.276  0.00  0.00     0.033 A 
ATOM     23  C16 NON d   1     -43.784  19.190  -5.027  0.00  0.00     0.019 A 
ATOM     24  C17 NON d   1     -44.956  18.571  -5.472  0.00  0.00     0.037 A 
ATOM     25  C18 NON d   1     -45.181  17.226  -5.162  0.00  0.00     0.102 A 
ATOM     26  C19 NON d   1     -44.240  16.505  -4.413  0.00  0.00     0.037 A 
ATOM     27  C20 NON d   1     -43.068  17.133  -3.972  0.00  0.00     0.019 A 
BRANCH  25  28
ATOM     28  N3  NON d   1     -46.406  16.563  -5.629  0.00  0.00    -0.116 N 
ATOM     29  O4  NON d   1     -47.411  17.266  -5.810  0.00  0.00    -0.532 OA
ATOM     30  O5  NON d   1     -46.364  15.337  -5.810  0.00  0.00    -0.532 OA
ENDBRANCH  25  28
ENDBRANCH  19  22
ENDBRANCH   3  18
TORSDOF 10
ENDMDL
MODEL 4
REMARK VINA RESULT:   -11.114      2.170      3.094
REMARK INTER + INTRA:         -16.895
REMARK INTER:                 -14.097
REMARK INTRA:                  -2.799
REMARK CONF_INDEPENDENT:        2.983
REMARK UNBOUND:                -2.799
REMARK  10 active torsions:
REMARK  status: ('A' for Active; 'I' for Inactive)
REMARK    1  A    between atoms: C2_2  and  C3_3 
REMARK    2  A    between atoms: C3_3  and  C4_4 
REMARK    3  A    between atoms: C4_4  and  C5_5 
REMARK    4  A    between atoms: C5_5  and  C6_6 
REMARK    5  A    between atoms: C6_6  and  O1_7 
REMARK    6  A    between atoms: O1_7  and  C7_8 
REMARK    7  A    between atoms: C12_13  and  C13_14 
REMARK       I    between atoms: C13_14  and  N1_16 
REMARK    8  A    between atoms: N1_16  and  N2_17 
REMARK       I    between atoms: N2_17  and  C14_18 
REMARK    9  A    between atoms: C14_18  and  C15_20 
REMARK   10  A    between atoms: C18_23  and  N3_24 
ROOT
ATOM      1  C13 NON d   1     -40.009  22.248  -3.164  0.00  0.00     0.272 C 
ATOM      2  O2  NON d   1     -40.928  22.966  -3.550  0.00  0.00    -0.266 OA
ATOM      3  N1  NON d   1     -40.157  20.868  -3.185  0.00  0.00    -0.263 N 
ATOM      4  H18 NON d   1     -39.477  20.182  -2.874  0.00  0.00     0.190 HD
ENDROOT
BRANCH   1   5
ATOM      5  C12 NON d   1     -38.690  22.788  -2.654  0.00  0.00     0.067 A 
ATOM      6  C11 NON d   1     -37.493  22.080  -2.904  0.00  0.00     0.020 A 
ATOM      7  C10 NON d   1     -36.258  22.546  -2.446  0.00  0.00     0.001 A 
ATOM      8  C9  NON d   1     -36.190  23.729  -1.733  0.00  0.00     0.003 A 
ATOM      9  C8  NON d   1     -37.356  24.450  -1.480  0.00  0.00     0.038 A 
ATOM     10  C7  NON d   1     -38.612  24.004  -1.936  0.00  0.00     0.084 A 
BRANCH  10  11
ATOM     11  O1  NON d   1     -39.770  24.711  -1.695  0.00  0.00    -0.350 OA
BRANCH  11  12
ATOM     12  C6  NON d   1     -39.852  25.414  -0.451  0.00  0.00     0.175 C 
BRANCH  12  13
ATOM     13  C5  NON d   1     -41.204  25.172   0.208  0.00  0.00     0.027 C 
BRANCH  13  14
ATOM     14  C4  NON d   1     -41.461  23.704   0.573  0.00  0.00     0.002 C 
BRANCH  14  15
ATOM     15  C3  NON d   1     -40.364  23.002   1.387  0.00  0.00    -0.000 C 
BRANCH  15  16
ATOM     16  C2  NON d   1     -39.916  21.649   0.827  0.00  0.00    -0.005 C 
ATOM     17  C1  NON d   1     -38.400  21.565   0.708  0.00  0.00     0.005 C 
ENDBRANCH  15  16
ENDBRANCH  14  15
ENDBRANCH  13  14
ENDBRANCH  12  13
ENDBRANCH  11  12
ENDBRANCH  10  11
ENDBRANCH   1   5
BRANCH   3  18
ATOM     18  N2  NON d   1     -41.357  20.322  -3.662  0.00  0.00    -0.263 N 
ATOM     19  C14 NON d   1     -41.475  18.946  -3.649  0.00  0.00     0.270 C 
ATOM     20  O3  NON d   1     -40.565  18.228  -3.237  0.00  0.00    -0.266 OA
ATOM     21  H19 NON d   1     -42.039  20.995  -4.000  0.00  0.00     0.190 HD
BRANCH  19  22
ATOM     22  C15 NON d   1     -42.746  18.337  -4.146  0.00  0.00     0.033 A 
ATOM     23  C16 NON d   1     -43.597  19.147  -4.919  0.00  0.00     0.019 A 
ATOM     24  C17 NON d   1     -44.799  18.648  -5.432  0.00  0.00     0.037 A 
ATOM     25  C18 NON d   1     -45.159  17.323  -5.168  0.00  0.00     0.102 A 
ATOM     26  C19 NON d   1     -44.324  16.502  -4.398  0.00  0.00     0.037 A 
ATOM     27  C20 NON d   1     -43.121  17.010  -3.889  0.00  0.00     0.019 A 
BRANCH  25  28
ATOM     28  N3  NON d   1     -46.417  16.786  -5.706  0.00  0.00    -0.116 N 
ATOM     29  O4  NON d   1     -46.522  15.555  -5.810  0.00  0.00    -0.532 OA
ATOM     30  O5  NON d   1     -47.297  17.597  -6.029  0.00  0.00    -0.532 OA
ENDBRANCH  25  28
ENDBRANCH  19  22
ENDBRANCH   3  18
TORSDOF 10
ENDMDL
MODEL 5
REMARK VINA RESULT:   -10.908      4.144      6.284
REMARK INTER + INTRA:         -17.522
REMARK INTER:                 -13.891
REMARK INTRA:                  -3.631
REMARK CONF_INDEPENDENT:        2.983
REMARK UNBOUND:                -3.631
REMARK  10 active torsions:
REMARK  status: ('A' for Active; 'I' for Inactive)
REMARK    1  A    between atoms: C2_2  and  C3_3 
REMARK    2  A    between atoms: C3_3  and  C4_4 
REMARK    3  A    between atoms: C4_4  and  C5_5 
REMARK    4  A    between atoms: C5_5  and  C6_6 
REMARK    5  A    between atoms: C6_6  and  O1_7 
REMARK    6  A    between atoms: O1_7  and  C7_8 
REMARK    7  A    between atoms: C12_13  and  C13_14 
REMARK       I    between atoms: C13_14  and  N1_16 
REMARK    8  A    between atoms: N1_16  and  N2_17 
REMARK       I    between atoms: N2_17  and  C14_18 
REMARK    9  A    between atoms: C14_18  and  C15_20 
REMARK   10  A    between atoms: C18_23  and  N3_24 
ROOT
ATOM      1  C13 NON d   1     -40.080  22.289  -3.914  0.00  0.00     0.272 C 
ATOM      2  O2  NON d   1     -40.876  22.915  -4.610  0.00  0.00    -0.266 OA
ATOM      3  N1  NON d   1     -40.349  20.969  -3.576  0.00  0.00    -0.263 N 
ATOM      4  H18 NON d   1     -39.777  20.366  -2.995  0.00  0.00     0.190 HD
ENDROOT
BRANCH   1   5
ATOM      5  C12 NON d   1     -38.791  22.882  -3.387  0.00  0.00     0.067 A 
ATOM      6  C11 NON d   1     -38.727  24.256  -3.061  0.00  0.00     0.020 A 
ATOM      7  C10 NON d   1     -37.553  24.838  -2.576  0.00  0.00     0.001 A 
ATOM      8  C9  NON d   1     -36.421  24.064  -2.401  0.00  0.00     0.003 A 
ATOM      9  C8  NON d   1     -36.461  22.705  -2.707  0.00  0.00     0.038 A 
ATOM     10  C7  NON d   1     -37.633  22.093  -3.193  0.00  0.00     0.084 A 
BRANCH  10  11
ATOM     11  O1  NON d   1     -37.685  20.749  -3.495  0.00  0.00    -0.350 OA
BRANCH  11  12
ATOM     12  C6  NON d   1     -37.437  20.382  -4.856  0.00  0.00     0.175 C 
BRANCH  12  13
ATOM     13  C5  NON d   1     -38.091  19.043  -5.173  0.00  0.00     0.027 C 
BRANCH  13  14
ATOM     14  C4  NON d   1     -38.754  18.990  -6.556  0.00  0.00     0.002 C 
BRANCH  14  15
ATOM     15  C3  NON d   1     -40.259  19.288  -6.603  0.00  0.00    -0.000 C 
BRANCH  15  16
ATOM     16  C2  NON d   1     -40.635  20.578  -7.337  0.00  0.00    -0.005 C 
ATOM     17  C1  NON d   1     -40.147  20.566  -8.780  0.00  0.00     0.005 C 
ENDBRANCH  15  16
ENDBRANCH  14  15
ENDBRANCH  13  14
ENDBRANCH  12  13
ENDBRANCH  11  12
ENDBRANCH  10  11
ENDBRANCH   1   5
BRANCH   3  18
ATOM     18  N2  NON d   1     -41.525  20.374  -4.053  0.00  0.00    -0.263 N 
ATOM     19  C14 NON d   1     -41.728  19.043  -3.749  0.00  0.00     0.270 C 
ATOM     20  O3  NON d   1     -40.910  18.403  -3.088  0.00  0.00    -0.266 OA
ATOM     21  H19 NON d   1     -42.126  20.977  -4.608  0.00  0.00     0.190 HD
BRANCH  19  22
ATOM     22  C15 NON d   1     -42.977  18.383  -4.239  0.00  0.00     0.033 A 
ATOM     23  C16 NON d   1     -43.829  19.138  -5.065  0.00  0.00     0.019 A 
ATOM     24  C17 NON d   1     -45.011  18.590  -5.575  0.00  0.00     0.037 A 
ATOM     25  C18 NON d   1     -45.348  17.270  -5.255  0.00  0.00     0.102 A 
ATOM     26  C19 NON d   1     -44.511  16.505  -4.432  0.00  0.00     0.037 A 
ATOM     27  C20 NON d   1     -43.329  17.062  -3.926  0.00  0.00     0.019 A 
BRANCH  25  28
ATOM     28  N3  NON d   1     -46.584  16.682  -5.789  0.00  0.00    -0.116 N 
ATOM     29  O4  NON d   1     -47.468  17.455  -6.185  0.00  0.00    -0.532 OA
ATOM     30  O5  NON d   1     -46.670  15.445  -5.810  0.00  0.00    -0.532 OA
ENDBRANCH  25  28
ENDBRANCH  19  22
ENDBRANCH   3  18
TORSDOF 10
ENDMDL
MODEL 6
REMARK VINA RESULT:   -10.841      2.368      3.505
REMARK INTER + INTRA:         -17.185
REMARK INTER:                 -13.824
REMARK INTRA:                  -3.361
REMARK CONF_INDEPENDENT:        2.983
REMARK UNBOUND:                -3.361
REMARK  10 active torsions:
REMARK  status: ('A' for Active; 'I' for Inactive)
REMARK    1  A    between atoms: C2_2  and  C3_3 
REMARK    2  A    between atoms: C3_3  and  C4_4 
REMARK    3  A    between atoms: C4_4  and  C5_5 
REMARK    4  A    between atoms: C5_5  and  C6_6 
REMARK    5  A    between atoms: C6_6  and  O1_7 
REMARK    6  A    between atoms: O1_7  and  C7_8 
REMARK    7  A    between atoms: C12_13  and  C13_14 
REMARK       I    between atoms: C13_14  and  N1_16 
REMARK    8  A    between atoms: N1_16  and  N2_17 
REMARK       I    between atoms: N2_17  and  C14_18 
REMARK    9  A    between atoms: C14_18  and  C15_20 
REMARK   10  A    between atoms: C18_23  and  N3_24 
ROOT
ATOM      1  C13 NON d   1     -40.138  22.548  -3.549  0.00  0.00     0.272 C 
ATOM      2  O2  NON d   1     -41.112  23.196  -3.925  0.00  0.00    -0.266 OA
ATOM      3  N1  NON d   1     -40.202  21.161  -3.520  0.00  0.00    -0.263 N 
ATOM      4  H18 NON d   1     -39.470  20.530  -3.212  0.00  0.00     0.190 HD
ENDROOT
BRANCH   1   5
ATOM      5  C12 NON d   1     -38.837  23.184  -3.106  0.00  0.00     0.067 A 
ATOM      6  C11 NON d   1     -38.464  24.452  -3.606  0.00  0.00     0.020 A 
ATOM      7  C10 NON d   1     -37.271  25.068  -3.222  0.00  0.00     0.001 A 
ATOM      8  C9  NON d   1     -36.426  24.435  -2.328  0.00  0.00     0.003 A 
ATOM      9  C8  NON d   1     -36.775  23.187  -1.814  0.00  0.00     0.038 A 
ATOM     10  C7  NON d   1     -37.976  22.548  -2.182  0.00  0.00     0.084 A 
BRANCH  10  11
ATOM     11  O1  NON d   1     -38.333  21.317  -1.676  0.00  0.00    -0.350 OA
BRANCH  11  12
ATOM     12  C6  NON d   1     -38.843  21.290  -0.339  0.00  0.00     0.175 C 
BRANCH  12  13
ATOM     13  C5  NON d   1     -40.315  21.683  -0.324  0.00  0.00     0.027 C 
BRANCH  13  14
ATOM     14  C4  NON d   1     -40.612  22.939   0.505  0.00  0.00     0.002 C 
BRANCH  14  15
ATOM     15  C3  NON d   1     -39.667  23.219   1.683  0.00  0.00    -0.000 C 
BRANCH  15  16
ATOM     16  C2  NON d   1     -38.377  23.954   1.311  0.00  0.00    -0.005 C 
ATOM     17  C1  NON d   1     -37.170  23.372   2.035  0.00  0.00     0.005 C 
ENDBRANCH  15  16
ENDBRANCH  14  15
ENDBRANCH  13  14
ENDBRANCH  12  13
ENDBRANCH  11  12
ENDBRANCH  10  11
ENDBRANCH   1   5
BRANCH   3  18
ATOM     18  N2  NON d   1     -41.382  20.529  -3.934  0.00  0.00    -0.263 N 
ATOM     19  C14 NON d   1     -41.429  19.152  -3.834  0.00  0.00     0.270 C 
ATOM     20  O3  NON d   1     -40.475  18.507  -3.400  0.00  0.00    -0.266 OA
ATOM     21  H19 NON d   1     -42.103  21.145  -4.298  0.00  0.00     0.190 HD
BRANCH  19  22
ATOM     22  C15 NON d   1     -42.678  18.451  -4.264  0.00  0.00     0.033 A 
ATOM     23  C16 NON d   1     -43.626  19.196  -4.986  0.00  0.00     0.019 A 
ATOM     24  C17 NON d   1     -44.815  18.610  -5.435  0.00  0.00     0.037 A 
ATOM     25  C18 NON d   1     -45.062  17.262  -5.156  0.00  0.00     0.102 A 
ATOM     26  C19 NON d   1     -44.127  16.505  -4.436  0.00  0.00     0.037 A 
ATOM     27  C20 NON d   1     -42.939  17.100  -3.991  0.00  0.00     0.019 A 
BRANCH  25  28
ATOM     28  N3  NON d   1     -46.304  16.634  -5.627  0.00  0.00    -0.116 N 
ATOM     29  O4  NON d   1     -47.288  17.365  -5.810  0.00  0.00    -0.532 OA
ATOM     30  O5  NON d   1     -46.295  15.408  -5.810  0.00  0.00    -0.532 OA
ENDBRANCH  25  28
ENDBRANCH  19  22
ENDBRANCH   3  18
TORSDOF 10
ENDMDL
MODEL 7
REMARK VINA RESULT:   -10.580      2.387      3.399
REMARK INTER + INTRA:         -16.984
REMARK INTER:                 -13.563
REMARK INTRA:                  -3.421
REMARK CONF_INDEPENDENT:        2.983
REMARK UNBOUND:                -3.421
REMARK  10 active torsions:
REMARK  status: ('A' for Active; 'I' for Inactive)
REMARK    1  A    between atoms: C2_2  and  C3_3 
REMARK    2  A    between atoms: C3_3  and  C4_4 
REMARK    3  A    between atoms: C4_4  and  C5_5 
REMARK    4  A    between atoms: C5_5  and  C6_6 
REMARK    5  A    between atoms: C6_6  and  O1_7 
REMARK    6  A    between atoms: O1_7  and  C7_8 
REMARK    7  A    between atoms: C12_13  and  C13_14 
REMARK       I    between atoms: C13_14  and  N1_16 
REMARK    8  A    between atoms: N1_16  and  N2_17 
REMARK       I    between atoms: N2_17  and  C14_18 
REMARK    9  A    between atoms: C14_18  and  C15_20 
REMARK   10  A    between atoms: C18_23  and  N3_24 
ROOT
ATOM      1  C13 NON d   1     -39.825  20.623  -0.935  0.00  0.00     0.272 C 
ATOM      2  O2  NON d   1     -40.692  20.360  -0.104  0.00  0.00    -0.266 OA
ATOM      3  N1  NON d   1     -39.977  20.198  -2.248  0.00  0.00    -0.263 N 
ATOM      4  H18 NON d   1     -39.321  20.340  -3.008  0.00  0.00     0.190 HD
ENDROOT
BRANCH   1   5
ATOM      5  C12 NON d   1     -38.569  21.402  -0.607  0.00  0.00     0.067 A 
ATOM      6  C11 NON d   1     -38.098  21.456   0.724  0.00  0.00     0.020 A 
ATOM      7  C10 NON d   1     -36.945  22.167   1.064  0.00  0.00     0.001 A 
ATOM      8  C9  NON d   1     -36.235  22.837   0.084  0.00  0.00     0.003 A 
ATOM      9  C8  NON d   1     -36.674  22.792  -1.238  0.00  0.00     0.038 A 
ATOM     10  C7  NON d   1     -37.831  22.077  -1.607  0.00  0.00     0.084 A 
BRANCH  10  11
ATOM     11  O1  NON d   1     -38.272  22.023  -2.912  0.00  0.00    -0.350 OA
BRANCH  11  12
ATOM     12  C6  NON d   1     -38.858  23.214  -3.446  0.00  0.00     0.175 C 
BRANCH  12  13
ATOM     13  C5  NON d   1     -40.362  23.036  -3.615  0.00  0.00     0.027 C 
BRANCH  13  14
ATOM     14  C4  NON d   1     -41.157  24.343  -3.495  0.00  0.00     0.002 C 
BRANCH  14  15
ATOM     15  C3  NON d   1     -40.873  25.204  -2.256  0.00  0.00    -0.000 C 
BRANCH  15  16
ATOM     16  C2  NON d   1     -40.349  24.430  -1.043  0.00  0.00    -0.005 C 
ATOM     17  C1  NON d   1     -41.479  24.023  -0.106  0.00  0.00     0.005 C 
ENDBRANCH  15  16
ENDBRANCH  14  15
ENDBRANCH  13  14
ENDBRANCH  12  13
ENDBRANCH  11  12
ENDBRANCH  10  11
ENDBRANCH   1   5
BRANCH   3  18
ATOM     18  N2  NON d   1     -41.131  19.484  -2.600  0.00  0.00    -0.263 N 
ATOM     19  C14 NON d   1     -41.407  19.354  -3.946  0.00  0.00     0.270 C 
ATOM     20  O3  NON d   1     -40.673  19.846  -4.803  0.00  0.00    -0.266 OA
ATOM     21  H19 NON d   1     -41.684  19.137  -1.821  0.00  0.00     0.190 HD
BRANCH  19  22
ATOM     22  C15 NON d   1     -42.629  18.593  -4.352  0.00  0.00     0.033 A 
ATOM     23  C16 NON d   1     -43.648  19.304  -5.012  0.00  0.00     0.019 A 
ATOM     24  C17 NON d   1     -44.817  18.663  -5.435  0.00  0.00     0.037 A 
ATOM     25  C18 NON d   1     -44.973  17.294  -5.193  0.00  0.00     0.102 A 
ATOM     26  C19 NON d   1     -43.968  16.571  -4.535  0.00  0.00     0.037 A 
ATOM     27  C20 NON d   1     -42.800  17.222  -4.116  0.00  0.00     0.019 A 
BRANCH  25  28
ATOM     28  N3  NON d   1     -46.195  16.608  -5.637  0.00  0.00    -0.116 N 
ATOM     29  O4  NON d   1     -47.212  17.294  -5.810  0.00  0.00    -0.532 OA
ATOM     30  O5  NON d   1     -46.135  15.382  -5.810  0.00  0.00    -0.532 OA
ENDBRANCH  25  28
ENDBRANCH  19  22
ENDBRANCH   3  18
TORSDOF 10
ENDMDL
MODEL 8
REMARK VINA RESULT:   -10.254      3.514      5.935
REMARK INTER + INTRA:         -16.355
REMARK INTER:                 -13.237
REMARK INTRA:                  -3.118
REMARK CONF_INDEPENDENT:        2.983
REMARK UNBOUND:                -3.118
REMARK  10 active torsions:
REMARK  status: ('A' for Active; 'I' for Inactive)
REMARK    1  A    between atoms: C2_2  and  C3_3 
REMARK    2  A    between atoms: C3_3  and  C4_4 
REMARK    3  A    between atoms: C4_4  and  C5_5 
REMARK    4  A    between atoms: C5_5  and  C6_6 
REMARK    5  A    between atoms: C6_6  and  O1_7 
REMARK    6  A    between atoms: O1_7  and  C7_8 
REMARK    7  A    between atoms: C12_13  and  C13_14 
REMARK       I    between atoms: C13_14  and  N1_16 
REMARK    8  A    between atoms: N1_16  and  N2_17 
REMARK       I    between atoms: N2_17  and  C14_18 
REMARK    9  A    between atoms: C14_18  and  C15_20 
REMARK   10  A    between atoms: C18_23  and  N3_24 
ROOT
ATOM      1  C13 NON d   1     -39.982  20.372  -1.467  0.00  0.00     0.272 C 
ATOM      2  O2  NON d   1     -40.690  19.912  -0.574  0.00  0.00    -0.266 OA
ATOM      3  N1  NON d   1     -40.265  20.075  -2.793  0.00  0.00    -0.263 N 
ATOM      4  H18 NON d   1     -39.740  20.381  -3.606  0.00  0.00     0.190 HD
ENDROOT
BRANCH   1   5
ATOM      5  C12 NON d   1     -38.788  21.265  -1.203  0.00  0.00     0.067 A 
ATOM      6  C11 NON d   1     -38.097  21.176   0.026  0.00  0.00     0.020 A 
ATOM      7  C10 NON d   1     -36.994  21.987   0.305  0.00  0.00     0.001 A 
ATOM      8  C9  NON d   1     -36.555  22.900  -0.636  0.00  0.00     0.003 A 
ATOM      9  C8  NON d   1     -37.215  23.002  -1.860  0.00  0.00     0.038 A 
ATOM     10  C7  NON d   1     -38.326  22.192  -2.167  0.00  0.00     0.084 A 
BRANCH  10  11
ATOM     11  O1  NON d   1     -38.984  22.281  -3.375  0.00  0.00    -0.350 OA
BRANCH  11  12
ATOM     12  C6  NON d   1     -38.222  22.748  -4.493  0.00  0.00     0.175 C 
BRANCH  12  13
ATOM     13  C5  NON d   1     -37.757  21.575  -5.346  0.00  0.00     0.027 C 
BRANCH  13  14
ATOM     14  C4  NON d   1     -38.848  21.006  -6.262  0.00  0.00     0.002 C 
BRANCH  14  15
ATOM     15  C3  NON d   1     -38.950  19.475  -6.334  0.00  0.00    -0.000 C 
BRANCH  15  16
ATOM     16  C2  NON d   1     -39.973  18.945  -7.341  0.00  0.00    -0.005 C 
ATOM     17  C1  NON d   1     -39.307  18.127  -8.440  0.00  0.00     0.005 C 
ENDBRANCH  15  16
ENDBRANCH  14  15
ENDBRANCH  13  14
ENDBRANCH  12  13
ENDBRANCH  11  12
ENDBRANCH  10  11
ENDBRANCH   1   5
BRANCH   3  18
ATOM     18  N2  NON d   1     -41.368  19.262  -3.085  0.00  0.00    -0.263 N 
ATOM     19  C14 NON d   1     -41.981  19.444  -4.309  0.00  0.00     0.270 C 
ATOM     20  O3  NON d   1     -41.577  20.286  -5.111  0.00  0.00    -0.266 OA
ATOM     21  H19 NON d   1     -41.639  18.613  -2.351  0.00  0.00     0.190 HD
BRANCH  19  22
ATOM     22  C15 NON d   1     -43.158  18.587  -4.650  0.00  0.00     0.033 A 
ATOM     23  C16 NON d   1     -44.173  19.160  -5.437  0.00  0.00     0.019 A 
ATOM     24  C17 NON d   1     -45.301  18.421  -5.809  0.00  0.00     0.037 A 
ATOM     25  C18 NON d   1     -45.419  17.092  -5.389  0.00  0.00     0.102 A 
ATOM     26  C19 NON d   1     -44.417  16.506  -4.603  0.00  0.00     0.037 A 
ATOM     27  C20 NON d   1     -43.291  17.253  -4.235  0.00  0.00     0.019 A 
BRANCH  25  28
ATOM     28  N3  NON d   1     -46.596  16.304  -5.779  0.00  0.00    -0.116 N 
ATOM     29  O4  NON d   1     -46.425  15.109  -6.060  0.00  0.00    -0.532 OA
ATOM     30  O5  NON d   1     -47.692  16.883  -5.808  0.00  0.00    -0.532 OA
ENDBRANCH  25  28
ENDBRANCH  19  22
ENDBRANCH   3  18
TORSDOF 10
ENDMDL
MODEL 9
REMARK VINA RESULT:   -10.090      5.995      8.076
REMARK INTER + INTRA:         -16.053
REMARK INTER:                 -13.073
REMARK INTRA:                  -2.981
REMARK CONF_INDEPENDENT:        2.983
REMARK UNBOUND:                -2.981
REMARK  10 active torsions:
REMARK  status: ('A' for Active; 'I' for Inactive)
REMARK    1  A    between atoms: C2_2  and  C3_3 
REMARK    2  A    between atoms: C3_3  and  C4_4 
REMARK    3  A    between atoms: C4_4  and  C5_5 
REMARK    4  A    between atoms: C5_5  and  C6_6 
REMARK    5  A    between atoms: C6_6  and  O1_7 
REMARK    6  A    between atoms: O1_7  and  C7_8 
REMARK    7  A    between atoms: C12_13  and  C13_14 
REMARK       I    between atoms: C13_14  and  N1_16 
REMARK    8  A    between atoms: N1_16  and  N2_17 
REMARK       I    between atoms: N2_17  and  C14_18 
REMARK    9  A    between atoms: C14_18  and  C15_20 
REMARK   10  A    between atoms: C18_23  and  N3_24 
ROOT
ATOM      1  C13 NON d   1     -42.465  17.788  -3.224  0.00  0.00     0.272 C 
ATOM      2  O2  NON d   1     -42.812  18.013  -2.066  0.00  0.00    -0.266 OA
ATOM      3  N1  NON d   1     -43.383  17.279  -4.132  0.00  0.00    -0.263 N 
ATOM      4  H18 NON d   1     -43.204  17.039  -5.101  0.00  0.00     0.190 HD
ENDROOT
BRANCH   1   5
ATOM      5  C12 NON d   1     -41.062  18.039  -3.734  0.00  0.00     0.067 A 
ATOM      6  C11 NON d   1     -39.957  17.889  -2.867  0.00  0.00     0.020 A 
ATOM      7  C10 NON d   1     -38.649  18.115  -3.302  0.00  0.00     0.001 A 
ATOM      8  C9  NON d   1     -38.415  18.492  -4.612  0.00  0.00     0.003 A 
ATOM      9  C8  NON d   1     -39.487  18.639  -5.490  0.00  0.00     0.038 A 
ATOM     10  C7  NON d   1     -40.815  18.412  -5.076  0.00  0.00     0.084 A 
BRANCH  10  11
ATOM     11  O1  NON d   1     -41.882  18.550  -5.937  0.00  0.00    -0.350 OA
BRANCH  11  12
ATOM     12  C6  NON d   1     -42.208  19.880  -6.355  0.00  0.00     0.175 C 
BRANCH  12  13
ATOM     13  C5  NON d   1     -41.449  20.238  -7.627  0.00  0.00     0.027 C 
BRANCH  13  14
ATOM     14  C4  NON d   1     -40.260  21.179  -7.395  0.00  0.00     0.002 C 
BRANCH  14  15
ATOM     15  C3  NON d   1     -38.930  20.770  -8.044  0.00  0.00    -0.000 C 
BRANCH  15  16
ATOM     16  C2  NON d   1     -38.849  19.304  -8.475  0.00  0.00    -0.005 C 
ATOM     17  C1  NON d   1     -37.406  18.835  -8.602  0.00  0.00     0.005 C 
ENDBRANCH  15  16
ENDBRANCH  14  15
ENDBRANCH  13  14
ENDBRANCH  12  13
ENDBRANCH  11  12
ENDBRANCH  10  11
ENDBRANCH   1   5
BRANCH   3  18
ATOM     18  N2  NON d   1     -44.697  17.043  -3.707  0.00  0.00    -0.263 N 
ATOM     19  C14 NON d   1     -45.590  16.566  -4.646  0.00  0.00     0.270 C 
ATOM     20  O3  NON d   1     -45.246  16.357  -5.810  0.00  0.00    -0.266 OA
ATOM     21  H19 NON d   1     -44.889  17.268  -2.734  0.00  0.00     0.190 HD
BRANCH  19  22
ATOM     22  C15 NON d   1     -46.998  16.300  -4.220  0.00  0.00     0.033 A 
ATOM     23  C16 NON d   1     -47.433  16.883  -3.016  0.00  0.00     0.019 A 
ATOM     24  C17 NON d   1     -48.740  16.692  -2.553  0.00  0.00     0.037 A 
ATOM     25  C18 NON d   1     -49.624  15.907  -3.301  0.00  0.00     0.102 A 
ATOM     26  C19 NON d   1     -49.205  15.318  -4.502  0.00  0.00     0.037 A 
ATOM     27  C20 NON d   1     -47.895  15.515  -4.958  0.00  0.00     0.019 A 
BRANCH  25  28
ATOM     28  N3  NON d   1     -51.000  15.704  -2.828  0.00  0.00    -0.116 N 
ATOM     29  O4  NON d   1     -51.527  16.617  -2.175  0.00  0.00    -0.532 OA
ATOM     30  O5  NON d   1     -51.552  14.630  -3.108  0.00  0.00    -0.532 OA
ENDBRANCH  25  28
ENDBRANCH  19  22
ENDBRANCH   3  18
TORSDOF 10
ENDMDL
