MODEL 1
REMARK VINA RESULT:   -17.705      0.000      0.000
REMARK INTER + INTRA:         -20.146
REMARK INTER:                 -19.793
REMARK INTRA:                  -0.354
REMARK CONF_INDEPENDENT:        2.088
REMARK UNBOUND:                -0.354
REMARK  7 active torsions:
REMARK  status: ('A' for Active; 'I' for Inactive)
REMARK    1  A    between atoms: C2_2  and  C3_3 
REMARK    2  A    between atoms: C3_3  and  O1_4 
REMARK    3  A    between atoms: O1_4  and  C4_5 
REMARK    4  A    between atoms: C4_5  and  C5_7 
REMARK    5  A    between atoms: C8_10  and  N1_11 
REMARK    6  A    between atoms: N1_11  and  C9_12 
REMARK    7  A    between atoms: C9_12  and  N2_14 
REMARK       I    between atoms: N2_14  and  C10_15 
ROOT
ATOM      1  C5  NON d   1     -40.670  18.581  -4.425  0.00  0.00     0.039 A 
ATOM      2  C6  NON d   1     -41.731  18.511  -5.355  0.00  0.00     0.020 A 
ATOM      3  C7  NON d   1     -43.026  18.012  -5.012  0.00  0.00     0.030 A 
ATOM      4  C8  NON d   1     -43.330  17.531  -3.727  0.00  0.00     0.034 A 
ATOM      5  C12 NON d   1     -42.282  17.655  -2.795  0.00  0.00     0.030 A 
ATOM      6  C13 NON d   1     -40.977  18.159  -3.131  0.00  0.00     0.020 A 
ENDROOT
BRANCH   4   7
ATOM      7  N1  NON d   1     -44.678  17.006  -3.458  0.00  0.00    -0.333 N 
ATOM      8  H10 NON d   1     -44.875  16.893  -2.472  0.00  0.00     0.168 HD
BRANCH   7   9
ATOM      9  C9  NON d   1     -45.788  16.833  -4.332  0.00  0.00     0.178 C 
ATOM     10  S1  NON d   1     -45.943  17.630  -5.810  0.00  0.00    -0.040 SA
BRANCH   9  11
ATOM     11  N2  NON d   1     -46.823  15.949  -3.822  0.00  0.00    -0.304 N 
ATOM     12  C10 NON d   1     -47.900  15.497  -4.579  0.00  0.00     0.219 C 
ATOM     13  C11 NON d   1     -49.257  14.883  -4.192  0.00  0.00     0.117 C 
ATOM     14  O3  NON d   1     -47.706  15.385  -5.809  0.00  0.00    -0.274 OA
ATOM     15  H11 NON d   1     -46.746  15.618  -2.874  0.00  0.00     0.171 HD
ENDBRANCH   9  11
ENDBRANCH   7   9
ENDBRANCH   4   7
BRANCH   1  16
ATOM     16  C4  NON d   1     -39.300  19.102  -4.866  0.00  0.00     0.293 C 
ATOM     17  O2  NON d   1     -38.298  18.806  -4.225  0.00  0.00    -0.259 OA
BRANCH  16  18
ATOM     18  O1  NON d   1     -39.272  19.914  -5.994  0.00  0.00    -0.318 OA
BRANCH  18  19
ATOM     19  C3  NON d   1     -38.968  19.196  -7.242  0.00  0.00     0.178 C 
BRANCH  19  20
ATOM     20  C2  NON d   1     -39.935  19.433  -8.469  0.00  0.00     0.022 C 
ATOM     21  C1  NON d   1     -40.941  20.570  -8.211  0.00  0.00     0.007 C 
ENDBRANCH  19  20
ENDBRANCH  18  19
ENDBRANCH  16  18
ENDBRANCH   1  16
TORSDOF 7
ENDMDL
MODEL 2
REMARK VINA RESULT:   -17.094      1.711      3.066
REMARK INTER + INTRA:         -19.598
REMARK INTER:                 -19.182
REMARK INTRA:                  -0.416
REMARK CONF_INDEPENDENT:        2.088
REMARK UNBOUND:                -0.416
REMARK  7 active torsions:
REMARK  status: ('A' for Active; 'I' for Inactive)
REMARK    1  A    between atoms: C2_2  and  C3_3 
REMARK    2  A    between atoms: C3_3  and  O1_4 
REMARK    3  A    between atoms: O1_4  and  C4_5 
REMARK    4  A    between atoms: C4_5  and  C5_7 
REMARK    5  A    between atoms: C8_10  and  N1_11 
REMARK    6  A    between atoms: N1_11  and  C9_12 
REMARK    7  A    between atoms: C9_12  and  N2_14 
REMARK       I    between atoms: N2_14  and  C10_15 
ROOT
ATOM      1  C5  NON d   1     -40.695  18.801  -4.181  0.00  0.00     0.039 A 
ATOM      2  C6  NON d   1     -41.197  18.381  -2.928  0.00  0.00     0.020 A 
ATOM      3  C7  NON d   1     -42.436  17.684  -2.786  0.00  0.00     0.030 A 
ATOM      4  C8  NON d   1     -43.259  17.384  -3.886  0.00  0.00     0.034 A 
ATOM      5  C12 NON d   1     -42.724  17.759  -5.133  0.00  0.00     0.030 A 
ATOM      6  C13 NON d   1     -41.477  18.459  -5.284  0.00  0.00     0.020 A 
ENDROOT
BRANCH   4   7
ATOM      7  N1  NON d   1     -44.535  16.688  -3.657  0.00  0.00    -0.333 N 
ATOM      8  H10 NON d   1     -44.598  16.255  -2.745  0.00  0.00     0.168 HD
BRANCH   7   9
ATOM      9  C9  NON d   1     -45.738  16.702  -4.417  0.00  0.00     0.178 C 
ATOM     10  S1  NON d   1     -45.950  17.629  -5.810  0.00  0.00    -0.040 SA
BRANCH   9  11
ATOM     11  N2  NON d   1     -46.810  15.892  -3.862  0.00  0.00    -0.304 N 
ATOM     12  C10 NON d   1     -47.943  15.511  -4.575  0.00  0.00     0.219 C 
ATOM     13  C11 NON d   1     -49.322  14.991  -4.131  0.00  0.00     0.117 C 
ATOM     14  O3  NON d   1     -47.805  15.381  -5.810  0.00  0.00    -0.274 OA
ATOM     15  H11 NON d   1     -46.718  15.560  -2.916  0.00  0.00     0.171 HD
ENDBRANCH   9  11
ENDBRANCH   7   9
ENDBRANCH   4   7
BRANCH   1  16
ATOM     16  C4  NON d   1     -39.373  19.567  -4.257  0.00  0.00     0.293 C 
ATOM     17  O2  NON d   1     -38.347  18.985  -4.589  0.00  0.00    -0.259 OA
BRANCH  16  18
ATOM     18  O1  NON d   1     -39.410  20.917  -3.926  0.00  0.00    -0.318 OA
BRANCH  18  19
ATOM     19  C3  NON d   1     -38.854  21.226  -2.599  0.00  0.00     0.178 C 
BRANCH  19  20
ATOM     20  C2  NON d   1     -39.878  21.567  -1.445  0.00  0.00     0.022 C 
ATOM     21  C1  NON d   1     -39.247  21.440  -0.046  0.00  0.00     0.007 C 
ENDBRANCH  19  20
ENDBRANCH  18  19
ENDBRANCH  16  18
ENDBRANCH   1  16
TORSDOF 7
ENDMDL
MODEL 3
REMARK VINA RESULT:   -16.987      1.500      2.858
REMARK INTER + INTRA:         -19.385
REMARK INTER:                 -19.075
REMARK INTRA:                  -0.310
REMARK CONF_INDEPENDENT:        2.088
REMARK UNBOUND:                -0.310
REMARK  7 active torsions:
REMARK  status: ('A' for Active; 'I' for Inactive)
REMARK    1  A    between atoms: C2_2  and  C3_3 
REMARK    2  A    between atoms: C3_3  and  O1_4 
REMARK    3  A    between atoms: O1_4  and  C4_5 
REMARK    4  A    between atoms: C4_5  and  C5_7 
REMARK    5  A    between atoms: C8_10  and  N1_11 
REMARK    6  A    between atoms: N1_11  and  C9_12 
REMARK    7  A    between atoms: C9_12  and  N2_14 
REMARK       I    between atoms: N2_14  and  C10_15 
ROOT
ATOM      1  C5  NON d   1     -40.631  18.559  -4.627  0.00  0.00     0.039 A 
ATOM      2  C6  NON d   1     -41.467  17.941  -5.585  0.00  0.00     0.020 A 
ATOM      3  C7  NON d   1     -42.729  17.361  -5.249  0.00  0.00     0.030 A 
ATOM      4  C8  NON d   1     -43.220  17.341  -3.932  0.00  0.00     0.034 A 
ATOM      5  C12 NON d   1     -42.404  18.006  -2.997  0.00  0.00     0.030 A 
ATOM      6  C13 NON d   1     -41.135  18.594  -3.327  0.00  0.00     0.020 A 
ENDROOT
BRANCH   4   7
ATOM      7  N1  NON d   1     -44.516  16.700  -3.660  0.00  0.00    -0.333 N 
ATOM      8  H10 NON d   1     -44.590  16.327  -2.722  0.00  0.00     0.168 HD
BRANCH   7   9
ATOM      9  C9  NON d   1     -45.720  16.703  -4.419  0.00  0.00     0.178 C 
ATOM     10  S1  NON d   1     -45.942  17.630  -5.810  0.00  0.00    -0.040 SA
BRANCH   9  11
ATOM     11  N2  NON d   1     -46.783  15.881  -3.864  0.00  0.00    -0.304 N 
ATOM     12  C10 NON d   1     -47.919  15.500  -4.572  0.00  0.00     0.219 C 
ATOM     13  C11 NON d   1     -49.292  14.968  -4.124  0.00  0.00     0.117 C 
ATOM     14  O3  NON d   1     -47.789  15.384  -5.810  0.00  0.00    -0.274 OA
ATOM     15  H11 NON d   1     -46.683  15.541  -2.922  0.00  0.00     0.171 HD
ENDBRANCH   9  11
ENDBRANCH   7   9
ENDBRANCH   4   7
BRANCH   1  16
ATOM     16  C4  NON d   1     -39.279  19.137  -5.051  0.00  0.00     0.293 C 
ATOM     17  O2  NON d   1     -39.237  20.125  -5.776  0.00  0.00    -0.259 OA
BRANCH  16  18
ATOM     18  O1  NON d   1     -38.143  18.485  -4.584  0.00  0.00    -0.318 OA
BRANCH  18  19
ATOM     19  C3  NON d   1     -38.010  18.487  -3.118  0.00  0.00     0.178 C 
BRANCH  19  20
ATOM     20  C2  NON d   1     -36.638  17.988  -2.514  0.00  0.00     0.022 C 
ATOM     21  C1  NON d   1     -36.831  16.901  -1.441  0.00  0.00     0.007 C 
ENDBRANCH  19  20
ENDBRANCH  18  19
ENDBRANCH  16  18
ENDBRANCH   1  16
TORSDOF 7
ENDMDL
MODEL 4
REMARK VINA RESULT:   -16.970      1.641      2.261
REMARK INTER + INTRA:         -19.447
REMARK INTER:                 -19.058
REMARK INTRA:                  -0.389
REMARK CONF_INDEPENDENT:        2.088
REMARK UNBOUND:                -0.389
REMARK  7 active torsions:
REMARK  status: ('A' for Active; 'I' for Inactive)
REMARK    1  A    between atoms: C2_2  and  C3_3 
REMARK    2  A    between atoms: C3_3  and  O1_4 
REMARK    3  A    between atoms: O1_4  and  C4_5 
REMARK    4  A    between atoms: C4_5  and  C5_7 
REMARK    5  A    between atoms: C8_10  and  N1_11 
REMARK    6  A    between atoms: N1_11  and  C9_12 
REMARK    7  A    between atoms: C9_12  and  N2_14 
REMARK       I    between atoms: N2_14  and  C10_15 
ROOT
ATOM      1  C5  NON d   1     -40.661  18.692  -4.215  0.00  0.00     0.039 A 
ATOM      2  C6  NON d   1     -41.290  18.564  -2.956  0.00  0.00     0.020 A 
ATOM      3  C7  NON d   1     -42.548  17.908  -2.784  0.00  0.00     0.030 A 
ATOM      4  C8  NON d   1     -43.264  17.361  -3.863  0.00  0.00     0.034 A 
ATOM      5  C12 NON d   1     -42.603  17.447  -5.104  0.00  0.00     0.030 A 
ATOM      6  C13 NON d   1     -41.336  18.103  -5.284  0.00  0.00     0.020 A 
ENDROOT
BRANCH   4   7
ATOM      7  N1  NON d   1     -44.567  16.726  -3.611  0.00  0.00    -0.333 N 
ATOM      8  H10 NON d   1     -44.663  16.368  -2.669  0.00  0.00     0.168 HD
BRANCH   7   9
ATOM      9  C9  NON d   1     -45.753  16.720  -4.397  0.00  0.00     0.178 C 
ATOM     10  S1  NON d   1     -45.940  17.622  -5.810  0.00  0.00    -0.040 SA
BRANCH   9  11
ATOM     11  N2  NON d   1     -46.832  15.911  -3.852  0.00  0.00    -0.304 N 
ATOM     12  C10 NON d   1     -47.953  15.523  -4.579  0.00  0.00     0.219 C 
ATOM     13  C11 NON d   1     -49.338  15.003  -4.152  0.00  0.00     0.117 C 
ATOM     14  O3  NON d   1     -47.796  15.383  -5.811  0.00  0.00    -0.274 OA
ATOM     15  H11 NON d   1     -46.754  15.588  -2.902  0.00  0.00     0.171 HD
ENDBRANCH   9  11
ENDBRANCH   7   9
ENDBRANCH   4   7
BRANCH   1  16
ATOM     16  C4  NON d   1     -39.326  19.430  -4.331  0.00  0.00     0.293 C 
ATOM     17  O2  NON d   1     -38.353  18.862  -4.816  0.00  0.00    -0.259 OA
BRANCH  16  18
ATOM     18  O1  NON d   1     -39.288  20.736  -3.857  0.00  0.00    -0.318 OA
BRANCH  18  19
ATOM     19  C3  NON d   1     -40.529  21.493  -4.083  0.00  0.00     0.178 C 
BRANCH  19  20
ATOM     20  C2  NON d   1     -40.442  23.069  -4.007  0.00  0.00     0.022 C 
ATOM     21  C1  NON d   1     -40.190  23.709  -5.386  0.00  0.00     0.007 C 
ENDBRANCH  19  20
ENDBRANCH  18  19
ENDBRANCH  16  18
ENDBRANCH   1  16
TORSDOF 7
ENDMDL
MODEL 5
REMARK VINA RESULT:   -16.053      4.867     10.436
REMARK INTER + INTRA:         -18.580
REMARK INTER:                 -18.141
REMARK INTRA:                  -0.439
REMARK CONF_INDEPENDENT:        2.088
REMARK UNBOUND:                -0.439
REMARK  7 active torsions:
REMARK  status: ('A' for Active; 'I' for Inactive)
REMARK    1  A    between atoms: C2_2  and  C3_3 
REMARK    2  A    between atoms: C3_3  and  O1_4 
REMARK    3  A    between atoms: O1_4  and  C4_5 
REMARK    4  A    between atoms: C4_5  and  C5_7 
REMARK    5  A    between atoms: C8_10  and  N1_11 
REMARK    6  A    between atoms: N1_11  and  C9_12 
REMARK    7  A    between atoms: C9_12  and  N2_14 
REMARK       I    between atoms: N2_14  and  C10_15 
ROOT
ATOM      1  C5  NON d   1     -51.509  17.643  -0.950  0.00  0.00     0.039 A 
ATOM      2  C6  NON d   1     -51.769  16.867  -2.102  0.00  0.00     0.020 A 
ATOM      3  C7  NON d   1     -50.751  16.129  -2.782  0.00  0.00     0.030 A 
ATOM      4  C8  NON d   1     -49.408  16.141  -2.365  0.00  0.00     0.034 A 
ATOM      5  C12 NON d   1     -49.171  16.874  -1.186  0.00  0.00     0.030 A 
ATOM      6  C13 NON d   1     -50.190  17.617  -0.495  0.00  0.00     0.020 A 
ENDROOT
BRANCH   4   7
ATOM      7  N1  NON d   1     -48.412  15.379  -3.133  0.00  0.00    -0.333 N 
ATOM      8  H10 NON d   1     -48.457  14.381  -2.969  0.00  0.00     0.168 HD
BRANCH   7   9
ATOM      9  C9  NON d   1     -47.558  15.790  -4.195  0.00  0.00     0.178 C 
ATOM     10  S1  NON d   1     -47.815  15.380  -5.810  0.00  0.00    -0.040 SA
BRANCH   9  11
ATOM     11  N2  NON d   1     -46.396  16.555  -3.770  0.00  0.00    -0.304 N 
ATOM     12  C10 NON d   1     -45.413  17.017  -4.640  0.00  0.00     0.219 C 
ATOM     13  C11 NON d   1     -43.972  17.506  -4.410  0.00  0.00     0.117 C 
ATOM     14  O3  NON d   1     -45.776  17.266  -5.810  0.00  0.00    -0.274 OA
ATOM     15  H11 NON d   1     -46.309  16.791  -2.796  0.00  0.00     0.171 HD
ENDBRANCH   9  11
ENDBRANCH   7   9
ENDBRANCH   4   7
BRANCH   1  16
ATOM     16  C4  NON d   1     -52.641  18.430  -0.287  0.00  0.00     0.293 C 
ATOM     17  O2  NON d   1     -52.418  19.536   0.192  0.00  0.00    -0.259 OA
BRANCH  16  18
ATOM     18  O1  NON d   1     -53.892  17.823  -0.255  0.00  0.00    -0.318 OA
BRANCH  18  19
ATOM     19  C3  NON d   1     -54.990  18.686  -0.716  0.00  0.00     0.178 C 
BRANCH  19  20
ATOM     20  C2  NON d   1     -55.604  18.380  -2.140  0.00  0.00     0.022 C 
ATOM     21  C1  NON d   1     -54.933  17.172  -2.820  0.00  0.00     0.007 C 
ENDBRANCH  19  20
ENDBRANCH  18  19
ENDBRANCH  16  18
ENDBRANCH   1  16
TORSDOF 7
ENDMDL
MODEL 6
REMARK VINA RESULT:   -15.672      1.441      1.822
REMARK INTER + INTRA:         -18.140
REMARK INTER:                 -17.760
REMARK INTRA:                  -0.380
REMARK CONF_INDEPENDENT:        2.088
REMARK UNBOUND:                -0.380
REMARK  7 active torsions:
REMARK  status: ('A' for Active; 'I' for Inactive)
REMARK    1  A    between atoms: C2_2  and  C3_3 
REMARK    2  A    between atoms: C3_3  and  O1_4 
REMARK    3  A    between atoms: O1_4  and  C4_5 
REMARK    4  A    between atoms: C4_5  and  C5_7 
REMARK    5  A    between atoms: C8_10  and  N1_11 
REMARK    6  A    between atoms: N1_11  and  C9_12 
REMARK    7  A    between atoms: C9_12  and  N2_14 
REMARK       I    between atoms: N2_14  and  C10_15 
ROOT
ATOM      1  C5  NON d   1     -40.914  19.281  -6.126  0.00  0.00     0.039 A 
ATOM      2  C6  NON d   1     -42.185  19.879  -5.977  0.00  0.00     0.020 A 
ATOM      3  C7  NON d   1     -43.288  19.208  -5.364  0.00  0.00     0.030 A 
ATOM      4  C8  NON d   1     -43.193  17.890  -4.884  0.00  0.00     0.034 A 
ATOM      5  C12 NON d   1     -41.908  17.324  -4.988  0.00  0.00     0.030 A 
ATOM      6  C13 NON d   1     -40.793  17.993  -5.602  0.00  0.00     0.020 A 
ENDROOT
BRANCH   4   7
ATOM      7  N1  NON d   1     -44.380  17.256  -4.290  0.00  0.00    -0.333 N 
ATOM      8  H10 NON d   1     -44.282  17.068  -3.301  0.00  0.00     0.168 HD
BRANCH   7   9
ATOM      9  C9  NON d   1     -45.683  17.059  -4.828  0.00  0.00     0.178 C 
ATOM     10  S1  NON d   1     -46.263  17.876  -6.185  0.00  0.00    -0.040 SA
BRANCH   9  11
ATOM     11  N2  NON d   1     -46.511  16.130  -4.076  0.00  0.00    -0.304 N 
ATOM     12  C10 NON d   1     -47.675  15.552  -4.573  0.00  0.00     0.219 C 
ATOM     13  C11 NON d   1     -48.865  14.860  -3.885  0.00  0.00     0.117 C 
ATOM     14  O3  NON d   1     -47.726  15.380  -5.810  0.00  0.00    -0.274 OA
ATOM     15  H11 NON d   1     -46.214  15.865  -3.152  0.00  0.00     0.171 HD
ENDBRANCH   9  11
ENDBRANCH   7   9
ENDBRANCH   4   7
BRANCH   1  16
ATOM     16  C4  NON d   1     -39.784  20.047  -6.816  0.00  0.00     0.293 C 
ATOM     17  O2  NON d   1     -39.172  20.916  -6.205  0.00  0.00    -0.259 OA
BRANCH  16  18
ATOM     18  O1  NON d   1     -39.514  19.712  -8.138  0.00  0.00    -0.318 OA
BRANCH  18  19
ATOM     19  C3  NON d   1     -38.083  19.545  -8.435  0.00  0.00     0.178 C 
BRANCH  19  20
ATOM     20  C2  NON d   1     -37.420  20.589  -9.420  0.00  0.00     0.022 C 
ATOM     21  C1  NON d   1     -38.124  21.958  -9.382  0.00  0.00     0.007 C 
ENDBRANCH  19  20
ENDBRANCH  18  19
ENDBRANCH  16  18
ENDBRANCH   1  16
TORSDOF 7
ENDMDL
MODEL 7
REMARK VINA RESULT:   -15.340      4.866     10.791
REMARK INTER + INTRA:         -17.831
REMARK INTER:                 -17.428
REMARK INTRA:                  -0.403
REMARK CONF_INDEPENDENT:        2.088
REMARK UNBOUND:                -0.403
REMARK  7 active torsions:
REMARK  status: ('A' for Active; 'I' for Inactive)
REMARK    1  A    between atoms: C2_2  and  C3_3 
REMARK    2  A    between atoms: C3_3  and  O1_4 
REMARK    3  A    between atoms: O1_4  and  C4_5 
REMARK    4  A    between atoms: C4_5  and  C5_7 
REMARK    5  A    between atoms: C8_10  and  N1_11 
REMARK    6  A    between atoms: N1_11  and  C9_12 
REMARK    7  A    between atoms: C9_12  and  N2_14 
REMARK       I    between atoms: N2_14  and  C10_15 
ROOT
ATOM      1  C5  NON d   1     -52.413  16.554  -2.067  0.00  0.00     0.039 A 
ATOM      2  C6  NON d   1     -51.257  17.296  -1.736  0.00  0.00     0.020 A 
ATOM      3  C7  NON d   1     -49.940  16.880  -2.103  0.00  0.00     0.030 A 
ATOM      4  C8  NON d   1     -49.698  15.685  -2.803  0.00  0.00     0.034 A 
ATOM      5  C12 NON d   1     -50.860  14.982  -3.174  0.00  0.00     0.030 A 
ATOM      6  C13 NON d   1     -52.188  15.396  -2.811  0.00  0.00     0.020 A 
ENDROOT
BRANCH   4   7
ATOM      7  N1  NON d   1     -48.312  15.309  -3.121  0.00  0.00    -0.333 N 
ATOM      8  H10 NON d   1     -47.970  14.533  -2.569  0.00  0.00     0.168 HD
BRANCH   7   9
ATOM      9  C9  NON d   1     -47.472  15.719  -4.194  0.00  0.00     0.178 C 
ATOM     10  S1  NON d   1     -47.793  15.373  -5.814  0.00  0.00    -0.040 SA
BRANCH   9  11
ATOM     11  N2  NON d   1     -46.266  16.418  -3.781  0.00  0.00    -0.304 N 
ATOM     12  C10 NON d   1     -45.302  16.891  -4.667  0.00  0.00     0.219 C 
ATOM     13  C11 NON d   1     -43.835  17.317  -4.474  0.00  0.00     0.117 C 
ATOM     14  O3  NON d   1     -45.704  17.215  -5.806  0.00  0.00    -0.274 OA
ATOM     15  H11 NON d   1     -46.129  16.598  -2.801  0.00  0.00     0.171 HD
ENDBRANCH   9  11
ENDBRANCH   7   9
ENDBRANCH   4   7
BRANCH   1  16
ATOM     16  C4  NON d   1     -53.791  17.045  -1.620  0.00  0.00     0.293 C 
ATOM     17  O2  NON d   1     -54.757  16.920  -2.364  0.00  0.00    -0.259 OA
BRANCH  16  18
ATOM     18  O1  NON d   1     -53.870  17.631  -0.361  0.00  0.00    -0.318 OA
BRANCH  18  19
ATOM     19  C3  NON d   1     -54.953  18.619  -0.226  0.00  0.00     0.178 C 
BRANCH  19  20
ATOM     20  C2  NON d   1     -54.609  20.123  -0.566  0.00  0.00     0.022 C 
ATOM     21  C1  NON d   1     -53.392  20.639   0.225  0.00  0.00     0.007 C 
ENDBRANCH  19  20
ENDBRANCH  18  19
ENDBRANCH  16  18
ENDBRANCH   1  16
TORSDOF 7
ENDMDL
MODEL 8
REMARK VINA RESULT:   -14.731      4.078     10.182
REMARK INTER + INTRA:         -17.210
REMARK INTER:                 -16.819
REMARK INTRA:                  -0.392
REMARK CONF_INDEPENDENT:        2.088
REMARK UNBOUND:                -0.392
REMARK  7 active torsions:
REMARK  status: ('A' for Active; 'I' for Inactive)
REMARK    1  A    between atoms: C2_2  and  C3_3 
REMARK    2  A    between atoms: C3_3  and  O1_4 
REMARK    3  A    between atoms: O1_4  and  C4_5 
REMARK    4  A    between atoms: C4_5  and  C5_7 
REMARK    5  A    between atoms: C8_10  and  N1_11 
REMARK    6  A    between atoms: N1_11  and  C9_12 
REMARK    7  A    between atoms: C9_12  and  N2_14 
REMARK       I    between atoms: N2_14  and  C10_15 
ROOT
ATOM      1  C5  NON d   1     -50.980  16.108  -2.552  0.00  0.00     0.039 A 
ATOM      2  C6  NON d   1     -50.330  15.312  -3.522  0.00  0.00     0.020 A 
ATOM      3  C7  NON d   1     -48.911  15.312  -3.696  0.00  0.00     0.030 A 
ATOM      4  C8  NON d   1     -48.060  16.125  -2.927  0.00  0.00     0.034 A 
ATOM      5  C12 NON d   1     -48.714  16.873  -1.929  0.00  0.00     0.030 A 
ATOM      6  C13 NON d   1     -50.140  16.877  -1.746  0.00  0.00     0.020 A 
ENDROOT
BRANCH   4   7
ATOM      7  N1  NON d   1     -46.612  16.091  -3.184  0.00  0.00    -0.333 N 
ATOM      8  H10 NON d   1     -46.115  15.435  -2.595  0.00  0.00     0.168 HD
BRANCH   7   9
ATOM      9  C9  NON d   1     -45.852  16.669  -4.240  0.00  0.00     0.178 C 
ATOM     10  S1  NON d   1     -46.438  16.866  -5.809  0.00  0.00    -0.040 SA
BRANCH   9  11
ATOM     11  N2  NON d   1     -44.491  17.028  -3.875  0.00  0.00    -0.304 N 
ATOM     12  C10 NON d   1     -43.712  17.935  -4.587  0.00  0.00     0.219 C 
ATOM     13  C11 NON d   1     -42.195  18.198  -4.620  0.00  0.00     0.117 C 
ATOM     14  O3  NON d   1     -44.325  18.842  -5.191  0.00  0.00    -0.274 OA
ATOM     15  H11 NON d   1     -44.096  16.622  -3.044  0.00  0.00     0.171 HD
ENDBRANCH   9  11
ENDBRANCH   7   9
ENDBRANCH   4   7
BRANCH   1  16
ATOM     16  C4  NON d   1     -52.506  16.079  -2.437  0.00  0.00     0.293 C 
ATOM     17  O2  NON d   1     -53.121  15.057  -2.716  0.00  0.00    -0.259 OA
BRANCH  16  18
ATOM     18  O1  NON d   1     -53.126  17.252  -2.019  0.00  0.00    -0.318 OA
BRANCH  18  19
ATOM     19  C3  NON d   1     -54.565  17.309  -2.318  0.00  0.00     0.178 C 
BRANCH  19  20
ATOM     20  C2  NON d   1     -55.423  18.391  -1.550  0.00  0.00     0.022 C 
ATOM     21  C1  NON d   1     -54.581  19.204  -0.550  0.00  0.00     0.007 C 
ENDBRANCH  19  20
ENDBRANCH  18  19
ENDBRANCH  16  18
ENDBRANCH   1  16
TORSDOF 7
ENDMDL
