MODEL 1
REMARK VINA RESULT:   -13.908      0.000      0.000
REMARK INTER + INTRA:         -17.180
REMARK INTER:                 -15.996
REMARK INTRA:                  -1.184
REMARK CONF_INDEPENDENT:        2.088
REMARK UNBOUND:                -1.184
REMARK  7 active torsions:
REMARK  status: ('A' for Active; 'I' for Inactive)
REMARK    1  A    between atoms: C5_5  and  S1_6 
REMARK    2  A    between atoms: S1_6  and  N1_9 
REMARK    3  A    between atoms: N1_9  and  C6_10 
REMARK    4  A    between atoms: N1_9  and  C8_15 
REMARK    5  A    between atoms: C6_10  and  C7_11 
REMARK       I    between atoms: C7_11  and  N2_13 
REMARK    6  A    between atoms: N2_13  and  O4_14 
REMARK    7  A    between atoms: C8_15  and  C9_16 
ROOT
ATOM      1  N1  NON d   1     -44.643  17.713  -4.232  0.00  0.00    -0.294 N 
ENDROOT
BRANCH   1   2
ATOM      2  S1  NON d   1     -43.125  17.971  -4.237  0.00  0.00     0.261 S 
ATOM      3  O1  NON d   1     -43.017  16.894  -5.240  0.00  0.00    -0.200 OA
ATOM      4  O2  NON d   1     -43.028  17.620  -2.811  0.00  0.00    -0.200 OA
BRANCH   2   5
ATOM      5  C5  NON d   1     -41.606  18.229  -4.243  0.00  0.00     0.079 A 
ATOM      6  C4  NON d   1     -40.911  18.264  -3.012  0.00  0.00     0.026 A 
ATOM      7  C3  NON d   1     -39.524  18.481  -2.922  0.00  0.00     0.008 A 
ATOM      8  C2  NON d   1     -38.766  18.716  -4.068  0.00  0.00    -0.062 A 
ATOM      9  C1  NON d   1     -37.289  18.962  -3.987  0.00  0.00     0.048 C 
ATOM     10  C16 NON d   1     -39.420  18.762  -5.292  0.00  0.00     0.008 A 
ATOM     11  C15 NON d   1     -40.798  18.514  -5.372  0.00  0.00     0.026 A 
ENDBRANCH   2   5
ENDBRANCH   1   2
BRANCH   1  12
ATOM     12  C6  NON d   1     -45.375  18.267  -5.412  0.00  0.00     0.240 C 
BRANCH  12  13
ATOM     13  C7  NON d   1     -46.410  17.254  -5.898  0.00  0.00     0.259 C 
ATOM     14  O3  NON d   1     -47.568  17.553  -6.184  0.00  0.00    -0.270 OA
ATOM     15  N2  NON d   1     -45.941  15.965  -6.010  0.00  0.00    -0.236 N 
ATOM     16  H8  NON d   1     -44.962  15.700  -5.954  0.00  0.00     0.197 HD
BRANCH  15  17
ATOM     17  O4  NON d   1     -46.831  15.005  -6.534  0.00  0.00    -0.287 OA
ATOM     18  H9  NON d   1     -47.608  15.545  -6.795  0.00  0.00     0.244 HD
ENDBRANCH  15  17
ENDBRANCH  12  13
ENDBRANCH   1  12
BRANCH   1  19
ATOM     19  C8  NON d   1     -45.251  16.520  -3.563  0.00  0.00     0.174 C 
BRANCH  19  20
ATOM     20  C9  NON d   1     -46.742  16.440  -3.230  0.00  0.00    -0.040 A 
ATOM     21  C10 NON d   1     -47.465  15.380  -3.813  0.00  0.00     0.009 A 
ATOM     22  C11 NON d   1     -48.826  15.197  -3.561  0.00  0.00     0.001 A 
ATOM     23  C12 NON d   1     -49.500  16.083  -2.731  0.00  0.00     0.000 A 
ATOM     24  C13 NON d   1     -48.797  17.110  -2.105  0.00  0.00     0.001 A 
ATOM     25  C14 NON d   1     -47.420  17.254  -2.315  0.00  0.00     0.009 A 
ENDBRANCH  19  20
ENDBRANCH   1  19
TORSDOF 7
ENDMDL
