MODEL 1
REMARK VINA RESULT:   -11.301      0.000      0.000
REMARK INTER + INTRA:         -14.535
REMARK INTER:                 -13.687
REMARK INTRA:                  -0.848
REMARK CONF_INDEPENDENT:        2.386
REMARK UNBOUND:                -0.848
REMARK  8 active torsions:
REMARK  status: ('A' for Active; 'I' for Inactive)
REMARK    1  A    between atoms: C1_2  and  C2_3 
REMARK       I    between atoms: C1_2  and  N1_13 
REMARK    2  A    between atoms: C3_4  and  C4_5 
REMARK    3  A    between atoms: N1_13  and  C10_14 
REMARK    4  A    between atoms: C13_17  and  C14_18 
REMARK       I    between atoms: C14_18  and  N2_20 
REMARK    5  A    between atoms: N2_20  and  C15_21 
REMARK    6  A    between atoms: C15_21  and  C16_22 
REMARK    7  A    between atoms: C16_22  and  C17_23 
REMARK    8  A    between atoms: C17_23  and  N3_24 
ROOT
ATOM      1  C10 NON d   1     -47.085  16.466  -3.321  0.00  0.00     0.035 A 
ATOM      2  C11 NON d   1     -47.481  16.962  -2.075  0.00  0.00     0.030 A 
ATOM      3  C12 NON d   1     -48.837  16.986  -1.711  0.00  0.00     0.019 A 
ATOM      4  C13 NON d   1     -49.829  16.511  -2.583  0.00  0.00     0.032 A 
ATOM      5  C22 NON d   1     -49.432  16.012  -3.826  0.00  0.00     0.019 A 
ATOM      6  C23 NON d   1     -48.074  15.988  -4.185  0.00  0.00     0.030 A 
ENDROOT
BRANCH   1   7
ATOM      7  N1  NON d   1     -45.704  16.490  -3.637  0.00  0.00    -0.324 N 
ATOM      8  C1  NON d   1     -45.137  16.883  -4.835  0.00  0.00     0.245 C 
ATOM      9  O1  NON d   1     -45.738  17.253  -5.837  0.00  0.00    -0.268 OA
ATOM     10  H6  NON d   1     -45.079  16.197  -2.896  0.00  0.00     0.169 HD
BRANCH   8  11
ATOM     11  C2  NON d   1     -43.639  16.828  -4.825  0.00  0.00     0.075 C 
ATOM     12  C3  NON d   1     -42.973  17.817  -4.202  0.00  0.00     0.018 C 
BRANCH  12  13
ATOM     13  C4  NON d   1     -41.524  18.059  -3.996  0.00  0.00    -0.014 A 
ATOM     14  C5  NON d   1     -41.032  17.608  -2.748  0.00  0.00     0.015 A 
ATOM     15  C6  NON d   1     -39.692  17.761  -2.376  0.00  0.00     0.024 A 
ATOM     16  C7  NON d   1     -38.806  18.371  -3.251  0.00  0.00     0.035 A 
ATOM     17 Cl1  NON d   1     -37.158  18.565  -2.802  0.00  0.00    -0.084 Cl
ATOM     18  C8  NON d   1     -39.251  18.828  -4.486  0.00  0.00     0.048 A 
ATOM     19  C9  NON d   1     -40.597  18.677  -4.860  0.00  0.00     0.045 A 
ATOM     20 Cl2  NON d   1     -41.003  19.305  -6.419  0.00  0.00    -0.083 Cl
ENDBRANCH  12  13
ENDBRANCH   8  11
ENDBRANCH   1   7
BRANCH   4  21
ATOM     21  C14 NON d   1     -51.259  16.600  -2.148  0.00  0.00     0.251 C 
ATOM     22  O2  NON d   1     -51.565  17.344  -1.220  0.00  0.00    -0.268 OA
ATOM     23  N2  NON d   1     -52.199  15.828  -2.813  0.00  0.00    -0.357 N 
ATOM     24  H9  NON d   1     -51.914  15.142  -3.495  0.00  0.00     0.162 HD
BRANCH  23  25
ATOM     25  C15 NON d   1     -53.599  15.887  -2.426  0.00  0.00     0.124 C 
BRANCH  25  26
ATOM     26  C16 NON d   1     -54.081  17.281  -2.019  0.00  0.00     0.050 C 
BRANCH  26  27
ATOM     27  C17 NON d   1     -54.190  17.451  -0.499  0.00  0.00     0.274 C 
BRANCH  27  28
ATOM     28  N3  NON d   1     -54.318  18.876  -0.128  0.00  0.00     0.092 N 
ATOM     29  C18 NON d   1     -52.994  19.466   0.190  0.00  0.00     0.298 C 
ATOM     30  C19 NON d   1     -53.065  20.988   0.421  0.00  0.00     0.198 C 
ATOM     31  O3  NON d   1     -53.649  21.660  -0.703  0.00  0.00    -0.388 OA
ATOM     32  C20 NON d   1     -54.966  21.151  -0.939  0.00  0.00     0.198 C 
ATOM     33  C21 NON d   1     -54.926  19.645  -1.237  0.00  0.00     0.298 C 
ENDBRANCH  27  28
ENDBRANCH  26  27
ENDBRANCH  25  26
ENDBRANCH  23  25
ENDBRANCH   4  21
TORSDOF 8
ENDMDL
MODEL 2
REMARK VINA RESULT:   -11.216      1.016      1.442
REMARK INTER + INTRA:         -14.423
REMARK INTER:                 -13.602
REMARK INTRA:                  -0.821
REMARK CONF_INDEPENDENT:        2.386
REMARK UNBOUND:                -0.821
REMARK  8 active torsions:
REMARK  status: ('A' for Active; 'I' for Inactive)
REMARK    1  A    between atoms: C1_2  and  C2_3 
REMARK       I    between atoms: C1_2  and  N1_13 
REMARK    2  A    between atoms: C3_4  and  C4_5 
REMARK    3  A    between atoms: N1_13  and  C10_14 
REMARK    4  A    between atoms: C13_17  and  C14_18 
REMARK       I    between atoms: C14_18  and  N2_20 
REMARK    5  A    between atoms: N2_20  and  C15_21 
REMARK    6  A    between atoms: C15_21  and  C16_22 
REMARK    7  A    between atoms: C16_22  and  C17_23 
REMARK    8  A    between atoms: C17_23  and  N3_24 
ROOT
ATOM      1  C10 NON d   1     -47.062  16.497  -3.268  0.00  0.00     0.035 A 
ATOM      2  C11 NON d   1     -47.480  17.052  -2.055  0.00  0.00     0.030 A 
ATOM      3  C12 NON d   1     -48.839  17.065  -1.703  0.00  0.00     0.019 A 
ATOM      4  C13 NON d   1     -49.812  16.521  -2.557  0.00  0.00     0.032 A 
ATOM      5  C22 NON d   1     -49.392  15.963  -3.767  0.00  0.00     0.019 A 
ATOM      6  C23 NON d   1     -48.031  15.950  -4.113  0.00  0.00     0.030 A 
ENDROOT
BRANCH   1   7
ATOM      7  N1  NON d   1     -45.678  16.535  -3.574  0.00  0.00    -0.324 N 
ATOM      8  C1  NON d   1     -45.109  16.878  -4.786  0.00  0.00     0.245 C 
ATOM      9  O1  NON d   1     -45.708  17.185  -5.810  0.00  0.00    -0.268 OA
ATOM     10  H6  NON d   1     -45.054  16.293  -2.814  0.00  0.00     0.169 HD
BRANCH   8  11
ATOM     11  C2  NON d   1     -43.610  16.857  -4.760  0.00  0.00     0.075 C 
ATOM     12  C3  NON d   1     -42.958  18.029  -4.851  0.00  0.00     0.018 C 
BRANCH  12  13
ATOM     13  C4  NON d   1     -41.511  18.362  -4.843  0.00  0.00    -0.014 A 
ATOM     14  C5  NON d   1     -40.984  18.690  -6.114  0.00  0.00     0.015 A 
ATOM     15  C6  NON d   1     -39.638  19.022  -6.300  0.00  0.00     0.024 A 
ATOM     16  C7  NON d   1     -38.782  19.035  -5.210  0.00  0.00     0.035 A 
ATOM     17 Cl1  NON d   1     -37.125  19.440  -5.428  0.00  0.00    -0.084 Cl
ATOM     18  C8  NON d   1     -39.262  18.719  -3.944  0.00  0.00     0.048 A 
ATOM     19  C9  NON d   1     -40.614  18.384  -3.756  0.00  0.00     0.045 A 
ATOM     20 Cl2  NON d   1     -41.059  18.003  -2.129  0.00  0.00    -0.083 Cl
ENDBRANCH  12  13
ENDBRANCH   8  11
ENDBRANCH   1   7
BRANCH   4  21
ATOM     21  C14 NON d   1     -51.249  16.601  -2.138  0.00  0.00     0.251 C 
ATOM     22  O2  NON d   1     -51.571  17.351  -1.221  0.00  0.00    -0.268 OA
ATOM     23  N2  NON d   1     -52.173  15.814  -2.806  0.00  0.00    -0.357 N 
ATOM     24  H9  NON d   1     -51.875  15.124  -3.479  0.00  0.00     0.162 HD
BRANCH  23  25
ATOM     25  C15 NON d   1     -53.578  15.864  -2.437  0.00  0.00     0.124 C 
BRANCH  25  26
ATOM     26  C16 NON d   1     -54.073  17.254  -2.030  0.00  0.00     0.050 C 
BRANCH  26  27
ATOM     27  C17 NON d   1     -54.190  17.423  -0.511  0.00  0.00     0.274 C 
BRANCH  27  28
ATOM     28  N3  NON d   1     -54.318  18.847  -0.138  0.00  0.00     0.092 N 
ATOM     29  C18 NON d   1     -52.995  19.434   0.191  0.00  0.00     0.298 C 
ATOM     30  C19 NON d   1     -53.064  20.955   0.423  0.00  0.00     0.198 C 
ATOM     31  O3  NON d   1     -53.638  21.631  -0.703  0.00  0.00    -0.388 OA
ATOM     32  C20 NON d   1     -54.955  21.125  -0.951  0.00  0.00     0.198 C 
ATOM     33  C21 NON d   1     -54.916  19.620  -1.251  0.00  0.00     0.298 C 
ENDBRANCH  27  28
ENDBRANCH  26  27
ENDBRANCH  25  26
ENDBRANCH  23  25
ENDBRANCH   4  21
TORSDOF 8
ENDMDL
MODEL 3
REMARK VINA RESULT:   -10.992      3.443      5.313
REMARK INTER + INTRA:         -14.146
REMARK INTER:                 -13.378
REMARK INTRA:                  -0.768
REMARK CONF_INDEPENDENT:        2.386
REMARK UNBOUND:                -0.768
REMARK  8 active torsions:
REMARK  status: ('A' for Active; 'I' for Inactive)
REMARK    1  A    between atoms: C1_2  and  C2_3 
REMARK       I    between atoms: C1_2  and  N1_13 
REMARK    2  A    between atoms: C3_4  and  C4_5 
REMARK    3  A    between atoms: N1_13  and  C10_14 
REMARK    4  A    between atoms: C13_17  and  C14_18 
REMARK       I    between atoms: C14_18  and  N2_20 
REMARK    5  A    between atoms: N2_20  and  C15_21 
REMARK    6  A    between atoms: C15_21  and  C16_22 
REMARK    7  A    between atoms: C16_22  and  C17_23 
REMARK    8  A    between atoms: C17_23  and  N3_24 
ROOT
ATOM      1  C10 NON d   1     -42.822  18.643  -4.695  0.00  0.00     0.035 A 
ATOM      2  C11 NON d   1     -43.948  19.044  -5.421  0.00  0.00     0.030 A 
ATOM      3  C12 NON d   1     -45.160  18.345  -5.306  0.00  0.00     0.019 A 
ATOM      4  C13 NON d   1     -45.276  17.230  -4.461  0.00  0.00     0.032 A 
ATOM      5  C22 NON d   1     -44.151  16.833  -3.734  0.00  0.00     0.019 A 
ATOM      6  C23 NON d   1     -42.941  17.537  -3.850  0.00  0.00     0.030 A 
ENDROOT
BRANCH   1   7
ATOM      7  N1  NON d   1     -41.622  19.377  -4.873  0.00  0.00    -0.324 N 
ATOM      8  C1  NON d   1     -40.620  19.113  -5.788  0.00  0.00     0.245 C 
ATOM      9  O1  NON d   1     -40.589  18.183  -6.585  0.00  0.00    -0.268 OA
ATOM     10  H6  NON d   1     -41.505  20.180  -4.268  0.00  0.00     0.169 HD
BRANCH   8  11
ATOM     11  C2  NON d   1     -39.502  20.111  -5.742  0.00  0.00     0.075 C 
ATOM     12  C3  NON d   1     -39.799  21.405  -5.955  0.00  0.00     0.018 C 
BRANCH  12  13
ATOM     13  C4  NON d   1     -38.957  22.627  -5.966  0.00  0.00    -0.014 A 
ATOM     14  C5  NON d   1     -38.287  22.882  -4.746  0.00  0.00     0.015 A 
ATOM     15  C6  NON d   1     -37.457  23.994  -4.570  0.00  0.00     0.024 A 
ATOM     16  C7  NON d   1     -37.274  24.882  -5.618  0.00  0.00     0.035 A 
ATOM     17 Cl1  NON d   1     -36.257  26.253  -5.411  0.00  0.00    -0.084 Cl
ATOM     18  C8  NON d   1     -37.915  24.667  -6.832  0.00  0.00     0.048 A 
ATOM     19  C9  NON d   1     -38.751  23.551  -7.011  0.00  0.00     0.045 A 
ATOM     20 Cl2  NON d   1     -39.488  23.424  -8.570  0.00  0.00    -0.083 Cl
ENDBRANCH  12  13
ENDBRANCH   8  11
ENDBRANCH   1   7
BRANCH   4  21
ATOM     21  C14 NON d   1     -46.587  16.507  -4.413  0.00  0.00     0.251 C 
ATOM     22  O2  NON d   1     -47.031  15.992  -5.435  0.00  0.00    -0.268 OA
ATOM     23  N2  NON d   1     -47.262  16.448  -3.205  0.00  0.00    -0.357 N 
ATOM     24  H9  NON d   1     -46.938  16.971  -2.406  0.00  0.00     0.162 HD
BRANCH  23  25
ATOM     25  C15 NON d   1     -48.535  15.753  -3.112  0.00  0.00     0.124 C 
BRANCH  25  26
ATOM     26  C16 NON d   1     -49.629  16.536  -2.383  0.00  0.00     0.050 C 
BRANCH  26  27
ATOM     27  C17 NON d   1     -51.042  16.107  -2.796  0.00  0.00     0.274 C 
BRANCH  27  28
ATOM     28  N3  NON d   1     -52.044  17.123  -2.410  0.00  0.00     0.092 N 
ATOM     29  C18 NON d   1     -53.416  16.558  -2.435  0.00  0.00     0.298 C 
ATOM     30  C19 NON d   1     -54.469  17.536  -1.881  0.00  0.00     0.198 C 
ATOM     31  O3  NON d   1     -54.137  17.965  -0.554  0.00  0.00    -0.388 OA
ATOM     32  C20 NON d   1     -52.852  18.599  -0.559  0.00  0.00     0.198 C 
ATOM     33  C21 NON d   1     -51.765  17.630  -1.047  0.00  0.00     0.298 C 
ENDBRANCH  27  28
ENDBRANCH  26  27
ENDBRANCH  25  26
ENDBRANCH  23  25
ENDBRANCH   4  21
TORSDOF 8
ENDMDL
MODEL 4
REMARK VINA RESULT:   -10.859      2.881      4.927
REMARK INTER + INTRA:         -13.983
REMARK INTER:                 -13.245
REMARK INTRA:                  -0.738
REMARK CONF_INDEPENDENT:        2.386
REMARK UNBOUND:                -0.738
REMARK  8 active torsions:
REMARK  status: ('A' for Active; 'I' for Inactive)
REMARK    1  A    between atoms: C1_2  and  C2_3 
REMARK       I    between atoms: C1_2  and  N1_13 
REMARK    2  A    between atoms: C3_4  and  C4_5 
REMARK    3  A    between atoms: N1_13  and  C10_14 
REMARK    4  A    between atoms: C13_17  and  C14_18 
REMARK       I    between atoms: C14_18  and  N2_20 
REMARK    5  A    between atoms: N2_20  and  C15_21 
REMARK    6  A    between atoms: C15_21  and  C16_22 
REMARK    7  A    between atoms: C16_22  and  C17_23 
REMARK    8  A    between atoms: C17_23  and  N3_24 
ROOT
ATOM      1  C10 NON d   1     -43.146  18.344  -4.104  0.00  0.00     0.035 A 
ATOM      2  C11 NON d   1     -43.500  17.193  -3.393  0.00  0.00     0.030 A 
ATOM      3  C12 NON d   1     -44.687  16.505  -3.691  0.00  0.00     0.019 A 
ATOM      4  C13 NON d   1     -45.547  16.950  -4.708  0.00  0.00     0.032 A 
ATOM      5  C22 NON d   1     -45.189  18.098  -5.419  0.00  0.00     0.019 A 
ATOM      6  C23 NON d   1     -43.998  18.782  -5.120  0.00  0.00     0.030 A 
ENDROOT
BRANCH   1   7
ATOM      7  N1  NON d   1     -41.946  19.005  -3.740  0.00  0.00    -0.324 N 
ATOM      8  C1  NON d   1     -40.865  19.267  -4.562  0.00  0.00     0.245 C 
ATOM      9  O1  NON d   1     -40.752  18.948  -5.740  0.00  0.00    -0.268 OA
ATOM     10  H6  NON d   1     -41.893  19.322  -2.780  0.00  0.00     0.169 HD
BRANCH   8  11
ATOM     11  C2  NON d   1     -39.769  20.023  -3.872  0.00  0.00     0.075 C 
ATOM     12  C3  NON d   1     -39.857  20.191  -2.541  0.00  0.00     0.018 C 
BRANCH  12  13
ATOM     13  C4  NON d   1     -38.961  20.861  -1.565  0.00  0.00    -0.014 A 
ATOM     14  C5  NON d   1     -39.635  21.669  -0.619  0.00  0.00     0.015 A 
ATOM     15  C6  NON d   1     -38.952  22.384   0.371  0.00  0.00     0.024 A 
ATOM     16  C7  NON d   1     -37.570  22.305   0.439  0.00  0.00     0.035 A 
ATOM     17 Cl1  NON d   1     -36.722  23.181   1.651  0.00  0.00    -0.084 Cl
ATOM     18  C8  NON d   1     -36.872  21.522  -0.472  0.00  0.00     0.048 A 
ATOM     19  C9  NON d   1     -37.556  20.805  -1.469  0.00  0.00     0.045 A 
ATOM     20 Cl2  NON d   1     -36.553  19.886  -2.536  0.00  0.00    -0.083 Cl
ENDBRANCH  12  13
ENDBRANCH   8  11
ENDBRANCH   1   7
BRANCH   4  21
ATOM     21  C14 NON d   1     -46.815  16.191  -4.949  0.00  0.00     0.251 C 
ATOM     22  O2  NON d   1     -46.869  15.379  -5.869  0.00  0.00    -0.268 OA
ATOM     23  N2  NON d   1     -47.897  16.437  -4.119  0.00  0.00    -0.357 N 
ATOM     24  H9  NON d   1     -47.870  17.185  -3.443  0.00  0.00     0.162 HD
BRANCH  23  25
ATOM     25  C15 NON d   1     -49.146  15.719  -4.314  0.00  0.00     0.124 C 
BRANCH  25  26
ATOM     26  C16 NON d   1     -49.856  15.327  -3.016  0.00  0.00     0.050 C 
BRANCH  26  27
ATOM     27  C17 NON d   1     -49.990  16.497  -2.035  0.00  0.00     0.274 C 
BRANCH  27  28
ATOM     28  N3  NON d   1     -51.325  17.124  -2.127  0.00  0.00     0.092 N 
ATOM     29  C18 NON d   1     -52.361  16.125  -2.489  0.00  0.00     0.298 C 
ATOM     30  C19 NON d   1     -53.787  16.704  -2.434  0.00  0.00     0.198 C 
ATOM     31  O3  NON d   1     -54.073  17.267  -1.147  0.00  0.00    -0.388 OA
ATOM     32  C20 NON d   1     -53.126  18.300  -0.851  0.00  0.00     0.198 C 
ATOM     33  C21 NON d   1     -51.695  17.743  -0.834  0.00  0.00     0.298 C 
ENDBRANCH  27  28
ENDBRANCH  26  27
ENDBRANCH  25  26
ENDBRANCH  23  25
ENDBRANCH   4  21
TORSDOF 8
ENDMDL
MODEL 5
REMARK VINA RESULT:   -10.772      3.212      4.908
REMARK INTER + INTRA:         -13.858
REMARK INTER:                 -13.158
REMARK INTRA:                  -0.700
REMARK CONF_INDEPENDENT:        2.386
REMARK UNBOUND:                -0.700
REMARK  8 active torsions:
REMARK  status: ('A' for Active; 'I' for Inactive)
REMARK    1  A    between atoms: C1_2  and  C2_3 
REMARK       I    between atoms: C1_2  and  N1_13 
REMARK    2  A    between atoms: C3_4  and  C4_5 
REMARK    3  A    between atoms: N1_13  and  C10_14 
REMARK    4  A    between atoms: C13_17  and  C14_18 
REMARK       I    between atoms: C14_18  and  N2_20 
REMARK    5  A    between atoms: N2_20  and  C15_21 
REMARK    6  A    between atoms: C15_21  and  C16_22 
REMARK    7  A    between atoms: C16_22  and  C17_23 
REMARK    8  A    between atoms: C17_23  and  N3_24 
ROOT
ATOM      1  C10 NON d   1     -43.187  18.362  -4.068  0.00  0.00     0.035 A 
ATOM      2  C11 NON d   1     -43.529  17.225  -3.330  0.00  0.00     0.030 A 
ATOM      3  C12 NON d   1     -44.697  16.504  -3.625  0.00  0.00     0.019 A 
ATOM      4  C13 NON d   1     -45.550  16.903  -4.666  0.00  0.00     0.032 A 
ATOM      5  C22 NON d   1     -45.205  18.037  -5.405  0.00  0.00     0.019 A 
ATOM      6  C23 NON d   1     -44.033  18.753  -5.108  0.00  0.00     0.030 A 
ENDROOT
BRANCH   1   7
ATOM      7  N1  NON d   1     -42.006  19.057  -3.707  0.00  0.00    -0.324 N 
ATOM      8  C1  NON d   1     -41.187  19.790  -4.548  0.00  0.00     0.245 C 
ATOM      9  O1  NON d   1     -41.333  19.940  -5.755  0.00  0.00    -0.268 OA
ATOM     10  H6  NON d   1     -41.753  19.014  -2.728  0.00  0.00     0.169 HD
BRANCH   8  11
ATOM     11  C2  NON d   1     -40.038  20.436  -3.835  0.00  0.00     0.075 C 
ATOM     12  C3  NON d   1     -40.256  20.941  -2.608  0.00  0.00     0.018 C 
BRANCH  12  13
ATOM     13  C4  NON d   1     -39.357  21.620  -1.641  0.00  0.00    -0.014 A 
ATOM     14  C5  NON d   1     -38.069  21.044  -1.544  0.00  0.00     0.015 A 
ATOM     15  C6  NON d   1     -37.092  21.546  -0.677  0.00  0.00     0.024 A 
ATOM     16  C7  NON d   1     -37.383  22.644   0.117  0.00  0.00     0.035 A 
ATOM     17 Cl1  NON d   1     -36.190  23.266   1.187  0.00  0.00    -0.084 Cl
ATOM     18  C8  NON d   1     -38.638  23.238   0.051  0.00  0.00     0.048 A 
ATOM     19  C9  NON d   1     -39.622  22.734  -0.819  0.00  0.00     0.045 A 
ATOM     20 Cl2  NON d   1     -41.135  23.569  -0.782  0.00  0.00    -0.083 Cl
ENDBRANCH  12  13
ENDBRANCH   8  11
ENDBRANCH   1   7
BRANCH   4  21
ATOM     21  C14 NON d   1     -46.800  16.112  -4.903  0.00  0.00     0.251 C 
ATOM     22  O2  NON d   1     -46.874  15.378  -5.885  0.00  0.00    -0.268 OA
ATOM     23  N2  NON d   1     -47.841  16.239  -3.998  0.00  0.00    -0.357 N 
ATOM     24  H9  NON d   1     -47.805  16.927  -3.262  0.00  0.00     0.162 HD
BRANCH  23  25
ATOM     25  C15 NON d   1     -49.070  15.486  -4.186  0.00  0.00     0.124 C 
BRANCH  25  26
ATOM     26  C16 NON d   1     -49.998  15.480  -2.970  0.00  0.00     0.050 C 
BRANCH  26  27
ATOM     27  C17 NON d   1     -50.512  16.879  -2.608  0.00  0.00     0.274 C 
BRANCH  27  28
ATOM     28  N3  NON d   1     -51.789  16.806  -1.868  0.00  0.00     0.092 N 
ATOM     29  C18 NON d   1     -51.941  17.960  -0.948  0.00  0.00     0.298 C 
ATOM     30  C19 NON d   1     -53.329  18.007  -0.282  0.00  0.00     0.198 C 
ATOM     31  O3  NON d   1     -54.378  18.013  -1.259  0.00  0.00    -0.388 OA
ATOM     32  C20 NON d   1     -54.280  16.842  -2.079  0.00  0.00     0.198 C 
ATOM     33  C21 NON d   1     -52.930  16.796  -2.810  0.00  0.00     0.298 C 
ENDBRANCH  27  28
ENDBRANCH  26  27
ENDBRANCH  25  26
ENDBRANCH  23  25
ENDBRANCH   4  21
TORSDOF 8
ENDMDL
MODEL 6
REMARK VINA RESULT:   -10.568      3.448      5.559
REMARK INTER + INTRA:         -13.708
REMARK INTER:                 -12.954
REMARK INTRA:                  -0.754
REMARK CONF_INDEPENDENT:        2.386
REMARK UNBOUND:                -0.754
REMARK  8 active torsions:
REMARK  status: ('A' for Active; 'I' for Inactive)
REMARK    1  A    between atoms: C1_2  and  C2_3 
REMARK       I    between atoms: C1_2  and  N1_13 
REMARK    2  A    between atoms: C3_4  and  C4_5 
REMARK    3  A    between atoms: N1_13  and  C10_14 
REMARK    4  A    between atoms: C13_17  and  C14_18 
REMARK       I    between atoms: C14_18  and  N2_20 
REMARK    5  A    between atoms: N2_20  and  C15_21 
REMARK    6  A    between atoms: C15_21  and  C16_22 
REMARK    7  A    between atoms: C16_22  and  C17_23 
REMARK    8  A    between atoms: C17_23  and  N3_24 
ROOT
ATOM      1  C10 NON d   1     -42.691  18.472  -5.149  0.00  0.00     0.035 A 
ATOM      2  C11 NON d   1     -43.908  19.114  -5.400  0.00  0.00     0.030 A 
ATOM      3  C12 NON d   1     -45.127  18.456  -5.165  0.00  0.00     0.019 A 
ATOM      4  C13 NON d   1     -45.156  17.141  -4.673  0.00  0.00     0.032 A 
ATOM      5  C22 NON d   1     -43.939  16.504  -4.419  0.00  0.00     0.019 A 
ATOM      6  C23 NON d   1     -42.723  17.167  -4.652  0.00  0.00     0.030 A 
ENDROOT
BRANCH   1   7
ATOM      7  N1  NON d   1     -41.497  19.183  -5.427  0.00  0.00    -0.324 N 
ATOM      8  C1  NON d   1     -40.377  19.266  -4.620  0.00  0.00     0.245 C 
ATOM      9  O1  NON d   1     -40.239  18.757  -3.513  0.00  0.00    -0.268 OA
ATOM     10  H6  NON d   1     -41.471  19.667  -6.316  0.00  0.00     0.169 HD
BRANCH   8  11
ATOM     11  C2  NON d   1     -39.268  20.066  -5.231  0.00  0.00     0.075 C 
ATOM     12  C3  NON d   1     -39.463  20.590  -6.454  0.00  0.00     0.018 C 
BRANCH  12  13
ATOM     13  C4  NON d   1     -38.600  21.426  -7.325  0.00  0.00    -0.014 A 
ATOM     14  C5  NON d   1     -39.151  22.689  -7.648  0.00  0.00     0.015 A 
ATOM     15  C6  NON d   1     -38.482  23.606  -8.465  0.00  0.00     0.024 A 
ATOM     16  C7  NON d   1     -37.237  23.281  -8.980  0.00  0.00     0.035 A 
ATOM     17 Cl1  NON d   1     -36.409  24.402  -9.987  0.00  0.00    -0.084 Cl
ATOM     18  C8  NON d   1     -36.663  22.050  -8.686  0.00  0.00     0.048 A 
ATOM     19  C9  NON d   1     -37.333  21.126  -7.867  0.00  0.00     0.045 A 
ATOM     20 Cl2  NON d   1     -36.499  19.635  -7.601  0.00  0.00    -0.083 Cl
ENDBRANCH  12  13
ENDBRANCH   8  11
ENDBRANCH   1   7
BRANCH   4  21
ATOM     21  C14 NON d   1     -46.488  16.485  -4.480  0.00  0.00     0.251 C 
ATOM     22  O2  NON d   1     -47.060  15.982  -5.444  0.00  0.00    -0.268 OA
ATOM     23  N2  NON d   1     -47.037  16.469  -3.208  0.00  0.00    -0.357 N 
ATOM     24  H9  NON d   1     -46.608  16.983  -2.454  0.00  0.00     0.162 HD
BRANCH  23  25
ATOM     25  C15 NON d   1     -48.326  15.838  -2.976  0.00  0.00     0.124 C 
BRANCH  25  26
ATOM     26  C16 NON d   1     -49.497  16.817  -2.869  0.00  0.00     0.050 C 
BRANCH  26  27
ATOM     27  C17 NON d   1     -50.840  16.115  -2.637  0.00  0.00     0.274 C 
BRANCH  27  28
ATOM     28  N3  NON d   1     -51.908  17.090  -2.331  0.00  0.00     0.092 N 
ATOM     29  C18 NON d   1     -53.249  16.462  -2.428  0.00  0.00     0.298 C 
ATOM     30  C19 NON d   1     -54.376  17.399  -1.957  0.00  0.00     0.198 C 
ATOM     31  O3  NON d   1     -54.145  17.865  -0.621  0.00  0.00    -0.388 OA
ATOM     32  C20 NON d   1     -52.892  18.557  -0.560  0.00  0.00     0.198 C 
ATOM     33  C21 NON d   1     -51.735  17.631  -0.964  0.00  0.00     0.298 C 
ENDBRANCH  27  28
ENDBRANCH  26  27
ENDBRANCH  25  26
ENDBRANCH  23  25
ENDBRANCH   4  21
TORSDOF 8
ENDMDL
MODEL 7
REMARK VINA RESULT:   -10.558      3.261      5.060
REMARK INTER + INTRA:         -13.650
REMARK INTER:                 -12.944
REMARK INTRA:                  -0.707
REMARK CONF_INDEPENDENT:        2.386
REMARK UNBOUND:                -0.707
REMARK  8 active torsions:
REMARK  status: ('A' for Active; 'I' for Inactive)
REMARK    1  A    between atoms: C1_2  and  C2_3 
REMARK       I    between atoms: C1_2  and  N1_13 
REMARK    2  A    between atoms: C3_4  and  C4_5 
REMARK    3  A    between atoms: N1_13  and  C10_14 
REMARK    4  A    between atoms: C13_17  and  C14_18 
REMARK       I    between atoms: C14_18  and  N2_20 
REMARK    5  A    between atoms: N2_20  and  C15_21 
REMARK    6  A    between atoms: C15_21  and  C16_22 
REMARK    7  A    between atoms: C16_22  and  C17_23 
REMARK    8  A    between atoms: C17_23  and  N3_24 
ROOT
ATOM      1  C10 NON d   1     -43.325  18.341  -4.097  0.00  0.00     0.035 A 
ATOM      2  C11 NON d   1     -43.690  17.251  -3.301  0.00  0.00     0.030 A 
ATOM      3  C12 NON d   1     -44.865  16.530  -3.567  0.00  0.00     0.019 A 
ATOM      4  C13 NON d   1     -45.702  16.881  -4.638  0.00  0.00     0.032 A 
ATOM      5  C22 NON d   1     -45.334  17.968  -5.436  0.00  0.00     0.019 A 
ATOM      6  C23 NON d   1     -44.156  18.684  -5.167  0.00  0.00     0.030 A 
ENDROOT
BRANCH   1   7
ATOM      7  N1  NON d   1     -42.139  19.040  -3.762  0.00  0.00    -0.324 N 
ATOM      8  C1  NON d   1     -40.975  18.496  -3.251  0.00  0.00     0.245 C 
ATOM      9  O1  NON d   1     -40.782  17.317  -2.978  0.00  0.00    -0.268 OA
ATOM     10  H6  NON d   1     -42.156  20.039  -3.929  0.00  0.00     0.169 HD
BRANCH   8  11
ATOM     11  C2  NON d   1     -39.890  19.510  -3.047  0.00  0.00     0.075 C 
ATOM     12  C3  NON d   1     -40.100  20.490  -2.150  0.00  0.00     0.018 C 
BRANCH  12  13
ATOM     13  C4  NON d   1     -39.251  21.622  -1.701  0.00  0.00    -0.014 A 
ATOM     14  C5  NON d   1     -38.309  22.057  -2.662  0.00  0.00     0.015 A 
ATOM     15  C6  NON d   1     -37.419  23.107  -2.411  0.00  0.00     0.024 A 
ATOM     16  C7  NON d   1     -37.452  23.751  -1.184  0.00  0.00     0.035 A 
ATOM     17 Cl1  NON d   1     -36.360  25.040  -0.865  0.00  0.00    -0.084 Cl
ATOM     18  C8  NON d   1     -38.363  23.352  -0.213  0.00  0.00     0.048 A 
ATOM     19  C9  NON d   1     -39.257  22.296  -0.463  0.00  0.00     0.045 A 
ATOM     20 Cl2  NON d   1     -40.321  21.906   0.843  0.00  0.00    -0.083 Cl
ENDBRANCH  12  13
ENDBRANCH   8  11
ENDBRANCH   1   7
BRANCH   4  21
ATOM     21  C14 NON d   1     -46.960  16.094  -4.845  0.00  0.00     0.251 C 
ATOM     22  O2  NON d   1     -47.076  15.390  -5.844  0.00  0.00    -0.268 OA
ATOM     23  N2  NON d   1     -47.961  16.191  -3.891  0.00  0.00    -0.357 N 
ATOM     24  H9  NON d   1     -47.893  16.857  -3.138  0.00  0.00     0.162 HD
BRANCH  23  25
ATOM     25  C15 NON d   1     -49.195  15.440  -4.049  0.00  0.00     0.124 C 
BRANCH  25  26
ATOM     26  C16 NON d   1     -50.039  15.342  -2.777  0.00  0.00     0.050 C 
BRANCH  26  27
ATOM     27  C17 NON d   1     -50.109  16.665  -2.006  0.00  0.00     0.274 C 
BRANCH  27  28
ATOM     28  N3  NON d   1     -51.462  17.255  -2.076  0.00  0.00     0.092 N 
ATOM     29  C18 NON d   1     -52.474  16.232  -2.437  0.00  0.00     0.298 C 
ATOM     30  C19 NON d   1     -53.914  16.771  -2.359  0.00  0.00     0.198 C 
ATOM     31  O3  NON d   1     -54.201  17.313  -1.063  0.00  0.00    -0.388 OA
ATOM     32  C20 NON d   1     -53.279  18.368  -0.766  0.00  0.00     0.198 C 
ATOM     33  C21 NON d   1     -51.833  17.850  -0.772  0.00  0.00     0.298 C 
ENDBRANCH  27  28
ENDBRANCH  26  27
ENDBRANCH  25  26
ENDBRANCH  23  25
ENDBRANCH   4  21
TORSDOF 8
ENDMDL
MODEL 8
REMARK VINA RESULT:   -10.142      7.055     11.169
REMARK INTER + INTRA:         -13.280
REMARK INTER:                 -12.528
REMARK INTRA:                  -0.752
REMARK CONF_INDEPENDENT:        2.386
REMARK UNBOUND:                -0.752
REMARK  8 active torsions:
REMARK  status: ('A' for Active; 'I' for Inactive)
REMARK    1  A    between atoms: C1_2  and  C2_3 
REMARK       I    between atoms: C1_2  and  N1_13 
REMARK    2  A    between atoms: C3_4  and  C4_5 
REMARK    3  A    between atoms: N1_13  and  C10_14 
REMARK    4  A    between atoms: C13_17  and  C14_18 
REMARK       I    between atoms: C14_18  and  N2_20 
REMARK    5  A    between atoms: N2_20  and  C15_21 
REMARK    6  A    between atoms: C15_21  and  C16_22 
REMARK    7  A    between atoms: C16_22  and  C17_23 
REMARK    8  A    between atoms: C17_23  and  N3_24 
ROOT
ATOM      1  C10 NON d   1     -39.601  20.747  -8.725  0.00  0.00     0.035 A 
ATOM      2  C11 NON d   1     -40.423  21.235  -7.705  0.00  0.00     0.030 A 
ATOM      3  C12 NON d   1     -40.567  20.529  -6.500  0.00  0.00     0.019 A 
ATOM      4  C13 NON d   1     -39.888  19.319  -6.286  0.00  0.00     0.032 A 
ATOM      5  C22 NON d   1     -39.064  18.835  -7.304  0.00  0.00     0.019 A 
ATOM      6  C23 NON d   1     -38.921  19.546  -8.507  0.00  0.00     0.030 A 
ENDROOT
BRANCH   1   7
ATOM      7  N1  NON d   1     -39.516  21.496  -9.925  0.00  0.00    -0.324 N 
ATOM      8  C1  NON d   1     -38.483  21.470 -10.845  0.00  0.00     0.245 C 
ATOM      9  O1  NON d   1     -37.453  20.811 -10.763  0.00  0.00    -0.268 OA
ATOM     10  H6  NON d   1     -40.304  22.100 -10.122  0.00  0.00     0.169 HD
BRANCH   8  11
ATOM     11  C2  NON d   1     -38.727  22.354 -12.030  0.00  0.00     0.075 C 
ATOM     12  C3  NON d   1     -39.670  23.307 -11.927  0.00  0.00     0.018 C 
BRANCH  12  13
ATOM     13  C4  NON d   1     -40.146  24.340 -12.881  0.00  0.00    -0.014 A 
ATOM     14  C5  NON d   1     -40.484  23.836 -14.160  0.00  0.00     0.015 A 
ATOM     15  C6  NON d   1     -40.942  24.665 -15.189  0.00  0.00     0.024 A 
ATOM     16  C7  NON d   1     -41.076  26.026 -14.962  0.00  0.00     0.035 A 
ATOM     17 Cl1  NON d   1     -41.636  27.052 -16.222  0.00  0.00    -0.084 Cl
ATOM     18  C8  NON d   1     -40.754  26.558 -13.719  0.00  0.00     0.048 A 
ATOM     19  C9  NON d   1     -40.292  25.728 -12.684  0.00  0.00     0.045 A 
ATOM     20 Cl2  NON d   1     -39.921  26.536 -11.201  0.00  0.00    -0.083 Cl
ENDBRANCH  12  13
ENDBRANCH   8  11
ENDBRANCH   1   7
BRANCH   4  21
ATOM     21  C14 NON d   1     -40.115  18.597  -4.993  0.00  0.00     0.251 C 
ATOM     22  O2  NON d   1     -39.149  18.223  -4.332  0.00  0.00    -0.268 OA
ATOM     23  N2  NON d   1     -41.419  18.371  -4.584  0.00  0.00    -0.357 N 
ATOM     24  H9  NON d   1     -42.195  18.586  -5.192  0.00  0.00     0.162 HD
BRANCH  23  25
ATOM     25  C15 NON d   1     -41.684  17.680  -3.334  0.00  0.00     0.124 C 
BRANCH  25  26
ATOM     26  C16 NON d   1     -43.139  17.761  -2.865  0.00  0.00     0.050 C 
BRANCH  26  27
ATOM     27  C17 NON d   1     -43.997  16.602  -3.384  0.00  0.00     0.274 C 
BRANCH  27  28
ATOM     28  N3  NON d   1     -45.263  17.092  -3.968  0.00  0.00     0.092 N 
ATOM     29  C18 NON d   1     -45.139  17.279  -5.434  0.00  0.00     0.298 C 
ATOM     30  C19 NON d   1     -46.482  17.630  -6.102  0.00  0.00     0.198 C 
ATOM     31  O3  NON d   1     -47.483  16.646  -5.812  0.00  0.00    -0.388 OA
ATOM     32  C20 NON d   1     -47.666  16.545  -4.395  0.00  0.00     0.198 C 
ATOM     33  C21 NON d   1     -46.358  16.133  -3.702  0.00  0.00     0.298 C 
ENDBRANCH  27  28
ENDBRANCH  26  27
ENDBRANCH  25  26
ENDBRANCH  23  25
ENDBRANCH   4  21
TORSDOF 8
ENDMDL
MODEL 9
REMARK VINA RESULT:    -8.897      2.345      3.220
REMARK INTER + INTRA:         -12.035
REMARK INTER:                 -11.283
REMARK INTRA:                  -0.752
REMARK CONF_INDEPENDENT:        2.386
REMARK UNBOUND:                -0.752
REMARK  8 active torsions:
REMARK  status: ('A' for Active; 'I' for Inactive)
REMARK    1  A    between atoms: C1_2  and  C2_3 
REMARK       I    between atoms: C1_2  and  N1_13 
REMARK    2  A    between atoms: C3_4  and  C4_5 
REMARK    3  A    between atoms: N1_13  and  C10_14 
REMARK    4  A    between atoms: C13_17  and  C14_18 
REMARK       I    between atoms: C14_18  and  N2_20 
REMARK    5  A    between atoms: N2_20  and  C15_21 
REMARK    6  A    between atoms: C15_21  and  C16_22 
REMARK    7  A    between atoms: C16_22  and  C17_23 
REMARK    8  A    between atoms: C17_23  and  N3_24 
ROOT
ATOM      1  C10 NON d   1     -45.607  17.075  -4.489  0.00  0.00     0.035 A 
ATOM      2  C11 NON d   1     -46.109  17.239  -3.195  0.00  0.00     0.030 A 
ATOM      3  C12 NON d   1     -47.357  16.702  -2.837  0.00  0.00     0.019 A 
ATOM      4  C13 NON d   1     -48.130  15.987  -3.765  0.00  0.00     0.032 A 
ATOM      5  C22 NON d   1     -47.625  15.822  -5.057  0.00  0.00     0.019 A 
ATOM      6  C23 NON d   1     -46.375  16.358  -5.410  0.00  0.00     0.030 A 
ENDROOT
BRANCH   1   7
ATOM      7  N1  NON d   1     -44.352  17.660  -4.793  0.00  0.00    -0.324 N 
ATOM      8  C1  NON d   1     -43.223  17.655  -3.994  0.00  0.00     0.245 C 
ATOM      9  O1  NON d   1     -43.126  17.165  -2.876  0.00  0.00    -0.268 OA
ATOM     10  H6  NON d   1     -44.287  18.115  -5.695  0.00  0.00     0.169 HD
BRANCH   8  11
ATOM     11  C2  NON d   1     -42.047  18.329  -4.633  0.00  0.00     0.075 C 
ATOM     12  C3  NON d   1     -42.283  19.317  -5.514  0.00  0.00     0.018 C 
BRANCH  12  13
ATOM     13  C4  NON d   1     -41.371  20.185  -6.300  0.00  0.00    -0.014 A 
ATOM     14  C5  NON d   1     -41.681  20.254  -7.679  0.00  0.00     0.015 A 
ATOM     15  C6  NON d   1     -40.924  21.016  -8.576  0.00  0.00     0.024 A 
ATOM     16  C7  NON d   1     -39.832  21.732  -8.110  0.00  0.00     0.035 A 
ATOM     17 Cl1  NON d   1     -38.895  22.669  -9.205  0.00  0.00    -0.084 Cl
ATOM     18  C8  NON d   1     -39.495  21.689  -6.763  0.00  0.00     0.048 A 
ATOM     19  C9  NON d   1     -40.253  20.923  -5.861  0.00  0.00     0.045 A 
ATOM     20 Cl2  NON d   1     -39.705  20.958  -4.221  0.00  0.00    -0.083 Cl
ENDBRANCH  12  13
ENDBRANCH   8  11
ENDBRANCH   1   7
BRANCH   4  21
ATOM     21  C14 NON d   1     -49.468  15.474  -3.330  0.00  0.00     0.251 C 
ATOM     22  O2  NON d   1     -49.696  14.268  -3.373  0.00  0.00    -0.268 OA
ATOM     23  N2  NON d   1     -50.413  16.387  -2.891  0.00  0.00    -0.357 N 
ATOM     24  H9  NON d   1     -50.247  17.379  -2.967  0.00  0.00     0.162 HD
BRANCH  23  25
ATOM     25  C15 NON d   1     -51.722  15.932  -2.454  0.00  0.00     0.124 C 
BRANCH  25  26
ATOM     26  C16 NON d   1     -52.869  16.880  -2.809  0.00  0.00     0.050 C 
BRANCH  26  27
ATOM     27  C17 NON d   1     -54.069  16.742  -1.864  0.00  0.00     0.274 C 
BRANCH  27  28
ATOM     28  N3  NON d   1     -54.069  17.806  -0.839  0.00  0.00     0.092 N 
ATOM     29  C18 NON d   1     -52.697  18.320  -0.602  0.00  0.00     0.298 C 
ATOM     30  C19 NON d   1     -52.677  19.541   0.337  0.00  0.00     0.198 C 
ATOM     31  O3  NON d   1     -53.520  20.592  -0.153  0.00  0.00    -0.388 OA
ATOM     32  C20 NON d   1     -54.863  20.111  -0.284  0.00  0.00     0.198 C 
ATOM     33  C21 NON d   1     -54.931  18.932  -1.265  0.00  0.00     0.298 C 
ENDBRANCH  27  28
ENDBRANCH  26  27
ENDBRANCH  25  26
ENDBRANCH  23  25
ENDBRANCH   4  21
TORSDOF 8
ENDMDL
