MODEL 1
REMARK VINA RESULT:   -11.168      0.000      0.000
REMARK INTER + INTRA:         -16.746
REMARK INTER:                 -14.151
REMARK INTRA:                  -2.594
REMARK CONF_INDEPENDENT:        2.983
REMARK UNBOUND:                -2.594
REMARK  10 active torsions:
REMARK  status: ('A' for Active; 'I' for Inactive)
REMARK    1  A    between atoms: C2_2  and  O1_3 
REMARK    2  A    between atoms: O1_3  and  C3_4 
REMARK    3  A    between atoms: C3_4  and  C4_6 
REMARK    4  A    between atoms: C5_8  and  N1_9 
REMARK       I    between atoms: N1_9  and  C6_10 
REMARK    5  A    between atoms: C6_10  and  C7_12 
REMARK    6  A    between atoms: C7_12  and  O4_13 
REMARK    7  A    between atoms: O4_13  and  C8_14 
REMARK    8  A    between atoms: C16_22  and  C17_23 
REMARK    9  A    between atoms: C17_23  and  O6_25 
REMARK   10  A    between atoms: O6_25  and  C18_26 
ROOT
ATOM      1  C4  NON d   1     -44.570  17.922  -5.120  0.00  0.00     0.089 A 
ATOM      2  S1  NON d   1     -44.111  19.453  -5.742  0.00  0.00    -0.065 SA
ATOM      3  C5  NON d   1     -42.726  19.534  -4.794  0.00  0.00     0.094 A 
ATOM      4  C16 NON d   1     -42.555  18.423  -3.977  0.00  0.00     0.080 A 
ATOM      5  C20 NON d   1     -43.638  17.456  -4.187  0.00  0.00    -0.020 A 
ATOM      6  C21 NON d   1     -43.745  16.130  -3.486  0.00  0.00     0.051 C 
ENDROOT
BRANCH   3   7
ATOM      7  N1  NON d   1     -41.885  20.633  -4.850  0.00  0.00    -0.319 N 
ATOM      8  C6  NON d   1     -40.660  20.779  -5.486  0.00  0.00     0.246 C 
ATOM      9  O3  NON d   1     -40.053  19.931  -6.130  0.00  0.00    -0.271 OA
ATOM     10  H6  NON d   1     -42.238  21.447  -4.358  0.00  0.00     0.169 HD
BRANCH   8  11
ATOM     11  C7  NON d   1     -40.154  22.218  -5.294  0.00  0.00     0.278 C 
BRANCH  11  12
ATOM     12  O4  NON d   1     -41.051  23.044  -4.600  0.00  0.00    -0.341 OA
BRANCH  12  13
ATOM     13  C8  NON d   1     -40.796  23.452  -3.318  0.00  0.00     0.081 A 
ATOM     14  C9  NON d   1     -40.990  24.847  -3.163  0.00  0.00    -0.028 A 
ATOM     15  C10 NON d   1     -41.475  25.697  -4.313  0.00  0.00     0.051 C 
ATOM     16  C11 NON d   1     -40.688  25.477  -1.949  0.00  0.00     0.009 A 
ATOM     17  C12 NON d   1     -40.224  24.734  -0.874  0.00  0.00     0.001 A 
ATOM     18  C13 NON d   1     -40.067  23.358  -1.007  0.00  0.00     0.009 A 
ATOM     19  C14 NON d   1     -40.349  22.688  -2.217  0.00  0.00    -0.028 A 
ATOM     20  C15 NON d   1     -40.100  21.206  -2.208  0.00  0.00     0.051 C 
ENDBRANCH  12  13
ENDBRANCH  11  12
ENDBRANCH   8  11
ENDBRANCH   3   7
BRANCH   4  21
ATOM     21  C17 NON d   1     -41.451  18.326  -2.999  0.00  0.00     0.296 C 
ATOM     22  O5  NON d   1     -41.602  18.365  -1.783  0.00  0.00    -0.259 OA
BRANCH  21  23
ATOM     23  O6  NON d   1     -40.219  18.281  -3.602  0.00  0.00    -0.318 OA
BRANCH  23  24
ATOM     24  C18 NON d   1     -39.080  18.019  -2.769  0.00  0.00     0.174 C 
ATOM     25  C19 NON d   1     -37.833  18.708  -3.277  0.00  0.00     0.034 C 
ENDBRANCH  23  24
ENDBRANCH  21  23
ENDBRANCH   4  21
BRANCH   1  26
ATOM     26  C3  NON d   1     -45.820  17.367  -5.638  0.00  0.00     0.300 C 
ATOM     27  O2  NON d   1     -46.715  18.005  -6.185  0.00  0.00    -0.259 OA
BRANCH  26  28
ATOM     28  O1  NON d   1     -45.892  16.016  -5.435  0.00  0.00    -0.317 OA
BRANCH  28  29
ATOM     29  C2  NON d   1     -47.238  15.516  -5.416  0.00  0.00     0.174 C 
ATOM     30  C1  NON d   1     -47.710  15.421  -3.980  0.00  0.00     0.034 C 
ENDBRANCH  28  29
ENDBRANCH  26  28
ENDBRANCH   1  26
TORSDOF 10
ENDMDL
MODEL 2
REMARK VINA RESULT:   -11.011      2.129      3.465
REMARK INTER + INTRA:         -15.454
REMARK INTER:                 -13.994
REMARK INTRA:                  -1.461
REMARK CONF_INDEPENDENT:        2.983
REMARK UNBOUND:                -1.461
REMARK  10 active torsions:
REMARK  status: ('A' for Active; 'I' for Inactive)
REMARK    1  A    between atoms: C2_2  and  O1_3 
REMARK    2  A    between atoms: O1_3  and  C3_4 
REMARK    3  A    between atoms: C3_4  and  C4_6 
REMARK    4  A    between atoms: C5_8  and  N1_9 
REMARK       I    between atoms: N1_9  and  C6_10 
REMARK    5  A    between atoms: C6_10  and  C7_12 
REMARK    6  A    between atoms: C7_12  and  O4_13 
REMARK    7  A    between atoms: O4_13  and  C8_14 
REMARK    8  A    between atoms: C16_22  and  C17_23 
REMARK    9  A    between atoms: C17_23  and  O6_25 
REMARK   10  A    between atoms: O6_25  and  C18_26 
ROOT
ATOM      1  C4  NON d   1     -44.584  17.895  -5.146  0.00  0.00     0.089 A 
ATOM      2  S1  NON d   1     -44.091  19.397  -5.809  0.00  0.00    -0.065 SA
ATOM      3  C5  NON d   1     -42.704  19.474  -4.864  0.00  0.00     0.094 A 
ATOM      4  C16 NON d   1     -42.558  18.382  -4.016  0.00  0.00     0.080 A 
ATOM      5  C20 NON d   1     -43.662  17.433  -4.200  0.00  0.00    -0.020 A 
ATOM      6  C21 NON d   1     -43.799  16.130  -3.464  0.00  0.00     0.051 C 
ENDROOT
BRANCH   3   7
ATOM      7  N1  NON d   1     -41.839  20.552  -4.949  0.00  0.00    -0.319 N 
ATOM      8  C6  NON d   1     -40.794  20.779  -5.833  0.00  0.00     0.246 C 
ATOM      9  O3  NON d   1     -40.405  20.040  -6.729  0.00  0.00    -0.271 OA
ATOM     10  H6  NON d   1     -42.018  21.279  -4.264  0.00  0.00     0.169 HD
BRANCH   8  11
ATOM     11  C7  NON d   1     -40.175  22.158  -5.547  0.00  0.00     0.278 C 
BRANCH  11  12
ATOM     12  O4  NON d   1     -39.188  22.536  -6.470  0.00  0.00    -0.341 OA
BRANCH  12  13
ATOM     13  C8  NON d   1     -39.503  23.256  -7.592  0.00  0.00     0.081 A 
ATOM     14  C9  NON d   1     -39.670  24.633  -7.301  0.00  0.00    -0.028 A 
ATOM     15  C10 NON d   1     -39.453  25.165  -5.904  0.00  0.00     0.051 C 
ATOM     16  C11 NON d   1     -40.088  25.525  -8.297  0.00  0.00     0.009 A 
ATOM     17  C12 NON d   1     -40.314  25.073  -9.588  0.00  0.00     0.001 A 
ATOM     18  C13 NON d   1     -40.117  23.729  -9.890  0.00  0.00     0.009 A 
ATOM     19  C14 NON d   1     -39.707  22.798  -8.911  0.00  0.00    -0.028 A 
ATOM     20  C15 NON d   1     -39.566  21.379  -9.390  0.00  0.00     0.051 C 
ENDBRANCH  12  13
ENDBRANCH  11  12
ENDBRANCH   8  11
ENDBRANCH   3   7
BRANCH   4  21
ATOM     21  C17 NON d   1     -41.457  18.287  -3.035  0.00  0.00     0.296 C 
ATOM     22  O5  NON d   1     -41.610  18.007  -1.852  0.00  0.00    -0.259 OA
BRANCH  21  23
ATOM     23  O6  NON d   1     -40.244  18.641  -3.572  0.00  0.00    -0.318 OA
BRANCH  23  24
ATOM     24  C18 NON d   1     -39.072  18.410  -2.777  0.00  0.00     0.174 C 
ATOM     25  C19 NON d   1     -37.800  18.565  -3.581  0.00  0.00     0.034 C 
ENDBRANCH  23  24
ENDBRANCH  21  23
ENDBRANCH   4  21
BRANCH   1  26
ATOM     26  C3  NON d   1     -45.846  17.353  -5.649  0.00  0.00     0.300 C 
ATOM     27  O2  NON d   1     -46.739  18.001  -6.186  0.00  0.00    -0.259 OA
BRANCH  26  28
ATOM     28  O1  NON d   1     -45.931  16.003  -5.446  0.00  0.00    -0.317 OA
BRANCH  28  29
ATOM     29  C2  NON d   1     -47.242  15.569  -5.057  0.00  0.00     0.174 C 
ATOM     30  C1  NON d   1     -47.663  16.321  -3.811  0.00  0.00     0.034 C 
ENDBRANCH  28  29
ENDBRANCH  26  28
ENDBRANCH   1  26
TORSDOF 10
ENDMDL
MODEL 3
REMARK VINA RESULT:   -10.899      1.873      3.580
REMARK INTER + INTRA:         -16.697
REMARK INTER:                 -13.882
REMARK INTRA:                  -2.815
REMARK CONF_INDEPENDENT:        2.983
REMARK UNBOUND:                -2.815
REMARK  10 active torsions:
REMARK  status: ('A' for Active; 'I' for Inactive)
REMARK    1  A    between atoms: C2_2  and  O1_3 
REMARK    2  A    between atoms: O1_3  and  C3_4 
REMARK    3  A    between atoms: C3_4  and  C4_6 
REMARK    4  A    between atoms: C5_8  and  N1_9 
REMARK       I    between atoms: N1_9  and  C6_10 
REMARK    5  A    between atoms: C6_10  and  C7_12 
REMARK    6  A    between atoms: C7_12  and  O4_13 
REMARK    7  A    between atoms: O4_13  and  C8_14 
REMARK    8  A    between atoms: C16_22  and  C17_23 
REMARK    9  A    between atoms: C17_23  and  O6_25 
REMARK   10  A    between atoms: O6_25  and  C18_26 
ROOT
ATOM      1  C4  NON d   1     -44.547  17.912  -5.186  0.00  0.00     0.089 A 
ATOM      2  S1  NON d   1     -44.092  19.430  -5.841  0.00  0.00    -0.065 SA
ATOM      3  C5  NON d   1     -42.676  19.507  -4.940  0.00  0.00     0.094 A 
ATOM      4  C16 NON d   1     -42.492  18.404  -4.114  0.00  0.00     0.080 A 
ATOM      5  C20 NON d   1     -43.591  17.446  -4.278  0.00  0.00    -0.020 A 
ATOM      6  C21 NON d   1     -43.689  16.130  -3.558  0.00  0.00     0.051 C 
ENDROOT
BRANCH   3   7
ATOM      7  N1  NON d   1     -41.827  20.596  -5.035  0.00  0.00    -0.319 N 
ATOM      8  C6  NON d   1     -41.064  21.212  -4.052  0.00  0.00     0.246 C 
ATOM      9  O3  NON d   1     -41.005  20.916  -2.864  0.00  0.00    -0.271 OA
ATOM     10  H6  NON d   1     -41.752  20.981  -5.971  0.00  0.00     0.169 HD
BRANCH   8  11
ATOM     11  C7  NON d   1     -40.243  22.350  -4.682  0.00  0.00     0.278 C 
BRANCH  11  12
ATOM     12  O4  NON d   1     -39.938  22.142  -6.036  0.00  0.00    -0.341 OA
BRANCH  12  13
ATOM     13  C8  NON d   1     -39.143  21.101  -6.434  0.00  0.00     0.081 A 
ATOM     14  C9  NON d   1     -39.737  20.362  -7.487  0.00  0.00    -0.028 A 
ATOM     15  C10 NON d   1     -41.064  20.776  -8.076  0.00  0.00     0.051 C 
ATOM     16  C11 NON d   1     -39.126  19.198  -7.972  0.00  0.00     0.009 A 
ATOM     17  C12 NON d   1     -37.915  18.774  -7.446  0.00  0.00     0.001 A 
ATOM     18  C13 NON d   1     -37.307  19.515  -6.437  0.00  0.00     0.009 A 
ATOM     19  C14 NON d   1     -37.897  20.687  -5.914  0.00  0.00    -0.028 A 
ATOM     20  C15 NON d   1     -37.129  21.357  -4.809  0.00  0.00     0.051 C 
ENDBRANCH  12  13
ENDBRANCH  11  12
ENDBRANCH   8  11
ENDBRANCH   3   7
BRANCH   4  21
ATOM     21  C17 NON d   1     -41.358  18.307  -3.171  0.00  0.00     0.296 C 
ATOM     22  O5  NON d   1     -41.472  18.334  -1.951  0.00  0.00    -0.259 OA
BRANCH  21  23
ATOM     23  O6  NON d   1     -40.144  18.276  -3.811  0.00  0.00    -0.318 OA
BRANCH  23  24
ATOM     24  C18 NON d   1     -38.980  18.010  -3.016  0.00  0.00     0.174 C 
ATOM     25  C19 NON d   1     -38.248  19.279  -2.637  0.00  0.00     0.034 C 
ENDBRANCH  23  24
ENDBRANCH  21  23
ENDBRANCH   4  21
BRANCH   1  26
ATOM     26  C3  NON d   1     -45.819  17.364  -5.657  0.00  0.00     0.300 C 
ATOM     27  O2  NON d   1     -46.723  18.005  -6.185  0.00  0.00    -0.259 OA
BRANCH  26  28
ATOM     28  O1  NON d   1     -45.900  16.017  -5.433  0.00  0.00    -0.317 OA
BRANCH  28  29
ATOM     29  C2  NON d   1     -47.230  15.571  -5.130  0.00  0.00     0.174 C 
ATOM     30  C1  NON d   1     -47.689  16.225  -3.843  0.00  0.00     0.034 C 
ENDBRANCH  28  29
ENDBRANCH  26  28
ENDBRANCH   1  26
TORSDOF 10
ENDMDL
MODEL 4
REMARK VINA RESULT:   -10.830      0.863      1.785
REMARK INTER + INTRA:         -16.589
REMARK INTER:                 -13.813
REMARK INTRA:                  -2.776
REMARK CONF_INDEPENDENT:        2.983
REMARK UNBOUND:                -2.776
REMARK  10 active torsions:
REMARK  status: ('A' for Active; 'I' for Inactive)
REMARK    1  A    between atoms: C2_2  and  O1_3 
REMARK    2  A    between atoms: O1_3  and  C3_4 
REMARK    3  A    between atoms: C3_4  and  C4_6 
REMARK    4  A    between atoms: C5_8  and  N1_9 
REMARK       I    between atoms: N1_9  and  C6_10 
REMARK    5  A    between atoms: C6_10  and  C7_12 
REMARK    6  A    between atoms: C7_12  and  O4_13 
REMARK    7  A    between atoms: O4_13  and  C8_14 
REMARK    8  A    between atoms: C16_22  and  C17_23 
REMARK    9  A    between atoms: C17_23  and  O6_25 
REMARK   10  A    between atoms: O6_25  and  C18_26 
ROOT
ATOM      1  C4  NON d   1     -44.517  17.909  -5.156  0.00  0.00     0.089 A 
ATOM      2  S1  NON d   1     -44.048  19.424  -5.807  0.00  0.00    -0.065 SA
ATOM      3  C5  NON d   1     -42.648  19.502  -4.879  0.00  0.00     0.094 A 
ATOM      4  C16 NON d   1     -42.481  18.400  -4.048  0.00  0.00     0.080 A 
ATOM      5  C20 NON d   1     -43.579  17.444  -4.229  0.00  0.00    -0.020 A 
ATOM      6  C21 NON d   1     -43.692  16.130  -3.508  0.00  0.00     0.051 C 
ENDROOT
BRANCH   3   7
ATOM      7  N1  NON d   1     -41.795  20.589  -4.962  0.00  0.00    -0.319 N 
ATOM      8  C6  NON d   1     -40.995  21.007  -6.017  0.00  0.00     0.246 C 
ATOM      9  O3  NON d   1     -40.868  20.469  -7.111  0.00  0.00    -0.271 OA
ATOM     10  H6  NON d   1     -41.772  21.160  -4.124  0.00  0.00     0.169 HD
BRANCH   8  11
ATOM     11  C7  NON d   1     -40.277  22.309  -5.627  0.00  0.00     0.278 C 
BRANCH  11  12
ATOM     12  O4  NON d   1     -40.126  22.477  -4.242  0.00  0.00    -0.341 OA
BRANCH  12  13
ATOM     13  C8  NON d   1     -40.314  23.697  -3.649  0.00  0.00     0.081 A 
ATOM     14  C9  NON d   1     -40.441  23.581  -2.242  0.00  0.00    -0.028 A 
ATOM     15  C10 NON d   1     -40.315  22.241  -1.557  0.00  0.00     0.051 C 
ATOM     16  C11 NON d   1     -40.736  24.705  -1.460  0.00  0.00     0.009 A 
ATOM     17  C12 NON d   1     -40.877  25.950  -2.052  0.00  0.00     0.001 A 
ATOM     18  C13 NON d   1     -40.716  26.079  -3.428  0.00  0.00     0.009 A 
ATOM     19  C14 NON d   1     -40.430  24.968  -4.252  0.00  0.00    -0.028 A 
ATOM     20  C15 NON d   1     -40.316  25.267  -5.721  0.00  0.00     0.051 C 
ENDBRANCH  12  13
ENDBRANCH  11  12
ENDBRANCH   8  11
ENDBRANCH   3   7
BRANCH   4  21
ATOM     21  C17 NON d   1     -41.365  18.303  -3.084  0.00  0.00     0.296 C 
ATOM     22  O5  NON d   1     -41.108  17.302  -2.426  0.00  0.00    -0.259 OA
BRANCH  21  23
ATOM     23  O6  NON d   1     -40.697  19.494  -2.932  0.00  0.00    -0.318 OA
BRANCH  23  24
ATOM     24  C18 NON d   1     -39.263  19.457  -2.940  0.00  0.00     0.174 C 
ATOM     25  C19 NON d   1     -38.713  19.028  -4.283  0.00  0.00     0.034 C 
ENDBRANCH  23  24
ENDBRANCH  21  23
ENDBRANCH   4  21
BRANCH   1  26
ATOM     26  C3  NON d   1     -45.781  17.362  -5.649  0.00  0.00     0.300 C 
ATOM     27  O2  NON d   1     -46.679  18.005  -6.185  0.00  0.00    -0.259 OA
BRANCH  26  28
ATOM     28  O1  NON d   1     -45.863  16.013  -5.435  0.00  0.00    -0.317 OA
BRANCH  28  29
ATOM     29  C2  NON d   1     -47.213  15.526  -5.395  0.00  0.00     0.174 C 
ATOM     30  C1  NON d   1     -47.898  16.070  -4.159  0.00  0.00     0.034 C 
ENDBRANCH  28  29
ENDBRANCH  26  28
ENDBRANCH   1  26
TORSDOF 10
ENDMDL
MODEL 5
REMARK VINA RESULT:   -10.408      0.981      1.931
REMARK INTER + INTRA:         -16.623
REMARK INTER:                 -13.391
REMARK INTRA:                  -3.232
REMARK CONF_INDEPENDENT:        2.983
REMARK UNBOUND:                -3.232
REMARK  10 active torsions:
REMARK  status: ('A' for Active; 'I' for Inactive)
REMARK    1  A    between atoms: C2_2  and  O1_3 
REMARK    2  A    between atoms: O1_3  and  C3_4 
REMARK    3  A    between atoms: C3_4  and  C4_6 
REMARK    4  A    between atoms: C5_8  and  N1_9 
REMARK       I    between atoms: N1_9  and  C6_10 
REMARK    5  A    between atoms: C6_10  and  C7_12 
REMARK    6  A    between atoms: C7_12  and  O4_13 
REMARK    7  A    between atoms: O4_13  and  C8_14 
REMARK    8  A    between atoms: C16_22  and  C17_23 
REMARK    9  A    between atoms: C17_23  and  O6_25 
REMARK   10  A    between atoms: O6_25  and  C18_26 
ROOT
ATOM      1  C4  NON d   1     -44.383  18.152  -5.128  0.00  0.00     0.089 A 
ATOM      2  S1  NON d   1     -43.597  19.505  -5.829  0.00  0.00    -0.065 SA
ATOM      3  C5  NON d   1     -42.377  19.522  -4.674  0.00  0.00     0.094 A 
ATOM      4  C16 NON d   1     -42.512  18.519  -3.721  0.00  0.00     0.080 A 
ATOM      5  C20 NON d   1     -43.690  17.691  -4.004  0.00  0.00    -0.020 A 
ATOM      6  C21 NON d   1     -44.111  16.501  -3.189  0.00  0.00     0.051 C 
ENDROOT
BRANCH   3   7
ATOM      7  N1  NON d   1     -41.374  20.476  -4.707  0.00  0.00    -0.319 N 
ATOM      8  C6  NON d   1     -40.709  21.023  -5.796  0.00  0.00     0.246 C 
ATOM      9  O3  NON d   1     -40.870  20.747  -6.979  0.00  0.00    -0.271 OA
ATOM     10  H6  NON d   1     -41.106  20.824  -3.793  0.00  0.00     0.169 HD
BRANCH   8  11
ATOM     11  C7  NON d   1     -39.717  22.090  -5.304  0.00  0.00     0.278 C 
BRANCH  11  12
ATOM     12  O4  NON d   1     -39.200  21.832  -4.025  0.00  0.00    -0.341 OA
BRANCH  12  13
ATOM     13  C8  NON d   1     -39.778  22.365  -2.903  0.00  0.00     0.081 A 
ATOM     14  C9  NON d   1     -39.325  21.722  -1.725  0.00  0.00    -0.028 A 
ATOM     15  C10 NON d   1     -38.286  20.628  -1.786  0.00  0.00     0.051 C 
ATOM     16  C11 NON d   1     -39.870  22.056  -0.478  0.00  0.00     0.009 A 
ATOM     17  C12 NON d   1     -40.838  23.044  -0.382  0.00  0.00     0.001 A 
ATOM     18  C13 NON d   1     -41.261  23.706  -1.530  0.00  0.00     0.009 A 
ATOM     19  C14 NON d   1     -40.745  23.389  -2.805  0.00  0.00    -0.028 A 
ATOM     20  C15 NON d   1     -41.325  24.175  -3.949  0.00  0.00     0.051 C 
ENDBRANCH  12  13
ENDBRANCH  11  12
ENDBRANCH   8  11
ENDBRANCH   3   7
BRANCH   4  21
ATOM     21  C17 NON d   1     -41.599  18.403  -2.564  0.00  0.00     0.296 C 
ATOM     22  O5  NON d   1     -41.938  18.005  -1.456  0.00  0.00    -0.259 OA
BRANCH  21  23
ATOM     23  O6  NON d   1     -40.341  18.881  -2.838  0.00  0.00    -0.318 OA
BRANCH  23  24
ATOM     24  C18 NON d   1     -39.432  18.007  -3.520  0.00  0.00     0.174 C 
ATOM     25  C19 NON d   1     -38.556  18.752  -4.504  0.00  0.00     0.034 C 
ENDBRANCH  23  24
ENDBRANCH  21  23
ENDBRANCH   4  21
BRANCH   1  26
ATOM     26  C3  NON d   1     -45.612  17.710  -5.787  0.00  0.00     0.300 C 
ATOM     27  O2  NON d   1     -46.290  18.380  -6.560  0.00  0.00    -0.259 OA
BRANCH  26  28
ATOM     28  O1  NON d   1     -45.939  16.429  -5.434  0.00  0.00    -0.317 OA
BRANCH  28  29
ATOM     29  C2  NON d   1     -47.349  16.236  -5.247  0.00  0.00     0.174 C 
ATOM     30  C1  NON d   1     -47.591  15.666  -3.864  0.00  0.00     0.034 C 
ENDBRANCH  28  29
ENDBRANCH  26  28
ENDBRANCH   1  26
TORSDOF 10
ENDMDL
MODEL 6
REMARK VINA RESULT:   -10.372      1.929      3.521
REMARK INTER + INTRA:         -15.802
REMARK INTER:                 -13.355
REMARK INTRA:                  -2.447
REMARK CONF_INDEPENDENT:        2.983
REMARK UNBOUND:                -2.447
REMARK  10 active torsions:
REMARK  status: ('A' for Active; 'I' for Inactive)
REMARK    1  A    between atoms: C2_2  and  O1_3 
REMARK    2  A    between atoms: O1_3  and  C3_4 
REMARK    3  A    between atoms: C3_4  and  C4_6 
REMARK    4  A    between atoms: C5_8  and  N1_9 
REMARK       I    between atoms: N1_9  and  C6_10 
REMARK    5  A    between atoms: C6_10  and  C7_12 
REMARK    6  A    between atoms: C7_12  and  O4_13 
REMARK    7  A    between atoms: O4_13  and  C8_14 
REMARK    8  A    between atoms: C16_22  and  C17_23 
REMARK    9  A    between atoms: C17_23  and  O6_25 
REMARK   10  A    between atoms: O6_25  and  C18_26 
ROOT
ATOM      1  C4  NON d   1     -44.320  18.070  -5.129  0.00  0.00     0.089 A 
ATOM      2  S1  NON d   1     -43.497  19.412  -5.809  0.00  0.00    -0.065 SA
ATOM      3  C5  NON d   1     -42.268  19.367  -4.664  0.00  0.00     0.094 A 
ATOM      4  C16 NON d   1     -42.428  18.349  -3.730  0.00  0.00     0.080 A 
ATOM      5  C20 NON d   1     -43.634  17.565  -4.020  0.00  0.00    -0.020 A 
ATOM      6  C21 NON d   1     -44.087  16.373  -3.226  0.00  0.00     0.051 C 
ENDROOT
BRANCH   3   7
ATOM      7  N1  NON d   1     -41.236  20.289  -4.686  0.00  0.00    -0.319 N 
ATOM      8  C6  NON d   1     -41.241  21.630  -4.329  0.00  0.00     0.246 C 
ATOM      9  O3  NON d   1     -42.194  22.289  -3.931  0.00  0.00    -0.271 OA
ATOM     10  H6  NON d   1     -40.349  19.908  -4.999  0.00  0.00     0.169 HD
BRANCH   8  11
ATOM     11  C7  NON d   1     -39.821  22.203  -4.480  0.00  0.00     0.278 C 
BRANCH  11  12
ATOM     12  O4  NON d   1     -38.998  21.453  -5.334  0.00  0.00    -0.341 OA
BRANCH  12  13
ATOM     13  C8  NON d   1     -39.277  21.336  -6.669  0.00  0.00     0.081 A 
ATOM     14  C9  NON d   1     -39.203  22.586  -7.332  0.00  0.00    -0.028 A 
ATOM     15  C10 NON d   1     -38.802  23.837  -6.589  0.00  0.00     0.051 C 
ATOM     16  C11 NON d   1     -39.549  22.695  -8.685  0.00  0.00     0.009 A 
ATOM     17  C12 NON d   1     -39.939  21.572  -9.399  0.00  0.00     0.001 A 
ATOM     18  C13 NON d   1     -39.978  20.334  -8.764  0.00  0.00     0.009 A 
ATOM     19  C14 NON d   1     -39.649  20.186  -7.400  0.00  0.00    -0.028 A 
ATOM     20  C15 NON d   1     -39.769  18.789  -6.856  0.00  0.00     0.051 C 
ENDBRANCH  12  13
ENDBRANCH  11  12
ENDBRANCH   8  11
ENDBRANCH   3   7
BRANCH   4  21
ATOM     21  C17 NON d   1     -41.511  18.182  -2.583  0.00  0.00     0.296 C 
ATOM     22  O5  NON d   1     -41.817  18.406  -1.417  0.00  0.00    -0.259 OA
BRANCH  21  23
ATOM     23  O6  NON d   1     -40.241  17.835  -2.972  0.00  0.00    -0.318 OA
BRANCH  23  24
ATOM     24  C18 NON d   1     -39.166  18.703  -2.585  0.00  0.00     0.174 C 
ATOM     25  C19 NON d   1     -37.860  17.956  -2.432  0.00  0.00     0.034 C 
ENDBRANCH  23  24
ENDBRANCH  21  23
ENDBRANCH   4  21
BRANCH   1  26
ATOM     26  C3  NON d   1     -45.567  17.681  -5.787  0.00  0.00     0.300 C 
ATOM     27  O2  NON d   1     -46.217  18.379  -6.560  0.00  0.00    -0.259 OA
BRANCH  26  28
ATOM     28  O1  NON d   1     -45.949  16.416  -5.433  0.00  0.00    -0.317 OA
BRANCH  28  29
ATOM     29  C2  NON d   1     -47.330  16.326  -5.054  0.00  0.00     0.174 C 
ATOM     30  C1  NON d   1     -47.420  16.182  -3.548  0.00  0.00     0.034 C 
ENDBRANCH  28  29
ENDBRANCH  26  28
ENDBRANCH   1  26
TORSDOF 10
ENDMDL
MODEL 7
REMARK VINA RESULT:   -10.271      1.913      3.895
REMARK INTER + INTRA:         -16.053
REMARK INTER:                 -13.254
REMARK INTRA:                  -2.798
REMARK CONF_INDEPENDENT:        2.983
REMARK UNBOUND:                -2.798
REMARK  10 active torsions:
REMARK  status: ('A' for Active; 'I' for Inactive)
REMARK    1  A    between atoms: C2_2  and  O1_3 
REMARK    2  A    between atoms: O1_3  and  C3_4 
REMARK    3  A    between atoms: C3_4  and  C4_6 
REMARK    4  A    between atoms: C5_8  and  N1_9 
REMARK       I    between atoms: N1_9  and  C6_10 
REMARK    5  A    between atoms: C6_10  and  C7_12 
REMARK    6  A    between atoms: C7_12  and  O4_13 
REMARK    7  A    between atoms: O4_13  and  C8_14 
REMARK    8  A    between atoms: C16_22  and  C17_23 
REMARK    9  A    between atoms: C17_23  and  O6_25 
REMARK   10  A    between atoms: O6_25  and  C18_26 
ROOT
ATOM      1  C4  NON d   1     -44.319  18.062  -5.122  0.00  0.00     0.089 A 
ATOM      2  S1  NON d   1     -43.487  19.400  -5.798  0.00  0.00    -0.065 SA
ATOM      3  C5  NON d   1     -42.264  19.349  -4.647  0.00  0.00     0.094 A 
ATOM      4  C16 NON d   1     -42.433  18.333  -3.713  0.00  0.00     0.080 A 
ATOM      5  C20 NON d   1     -43.641  17.554  -4.009  0.00  0.00    -0.020 A 
ATOM      6  C21 NON d   1     -44.103  16.363  -3.217  0.00  0.00     0.051 C 
ENDROOT
BRANCH   3   7
ATOM      7  N1  NON d   1     -41.227  20.266  -4.664  0.00  0.00    -0.319 N 
ATOM      8  C6  NON d   1     -41.231  21.611  -4.318  0.00  0.00     0.246 C 
ATOM      9  O3  NON d   1     -42.185  22.277  -3.935  0.00  0.00    -0.271 OA
ATOM     10  H6  NON d   1     -40.339  19.880  -4.964  0.00  0.00     0.169 HD
BRANCH   8  11
ATOM     11  C7  NON d   1     -39.807  22.176  -4.457  0.00  0.00     0.278 C 
BRANCH  11  12
ATOM     12  O4  NON d   1     -39.010  21.477  -5.376  0.00  0.00    -0.341 OA
BRANCH  12  13
ATOM     13  C8  NON d   1     -39.377  21.358  -6.689  0.00  0.00     0.081 A 
ATOM     14  C9  NON d   1     -39.277  20.019  -7.142  0.00  0.00    -0.028 A 
ATOM     15  C10 NON d   1     -38.862  18.911  -6.205  0.00  0.00     0.051 C 
ATOM     16  C11 NON d   1     -39.517  19.703  -8.486  0.00  0.00     0.009 A 
ATOM     17  C12 NON d   1     -39.884  20.696  -9.382  0.00  0.00     0.001 A 
ATOM     18  C13 NON d   1     -40.020  22.007  -8.937  0.00  0.00     0.009 A 
ATOM     19  C14 NON d   1     -39.776  22.367  -7.593  0.00  0.00    -0.028 A 
ATOM     20  C15 NON d   1     -39.938  23.829  -7.278  0.00  0.00     0.051 C 
ENDBRANCH  12  13
ENDBRANCH  11  12
ENDBRANCH   8  11
ENDBRANCH   3   7
BRANCH   4  21
ATOM     21  C17 NON d   1     -41.522  18.161  -2.562  0.00  0.00     0.296 C 
ATOM     22  O5  NON d   1     -41.816  18.435  -1.404  0.00  0.00    -0.259 OA
BRANCH  21  23
ATOM     23  O6  NON d   1     -40.269  17.746  -2.941  0.00  0.00    -0.318 OA
BRANCH  23  24
ATOM     24  C18 NON d   1     -39.187  18.675  -2.789  0.00  0.00     0.174 C 
ATOM     25  C19 NON d   1     -37.848  18.045  -3.106  0.00  0.00     0.034 C 
ENDBRANCH  23  24
ENDBRANCH  21  23
ENDBRANCH   4  21
BRANCH   1  26
ATOM     26  C3  NON d   1     -45.565  17.678  -5.786  0.00  0.00     0.300 C 
ATOM     27  O2  NON d   1     -46.209  18.380  -6.560  0.00  0.00    -0.259 OA
BRANCH  26  28
ATOM     28  O1  NON d   1     -45.953  16.414  -5.435  0.00  0.00    -0.317 OA
BRANCH  28  29
ATOM     29  C2  NON d   1     -47.376  16.267  -5.325  0.00  0.00     0.174 C 
ATOM     30  C1  NON d   1     -47.718  15.802  -3.924  0.00  0.00     0.034 C 
ENDBRANCH  28  29
ENDBRANCH  26  28
ENDBRANCH   1  26
TORSDOF 10
ENDMDL
MODEL 8
REMARK VINA RESULT:   -10.109      2.482      4.130
REMARK INTER + INTRA:         -15.357
REMARK INTER:                 -13.092
REMARK INTRA:                  -2.264
REMARK CONF_INDEPENDENT:        2.983
REMARK UNBOUND:                -2.264
REMARK  10 active torsions:
REMARK  status: ('A' for Active; 'I' for Inactive)
REMARK    1  A    between atoms: C2_2  and  O1_3 
REMARK    2  A    between atoms: O1_3  and  C3_4 
REMARK    3  A    between atoms: C3_4  and  C4_6 
REMARK    4  A    between atoms: C5_8  and  N1_9 
REMARK       I    between atoms: N1_9  and  C6_10 
REMARK    5  A    between atoms: C6_10  and  C7_12 
REMARK    6  A    between atoms: C7_12  and  O4_13 
REMARK    7  A    between atoms: O4_13  and  C8_14 
REMARK    8  A    between atoms: C16_22  and  C17_23 
REMARK    9  A    between atoms: C17_23  and  O6_25 
REMARK   10  A    between atoms: O6_25  and  C18_26 
ROOT
ATOM      1  C4  NON d   1     -45.007  17.644  -5.164  0.00  0.00     0.089 A 
ATOM      2  S1  NON d   1     -44.161  16.697  -4.012  0.00  0.00    -0.065 SA
ATOM      3  C5  NON d   1     -42.889  17.790  -3.899  0.00  0.00     0.094 A 
ATOM      4  C16 NON d   1     -43.047  18.901  -4.719  0.00  0.00     0.080 A 
ATOM      5  C20 NON d   1     -44.316  18.826  -5.452  0.00  0.00    -0.020 A 
ATOM      6  C21 NON d   1     -44.815  19.878  -6.402  0.00  0.00     0.051 C 
ENDROOT
BRANCH   3   7
ATOM      7  N1  NON d   1     -41.807  17.545  -3.070  0.00  0.00    -0.319 N 
ATOM      8  C6  NON d   1     -40.449  17.614  -3.345  0.00  0.00     0.246 C 
ATOM      9  O3  NON d   1     -39.921  17.897  -4.415  0.00  0.00    -0.271 OA
ATOM     10  H6  NON d   1     -42.063  17.290  -2.122  0.00  0.00     0.169 HD
BRANCH   8  11
ATOM     11  C7  NON d   1     -39.653  17.304  -2.066  0.00  0.00     0.278 C 
BRANCH  11  12
ATOM     12  O4  NON d   1     -38.363  17.857  -2.056  0.00  0.00    -0.341 OA
BRANCH  12  13
ATOM     13  C8  NON d   1     -38.099  19.057  -2.660  0.00  0.00     0.081 A 
ATOM     14  C9  NON d   1     -37.021  18.958  -3.575  0.00  0.00    -0.028 A 
ATOM     15  C10 NON d   1     -36.339  17.636  -3.833  0.00  0.00     0.051 C 
ATOM     16  C11 NON d   1     -36.533  20.099  -4.225  0.00  0.00     0.009 A 
ATOM     17  C12 NON d   1     -37.121  21.335  -4.001  0.00  0.00     0.001 A 
ATOM     18  C13 NON d   1     -38.204  21.434  -3.133  0.00  0.00     0.009 A 
ATOM     19  C14 NON d   1     -38.717  20.309  -2.451  0.00  0.00    -0.028 A 
ATOM     20  C15 NON d   1     -39.870  20.587  -1.526  0.00  0.00     0.051 C 
ENDBRANCH  12  13
ENDBRANCH  11  12
ENDBRANCH   8  11
ENDBRANCH   3   7
BRANCH   4  21
ATOM     21  C17 NON d   1     -42.008  19.944  -4.842  0.00  0.00     0.296 C 
ATOM     22  O5  NON d   1     -41.617  20.641  -3.913  0.00  0.00    -0.259 OA
BRANCH  21  23
ATOM     23  O6  NON d   1     -41.588  20.116  -6.138  0.00  0.00    -0.318 OA
BRANCH  23  24
ATOM     24  C18 NON d   1     -40.194  19.917  -6.417  0.00  0.00     0.174 C 
ATOM     25  C19 NON d   1     -39.956  18.703  -7.287  0.00  0.00     0.034 C 
ENDBRANCH  23  24
ENDBRANCH  21  23
ENDBRANCH   4  21
BRANCH   1  26
ATOM     26  C3  NON d   1     -46.268  17.087  -5.651  0.00  0.00     0.300 C 
ATOM     27  O2  NON d   1     -47.173  17.723  -6.185  0.00  0.00    -0.259 OA
BRANCH  26  28
ATOM     28  O1  NON d   1     -46.339  15.738  -5.435  0.00  0.00    -0.317 OA
BRANCH  28  29
ATOM     29  C2  NON d   1     -47.482  15.347  -4.660  0.00  0.00     0.174 C 
ATOM     30  C1  NON d   1     -47.672  16.335  -3.527  0.00  0.00     0.034 C 
ENDBRANCH  28  29
ENDBRANCH  26  28
ENDBRANCH   1  26
TORSDOF 10
ENDMDL
MODEL 9
REMARK VINA RESULT:    -9.449      2.478      4.223
REMARK INTER + INTRA:         -14.988
REMARK INTER:                 -12.432
REMARK INTRA:                  -2.556
REMARK CONF_INDEPENDENT:        2.983
REMARK UNBOUND:                -2.556
REMARK  10 active torsions:
REMARK  status: ('A' for Active; 'I' for Inactive)
REMARK    1  A    between atoms: C2_2  and  O1_3 
REMARK    2  A    between atoms: O1_3  and  C3_4 
REMARK    3  A    between atoms: C3_4  and  C4_6 
REMARK    4  A    between atoms: C5_8  and  N1_9 
REMARK       I    between atoms: N1_9  and  C6_10 
REMARK    5  A    between atoms: C6_10  and  C7_12 
REMARK    6  A    between atoms: C7_12  and  O4_13 
REMARK    7  A    between atoms: O4_13  and  C8_14 
REMARK    8  A    between atoms: C16_22  and  C17_23 
REMARK    9  A    between atoms: C17_23  and  O6_25 
REMARK   10  A    between atoms: O6_25  and  C18_26 
ROOT
ATOM      1  C4  NON d   1     -44.477  17.249  -4.673  0.00  0.00     0.089 A 
ATOM      2  S1  NON d   1     -43.285  16.378  -3.801  0.00  0.00    -0.065 SA
ATOM      3  C5  NON d   1     -42.134  17.591  -3.968  0.00  0.00     0.094 A 
ATOM      4  C16 NON d   1     -42.595  18.690  -4.683  0.00  0.00     0.080 A 
ATOM      5  C20 NON d   1     -43.994  18.497  -5.081  0.00  0.00    -0.020 A 
ATOM      6  C21 NON d   1     -44.811  19.504  -5.840  0.00  0.00     0.051 C 
ENDROOT
BRANCH   3   7
ATOM      7  N1  NON d   1     -40.861  17.445  -3.442  0.00  0.00    -0.319 N 
ATOM      8  C6  NON d   1     -40.419  17.611  -2.136  0.00  0.00     0.246 C 
ATOM      9  O3  NON d   1     -41.085  17.947  -1.164  0.00  0.00    -0.271 OA
ATOM     10  H6  NON d   1     -40.163  17.164  -4.122  0.00  0.00     0.169 HD
BRANCH   8  11
ATOM     11  C7  NON d   1     -38.920  17.275  -2.059  0.00  0.00     0.278 C 
BRANCH  11  12
ATOM     12  O4  NON d   1     -38.088  18.405  -2.051  0.00  0.00    -0.341 OA
BRANCH  12  13
ATOM     13  C8  NON d   1     -37.948  19.192  -3.162  0.00  0.00     0.081 A 
ATOM     14  C9  NON d   1     -38.587  20.447  -3.000  0.00  0.00    -0.028 A 
ATOM     15  C10 NON d   1     -39.269  20.810  -1.703  0.00  0.00     0.051 C 
ATOM     16  C11 NON d   1     -38.640  21.360  -4.061  0.00  0.00     0.009 A 
ATOM     17  C12 NON d   1     -38.040  21.057  -5.274  0.00  0.00     0.001 A 
ATOM     18  C13 NON d   1     -37.379  19.843  -5.429  0.00  0.00     0.009 A 
ATOM     19  C14 NON d   1     -37.313  18.892  -4.387  0.00  0.00    -0.028 A 
ATOM     20  C15 NON d   1     -36.588  17.618  -4.723  0.00  0.00     0.051 C 
ENDBRANCH  12  13
ENDBRANCH  11  12
ENDBRANCH   8  11
ENDBRANCH   3   7
BRANCH   4  21
ATOM     21  C17 NON d   1     -41.722  19.832  -5.023  0.00  0.00     0.296 C 
ATOM     22  O5  NON d   1     -41.453  20.747  -4.253  0.00  0.00    -0.259 OA
BRANCH  21  23
ATOM     23  O6  NON d   1     -41.315  19.810  -6.334  0.00  0.00    -0.318 OA
BRANCH  23  24
ATOM     24  C18 NON d   1     -40.254  18.910  -6.685  0.00  0.00     0.174 C 
ATOM     25  C19 NON d   1     -39.731  19.165  -8.082  0.00  0.00     0.034 C 
ENDBRANCH  23  24
ENDBRANCH  21  23
ENDBRANCH   4  21
BRANCH   1  26
ATOM     26  C3  NON d   1     -45.763  16.575  -4.852  0.00  0.00     0.300 C 
ATOM     27  O2  NON d   1     -46.077  15.874  -5.809  0.00  0.00    -0.259 OA
BRANCH  26  28
ATOM     28  O1  NON d   1     -46.610  16.822  -3.806  0.00  0.00    -0.317 OA
BRANCH  28  29
ATOM     29  C2  NON d   1     -47.521  15.743  -3.547  0.00  0.00     0.174 C 
ATOM     30  C1  NON d   1     -48.773  16.299  -2.900  0.00  0.00     0.034 C 
ENDBRANCH  28  29
ENDBRANCH  26  28
ENDBRANCH   1  26
TORSDOF 10
ENDMDL
