MODEL 1
REMARK VINA RESULT:   -12.659      0.000      0.000
REMARK INTER + INTRA:         -14.271
REMARK INTER:                 -13.852
REMARK INTRA:                  -0.419
REMARK CONF_INDEPENDENT:        1.193
REMARK UNBOUND:                -0.419
REMARK  4 active torsions:
REMARK  status: ('A' for Active; 'I' for Inactive)
REMARK       I    between atoms: C1_2  and  N1_3 
REMARK       I    between atoms: C1_2  and  N2_14 
REMARK    1  A    between atoms: N1_3  and  C2_4 
REMARK    2  A    between atoms: C2_4  and  C3_5 
REMARK    3  A    between atoms: C6_8  and  C7_9 
REMARK    4  A    between atoms: N2_14  and  C10_15 
ROOT
ATOM      1  O1  NON d   1     -40.128  21.094  -2.578  0.00  0.00    -0.247 OA
ATOM      2  C1  NON d   1     -40.351  20.279  -1.691  0.00  0.00     0.320 C 
ATOM      3  N1  NON d   1     -40.698  18.969  -1.958  0.00  0.00    -0.339 N 
ATOM      4  N2  NON d   1     -40.314  20.525  -0.337  0.00  0.00    -0.309 N 
ATOM      5  H1  NON d   1     -40.338  18.289  -1.306  0.00  0.00     0.164 HD
ATOM      6  H8  NON d   1     -40.776  19.831   0.232  0.00  0.00     0.170 HD
ENDROOT
BRANCH   3   7
ATOM      7  C2  NON d   1     -40.705  18.551  -3.345  0.00  0.00     0.162 C 
BRANCH   7   8
ATOM      8  C3  NON d   1     -42.058  18.252  -3.938  0.00  0.00    -0.040 A 
ATOM      9  C4  NON d   1     -42.581  16.963  -3.736  0.00  0.00     0.010 A 
ATOM     10  C5  NON d   1     -43.820  16.594  -4.268  0.00  0.00     0.019 A 
ATOM     11  C6  NON d   1     -44.579  17.502  -5.016  0.00  0.00     0.040 A 
ATOM     12  C8  NON d   1     -44.053  18.787  -5.223  0.00  0.00     0.019 A 
ATOM     13  C9  NON d   1     -42.806  19.158  -4.699  0.00  0.00     0.010 A 
BRANCH  11  14
ATOM     14  C7  NON d   1     -45.925  17.103  -5.591  0.00  0.00     0.209 C 
ATOM     15  O2  NON d   1     -46.284  15.893  -5.435  0.00  0.00    -0.644 OA
ATOM     16  O3  NON d   1     -46.593  18.005  -6.188  0.00  0.00    -0.644 OA
ENDBRANCH  11  14
ENDBRANCH   7   8
ENDBRANCH   3   7
BRANCH   4  17
ATOM     17  C10 NON d   1     -39.898  21.716   0.296  0.00  0.00     0.038 A 
ATOM     18  C11 NON d   1     -38.636  21.720   0.903  0.00  0.00     0.031 A 
ATOM     19  C12 NON d   1     -38.155  22.870   1.539  0.00  0.00     0.028 A 
ATOM     20  C13 NON d   1     -38.930  24.031   1.573  0.00  0.00     0.055 A 
ATOM     21 Cl1  NON d   1     -38.273  25.414   2.373  0.00  0.00    -0.083 Cl
ATOM     22  C14 NON d   1     -40.187  24.040   0.966  0.00  0.00     0.058 A 
ATOM     23 Cl2  NON d   1     -41.199  25.441   0.957  0.00  0.00    -0.082 Cl
ATOM     24  C15 NON d   1     -40.664  22.886   0.329  0.00  0.00     0.055 A 
ENDBRANCH   4  17
TORSDOF 4
ENDMDL
MODEL 2
REMARK VINA RESULT:   -12.495      0.741      1.838
REMARK INTER + INTRA:         -14.093
REMARK INTER:                 -13.688
REMARK INTRA:                  -0.405
REMARK CONF_INDEPENDENT:        1.193
REMARK UNBOUND:                -0.405
REMARK  4 active torsions:
REMARK  status: ('A' for Active; 'I' for Inactive)
REMARK       I    between atoms: C1_2  and  N1_3 
REMARK       I    between atoms: C1_2  and  N2_14 
REMARK    1  A    between atoms: N1_3  and  C2_4 
REMARK    2  A    between atoms: C2_4  and  C3_5 
REMARK    3  A    between atoms: C6_8  and  C7_9 
REMARK    4  A    between atoms: N2_14  and  C10_15 
ROOT
ATOM      1  O1  NON d   1     -40.104  21.305  -2.346  0.00  0.00    -0.247 OA
ATOM      2  C1  NON d   1     -40.337  20.437  -1.514  0.00  0.00     0.320 C 
ATOM      3  N1  NON d   1     -40.683  19.147  -1.867  0.00  0.00    -0.339 N 
ATOM      4  N2  NON d   1     -40.315  20.596  -0.147  0.00  0.00    -0.309 N 
ATOM      5  H1  NON d   1     -40.330  18.426  -1.256  0.00  0.00     0.164 HD
ATOM      6  H8  NON d   1     -40.784  19.867   0.372  0.00  0.00     0.170 HD
ENDROOT
BRANCH   3   7
ATOM      7  C2  NON d   1     -40.675  18.817  -3.278  0.00  0.00     0.162 C 
BRANCH   7   8
ATOM      8  C3  NON d   1     -41.975  18.308  -3.845  0.00  0.00    -0.040 A 
ATOM      9  C4  NON d   1     -42.691  19.170  -4.692  0.00  0.00     0.010 A 
ATOM     10  C5  NON d   1     -43.916  18.787  -5.246  0.00  0.00     0.019 A 
ATOM     11  C6  NON d   1     -44.464  17.527  -4.974  0.00  0.00     0.040 A 
ATOM     12  C8  NON d   1     -43.751  16.669  -4.123  0.00  0.00     0.019 A 
ATOM     13  C9  NON d   1     -42.526  17.054  -3.558  0.00  0.00     0.010 A 
BRANCH  11  14
ATOM     14  C7  NON d   1     -45.791  17.110  -5.578  0.00  0.00     0.209 C 
ATOM     15  O2  NON d   1     -46.136  15.895  -5.435  0.00  0.00    -0.644 OA
ATOM     16  O3  NON d   1     -46.461  18.005  -6.185  0.00  0.00    -0.644 OA
ENDBRANCH  11  14
ENDBRANCH   7   8
ENDBRANCH   3   7
BRANCH   4  17
ATOM     17  C10 NON d   1     -39.905  21.744   0.565  0.00  0.00     0.038 A 
ATOM     18  C11 NON d   1     -40.898  22.645   0.967  0.00  0.00     0.031 A 
ATOM     19  C12 NON d   1     -40.564  23.799   1.685  0.00  0.00     0.028 A 
ATOM     20  C13 NON d   1     -39.232  24.063   2.013  0.00  0.00     0.055 A 
ATOM     21 Cl1  NON d   1     -38.892  25.504   2.904  0.00  0.00    -0.083 Cl
ATOM     22  C14 NON d   1     -38.235  23.167   1.622  0.00  0.00     0.058 A 
ATOM     23 Cl2  NON d   1     -36.567  23.420   1.999  0.00  0.00    -0.082 Cl
ATOM     24  C15 NON d   1     -38.574  22.013   0.903  0.00  0.00     0.055 A 
ENDBRANCH   4  17
TORSDOF 4
ENDMDL
MODEL 3
REMARK VINA RESULT:   -12.483      5.215      6.719
REMARK INTER + INTRA:         -14.140
REMARK INTER:                 -13.676
REMARK INTRA:                  -0.464
REMARK CONF_INDEPENDENT:        1.193
REMARK UNBOUND:                -0.464
REMARK  4 active torsions:
REMARK  status: ('A' for Active; 'I' for Inactive)
REMARK       I    between atoms: C1_2  and  N1_3 
REMARK       I    between atoms: C1_2  and  N2_14 
REMARK    1  A    between atoms: N1_3  and  C2_4 
REMARK    2  A    between atoms: C2_4  and  C3_5 
REMARK    3  A    between atoms: C6_8  and  C7_9 
REMARK    4  A    between atoms: N2_14  and  C10_15 
ROOT
ATOM      1  O1  NON d   1     -40.833  20.161  -5.463  0.00  0.00    -0.247 OA
ATOM      2  C1  NON d   1     -40.132  19.207  -5.149  0.00  0.00     0.320 C 
ATOM      3  N1  NON d   1     -40.401  18.419  -4.048  0.00  0.00    -0.339 N 
ATOM      4  N2  NON d   1     -38.994  18.788  -5.802  0.00  0.00    -0.309 N 
ATOM      5  H1  NON d   1     -40.184  17.440  -4.157  0.00  0.00     0.164 HD
ATOM      6  H8  NON d   1     -38.403  18.168  -5.267  0.00  0.00     0.170 HD
ENDROOT
BRANCH   3   7
ATOM      7  C2  NON d   1     -41.614  18.702  -3.307  0.00  0.00     0.162 C 
BRANCH   7   8
ATOM      8  C3  NON d   1     -42.903  18.276  -3.961  0.00  0.00    -0.040 A 
ATOM      9  C4  NON d   1     -43.384  16.989  -3.663  0.00  0.00     0.010 A 
ATOM     10  C5  NON d   1     -44.561  16.506  -4.240  0.00  0.00     0.019 A 
ATOM     11  C6  NON d   1     -45.299  17.293  -5.133  0.00  0.00     0.040 A 
ATOM     12  C8  NON d   1     -44.815  18.576  -5.435  0.00  0.00     0.019 A 
ATOM     13  C9  NON d   1     -43.629  19.061  -4.865  0.00  0.00     0.010 A 
BRANCH  11  14
ATOM     14  C7  NON d   1     -46.578  16.769  -5.757  0.00  0.00     0.209 C 
ATOM     15  O2  NON d   1     -46.722  15.507  -5.810  0.00  0.00    -0.644 OA
ATOM     16  O3  NON d   1     -47.412  17.630  -6.185  0.00  0.00    -0.644 OA
ENDBRANCH  11  14
ENDBRANCH   7   8
ENDBRANCH   3   7
BRANCH   4  17
ATOM     17  C10 NON d   1     -38.482  19.291  -7.018  0.00  0.00     0.038 A 
ATOM     18  C11 NON d   1     -37.251  18.789  -7.459  0.00  0.00     0.031 A 
ATOM     19  C12 NON d   1     -36.690  19.234  -8.660  0.00  0.00     0.028 A 
ATOM     20  C13 NON d   1     -37.354  20.185  -9.438  0.00  0.00     0.055 A 
ATOM     21 Cl1  NON d   1     -36.605  20.689 -10.911  0.00  0.00    -0.083 Cl
ATOM     22  C14 NON d   1     -38.585  20.688  -9.010  0.00  0.00     0.058 A 
ATOM     23 Cl2  NON d   1     -39.471  21.859  -9.921  0.00  0.00    -0.082 Cl
ATOM     24  C15 NON d   1     -39.144  20.238  -7.806  0.00  0.00     0.055 A 
ENDBRANCH   4  17
TORSDOF 4
ENDMDL
MODEL 4
REMARK VINA RESULT:   -12.359      5.435      7.070
REMARK INTER + INTRA:         -13.980
REMARK INTER:                 -13.552
REMARK INTRA:                  -0.428
REMARK CONF_INDEPENDENT:        1.193
REMARK UNBOUND:                -0.428
REMARK  4 active torsions:
REMARK  status: ('A' for Active; 'I' for Inactive)
REMARK       I    between atoms: C1_2  and  N1_3 
REMARK       I    between atoms: C1_2  and  N2_14 
REMARK    1  A    between atoms: N1_3  and  C2_4 
REMARK    2  A    between atoms: C2_4  and  C3_5 
REMARK    3  A    between atoms: C6_8  and  C7_9 
REMARK    4  A    between atoms: N2_14  and  C10_15 
ROOT
ATOM      1  O1  NON d   1     -40.832  18.753  -6.129  0.00  0.00    -0.247 OA
ATOM      2  C1  NON d   1     -40.664  19.829  -5.567  0.00  0.00     0.320 C 
ATOM      3  N1  NON d   1     -41.037  20.047  -4.256  0.00  0.00    -0.339 N 
ATOM      4  N2  NON d   1     -40.115  20.959  -6.130  0.00  0.00    -0.309 N 
ATOM      5  H1  NON d   1     -40.427  20.656  -3.731  0.00  0.00     0.164 HD
ATOM      6  H8  NON d   1     -40.294  21.814  -5.623  0.00  0.00     0.170 HD
ENDROOT
BRANCH   3   7
ATOM      7  C2  NON d   1     -41.564  18.918  -3.516  0.00  0.00     0.162 C 
BRANCH   7   8
ATOM      8  C3  NON d   1     -42.822  18.297  -4.067  0.00  0.00    -0.040 A 
ATOM      9  C4  NON d   1     -43.626  19.095  -4.899  0.00  0.00     0.010 A 
ATOM     10  C5  NON d   1     -44.819  18.606  -5.437  0.00  0.00     0.019 A 
ATOM     11  C6  NON d   1     -45.248  17.301  -5.164  0.00  0.00     0.040 A 
ATOM     12  C8  NON d   1     -44.448  16.506  -4.328  0.00  0.00     0.019 A 
ATOM     13  C9  NON d   1     -43.255  16.997  -3.779  0.00  0.00     0.010 A 
BRANCH  11  14
ATOM     14  C7  NON d   1     -46.542  16.769  -5.751  0.00  0.00     0.209 C 
ATOM     15  O2  NON d   1     -47.376  17.625  -6.183  0.00  0.00    -0.644 OA
ATOM     16  O3  NON d   1     -46.699  15.507  -5.764  0.00  0.00    -0.644 OA
ENDBRANCH  11  14
ENDBRANCH   7   8
ENDBRANCH   3   7
BRANCH   4  17
ATOM     17  C10 NON d   1     -39.531  21.070  -7.411  0.00  0.00     0.038 A 
ATOM     18  C11 NON d   1     -40.123  21.958  -8.317  0.00  0.00     0.031 A 
ATOM     19  C12 NON d   1     -39.591  22.125  -9.600  0.00  0.00     0.028 A 
ATOM     20  C13 NON d   1     -38.458  21.409  -9.991  0.00  0.00     0.055 A 
ATOM     21 Cl1  NON d   1     -37.853  21.667 -11.589  0.00  0.00    -0.083 Cl
ATOM     22  C14 NON d   1     -37.857  20.525  -9.093  0.00  0.00     0.058 A 
ATOM     23 Cl2  NON d   1     -36.447  19.611  -9.500  0.00  0.00    -0.082 Cl
ATOM     24  C15 NON d   1     -38.393  20.361  -7.808  0.00  0.00     0.055 A 
ENDBRANCH   4  17
TORSDOF 4
ENDMDL
MODEL 5
REMARK VINA RESULT:   -12.333      5.326      6.926
REMARK INTER + INTRA:         -13.954
REMARK INTER:                 -13.527
REMARK INTRA:                  -0.428
REMARK CONF_INDEPENDENT:        1.193
REMARK UNBOUND:                -0.428
REMARK  4 active torsions:
REMARK  status: ('A' for Active; 'I' for Inactive)
REMARK       I    between atoms: C1_2  and  N1_3 
REMARK       I    between atoms: C1_2  and  N2_14 
REMARK    1  A    between atoms: N1_3  and  C2_4 
REMARK    2  A    between atoms: C2_4  and  C3_5 
REMARK    3  A    between atoms: C6_8  and  C7_9 
REMARK    4  A    between atoms: N2_14  and  C10_15 
ROOT
ATOM      1  O1  NON d   1     -40.812  18.940  -6.345  0.00  0.00    -0.247 OA
ATOM      2  C1  NON d   1     -40.680  19.994  -5.735  0.00  0.00     0.320 C 
ATOM      3  N1  NON d   1     -41.015  20.126  -4.402  0.00  0.00    -0.339 N 
ATOM      4  N2  NON d   1     -40.213  21.180  -6.257  0.00  0.00    -0.309 N 
ATOM      5  H1  NON d   1     -40.419  20.740  -3.868  0.00  0.00     0.164 HD
ATOM      6  H8  NON d   1     -40.418  21.997  -5.700  0.00  0.00     0.170 HD
ENDROOT
BRANCH   3   7
ATOM      7  C2  NON d   1     -41.454  18.934  -3.704  0.00  0.00     0.162 C 
BRANCH   7   8
ATOM      8  C3  NON d   1     -42.734  18.311  -4.201  0.00  0.00    -0.040 A 
ATOM      9  C4  NON d   1     -43.598  19.125  -4.954  0.00  0.00     0.010 A 
ATOM     10  C5  NON d   1     -44.814  18.635  -5.437  0.00  0.00     0.019 A 
ATOM     11  C6  NON d   1     -45.206  17.314  -5.186  0.00  0.00     0.040 A 
ATOM     12  C8  NON d   1     -44.346  16.505  -4.428  0.00  0.00     0.019 A 
ATOM     13  C9  NON d   1     -43.129  16.996  -3.934  0.00  0.00     0.010 A 
BRANCH  11  14
ATOM     14  C7  NON d   1     -46.525  16.782  -5.713  0.00  0.00     0.209 C 
ATOM     15  O2  NON d   1     -46.709  15.525  -5.650  0.00  0.00    -0.644 OA
ATOM     16  O3  NON d   1     -47.350  17.630  -6.181  0.00  0.00    -0.644 OA
ENDBRANCH  11  14
ENDBRANCH   7   8
ENDBRANCH   3   7
BRANCH   4  17
ATOM     17  C10 NON d   1     -39.684  21.386  -7.549  0.00  0.00     0.038 A 
ATOM     18  C11 NON d   1     -38.794  20.426  -8.045  0.00  0.00     0.031 A 
ATOM     19  C12 NON d   1     -38.240  20.561  -9.323  0.00  0.00     0.028 A 
ATOM     20  C13 NON d   1     -38.573  21.657 -10.122  0.00  0.00     0.055 A 
ATOM     21 Cl1  NON d   1     -37.854  21.759 -11.689  0.00  0.00    -0.083 Cl
ATOM     22  C14 NON d   1     -39.464  22.617  -9.639  0.00  0.00     0.058 A 
ATOM     23 Cl2  NON d   1     -39.931  23.995 -10.572  0.00  0.00    -0.082 Cl
ATOM     24  C15 NON d   1     -40.017  22.477  -8.358  0.00  0.00     0.055 A 
ENDBRANCH   4  17
TORSDOF 4
ENDMDL
MODEL 6
REMARK VINA RESULT:   -12.032      5.202      6.872
REMARK INTER + INTRA:         -13.689
REMARK INTER:                 -13.226
REMARK INTRA:                  -0.464
REMARK CONF_INDEPENDENT:        1.193
REMARK UNBOUND:                -0.464
REMARK  4 active torsions:
REMARK  status: ('A' for Active; 'I' for Inactive)
REMARK       I    between atoms: C1_2  and  N1_3 
REMARK       I    between atoms: C1_2  and  N2_14 
REMARK    1  A    between atoms: N1_3  and  C2_4 
REMARK    2  A    between atoms: C2_4  and  C3_5 
REMARK    3  A    between atoms: C6_8  and  C7_9 
REMARK    4  A    between atoms: N2_14  and  C10_15 
ROOT
ATOM      1  O1  NON d   1     -41.005  20.662  -5.761  0.00  0.00    -0.247 OA
ATOM      2  C1  NON d   1     -40.199  19.741  -5.709  0.00  0.00     0.320 C 
ATOM      3  N1  NON d   1     -40.244  18.771  -4.728  0.00  0.00    -0.339 N 
ATOM      4  N2  NON d   1     -39.147  19.535  -6.573  0.00  0.00    -0.309 N 
ATOM      5  H1  NON d   1     -39.978  17.845  -5.026  0.00  0.00     0.164 HD
ATOM      6  H8  NON d   1     -38.440  18.898  -6.235  0.00  0.00     0.170 HD
ENDROOT
BRANCH   3   7
ATOM      7  C2  NON d   1     -41.347  18.822  -3.789  0.00  0.00     0.162 C 
BRANCH   7   8
ATOM      8  C3  NON d   1     -42.685  18.371  -4.317  0.00  0.00    -0.040 A 
ATOM      9  C4  NON d   1     -43.015  17.013  -4.162  0.00  0.00     0.010 A 
ATOM     10  C5  NON d   1     -44.226  16.505  -4.639  0.00  0.00     0.019 A 
ATOM     11  C6  NON d   1     -45.149  17.337  -5.285  0.00  0.00     0.040 A 
ATOM     12  C8  NON d   1     -44.816  18.691  -5.445  0.00  0.00     0.019 A 
ATOM     13  C9  NON d   1     -43.597  19.203  -4.975  0.00  0.00     0.010 A 
BRANCH  11  14
ATOM     14  C7  NON d   1     -46.465  16.786  -5.800  0.00  0.00     0.209 C 
ATOM     15  O2  NON d   1     -47.335  17.629  -6.185  0.00  0.00    -0.644 OA
ATOM     16  O3  NON d   1     -46.603  15.522  -5.806  0.00  0.00    -0.644 OA
ENDBRANCH  11  14
ENDBRANCH   7   8
ENDBRANCH   3   7
BRANCH   4  17
ATOM     17  C10 NON d   1     -38.861  20.264  -7.748  0.00  0.00     0.038 A 
ATOM     18  C11 NON d   1     -37.966  19.694  -8.662  0.00  0.00     0.031 A 
ATOM     19  C12 NON d   1     -37.646  20.357  -9.852  0.00  0.00     0.028 A 
ATOM     20  C13 NON d   1     -38.218  21.597 -10.143  0.00  0.00     0.055 A 
ATOM     21 Cl1  NON d   1     -37.779  22.357 -11.631  0.00  0.00    -0.083 Cl
ATOM     22  C14 NON d   1     -39.116  22.170  -9.241  0.00  0.00     0.058 A 
ATOM     23 Cl2  NON d   1     -39.873  23.697  -9.536  0.00  0.00    -0.082 Cl
ATOM     24  C15 NON d   1     -39.435  21.503  -8.051  0.00  0.00     0.055 A 
ENDBRANCH   4  17
TORSDOF 4
ENDMDL
MODEL 7
REMARK VINA RESULT:   -11.752      5.121      6.293
REMARK INTER + INTRA:         -13.259
REMARK INTER:                 -12.945
REMARK INTRA:                  -0.314
REMARK CONF_INDEPENDENT:        1.193
REMARK UNBOUND:                -0.314
REMARK  4 active torsions:
REMARK  status: ('A' for Active; 'I' for Inactive)
REMARK       I    between atoms: C1_2  and  N1_3 
REMARK       I    between atoms: C1_2  and  N2_14 
REMARK    1  A    between atoms: N1_3  and  C2_4 
REMARK    2  A    between atoms: C2_4  and  C3_5 
REMARK    3  A    between atoms: C6_8  and  C7_9 
REMARK    4  A    between atoms: N2_14  and  C10_15 
ROOT
ATOM      1  O1  NON d   1     -41.648  20.994  -4.952  0.00  0.00    -0.247 OA
ATOM      2  C1  NON d   1     -40.681  20.263  -5.132  0.00  0.00     0.320 C 
ATOM      3  N1  NON d   1     -40.481  19.106  -4.405  0.00  0.00    -0.339 N 
ATOM      4  N2  NON d   1     -39.664  20.473  -6.036  0.00  0.00    -0.309 N 
ATOM      5  H1  NON d   1     -40.064  18.344  -4.918  0.00  0.00     0.164 HD
ATOM      6  H8  NON d   1     -38.830  19.929  -5.869  0.00  0.00     0.170 HD
ENDROOT
BRANCH   3   7
ATOM      7  C2  NON d   1     -41.514  18.723  -3.465  0.00  0.00     0.162 C 
BRANCH   7   8
ATOM      8  C3  NON d   1     -42.828  18.293  -4.065  0.00  0.00    -0.040 A 
ATOM      9  C4  NON d   1     -43.275  16.992  -3.774  0.00  0.00     0.010 A 
ATOM     10  C5  NON d   1     -44.473  16.505  -4.305  0.00  0.00     0.019 A 
ATOM     11  C6  NON d   1     -45.265  17.302  -5.141  0.00  0.00     0.040 A 
ATOM     12  C8  NON d   1     -44.814  18.598  -5.435  0.00  0.00     0.019 A 
ATOM     13  C9  NON d   1     -43.609  19.087  -4.912  0.00  0.00     0.010 A 
BRANCH  11  14
ATOM     14  C7  NON d   1     -46.566  16.773  -5.714  0.00  0.00     0.209 C 
ATOM     15  O2  NON d   1     -46.730  15.512  -5.712  0.00  0.00    -0.644 OA
ATOM     16  O3  NON d   1     -47.396  17.628  -6.158  0.00  0.00    -0.644 OA
ENDBRANCH  11  14
ENDBRANCH   7   8
ENDBRANCH   3   7
BRANCH   4  17
ATOM     17  C10 NON d   1     -39.594  21.492  -7.010  0.00  0.00     0.038 A 
ATOM     18  C11 NON d   1     -39.938  22.790  -6.614  0.00  0.00     0.031 A 
ATOM     19  C12 NON d   1     -39.881  23.851  -7.525  0.00  0.00     0.028 A 
ATOM     20  C13 NON d   1     -39.476  23.627  -8.842  0.00  0.00     0.055 A 
ATOM     21 Cl1  NON d   1     -39.426  24.983  -9.912  0.00  0.00    -0.083 Cl
ATOM     22  C14 NON d   1     -39.125  22.337  -9.245  0.00  0.00     0.058 A 
ATOM     23 Cl2  NON d   1     -38.605  21.982 -10.856  0.00  0.00    -0.082 Cl
ATOM     24  C15 NON d   1     -39.183  21.277  -8.330  0.00  0.00     0.055 A 
ENDBRANCH   4  17
TORSDOF 4
ENDMDL
MODEL 8
REMARK VINA RESULT:   -11.377      1.351      1.900
REMARK INTER + INTRA:         -12.994
REMARK INTER:                 -12.571
REMARK INTRA:                  -0.423
REMARK CONF_INDEPENDENT:        1.193
REMARK UNBOUND:                -0.423
REMARK  4 active torsions:
REMARK  status: ('A' for Active; 'I' for Inactive)
REMARK       I    between atoms: C1_2  and  N1_3 
REMARK       I    between atoms: C1_2  and  N2_14 
REMARK    1  A    between atoms: N1_3  and  C2_4 
REMARK    2  A    between atoms: C2_4  and  C3_5 
REMARK    3  A    between atoms: C6_8  and  C7_9 
REMARK    4  A    between atoms: N2_14  and  C10_15 
ROOT
ATOM      1  O1  NON d   1     -40.430  19.720  -1.711  0.00  0.00    -0.247 OA
ATOM      2  C1  NON d   1     -40.624  20.540  -2.599  0.00  0.00     0.320 C 
ATOM      3  N1  NON d   1     -40.943  20.172  -3.892  0.00  0.00    -0.339 N 
ATOM      4  N2  NON d   1     -40.543  21.909  -2.471  0.00  0.00    -0.309 N 
ATOM      5  H1  NON d   1     -41.585  20.787  -4.367  0.00  0.00     0.164 HD
ATOM      6  H8  NON d   1     -40.469  22.411  -3.344  0.00  0.00     0.170 HD
ENDROOT
BRANCH   3   7
ATOM      7  C2  NON d   1     -41.133  18.759  -4.154  0.00  0.00     0.162 C 
BRANCH   7   8
ATOM      8  C3  NON d   1     -42.527  18.342  -4.546  0.00  0.00    -0.040 A 
ATOM      9  C4  NON d   1     -42.844  16.976  -4.447  0.00  0.00     0.010 A 
ATOM     10  C5  NON d   1     -44.106  16.499  -4.808  0.00  0.00     0.019 A 
ATOM     11  C6  NON d   1     -45.096  17.371  -5.277  0.00  0.00     0.040 A 
ATOM     12  C8  NON d   1     -44.778  18.734  -5.382  0.00  0.00     0.019 A 
ATOM     13  C9  NON d   1     -43.508  19.215  -5.029  0.00  0.00     0.010 A 
BRANCH  11  14
ATOM     14  C7  NON d   1     -46.468  16.853  -5.666  0.00  0.00     0.209 C 
ATOM     15  O2  NON d   1     -46.706  15.623  -5.448  0.00  0.00    -0.644 OA
ATOM     16  O3  NON d   1     -47.279  17.685  -6.184  0.00  0.00    -0.644 OA
ENDBRANCH  11  14
ENDBRANCH   7   8
ENDBRANCH   3   7
BRANCH   4  17
ATOM     17  C10 NON d   1     -40.342  22.637  -1.278  0.00  0.00     0.038 A 
ATOM     18  C11 NON d   1     -41.336  23.549  -0.903  0.00  0.00     0.031 A 
ATOM     19  C12 NON d   1     -41.208  24.296   0.273  0.00  0.00     0.028 A 
ATOM     20  C13 NON d   1     -40.085  24.138   1.089  0.00  0.00     0.055 A 
ATOM     21 Cl1  NON d   1     -39.993  25.091   2.527  0.00  0.00    -0.083 Cl
ATOM     22  C14 NON d   1     -39.092  23.227   0.726  0.00  0.00     0.058 A 
ATOM     23 Cl2  NON d   1     -37.679  22.968   1.689  0.00  0.00    -0.082 Cl
ATOM     24  C15 NON d   1     -39.225  22.479  -0.452  0.00  0.00     0.055 A 
ENDBRANCH   4  17
TORSDOF 4
ENDMDL
