MODEL 1
REMARK VINA RESULT:   -10.040      0.000      0.000
REMARK INTER + INTRA:         -13.543
REMARK INTER:                 -12.128
REMARK INTRA:                  -1.415
REMARK CONF_INDEPENDENT:        2.088
REMARK UNBOUND:                -1.415
REMARK  7 active torsions:
REMARK  status: ('A' for Active; 'I' for Inactive)
REMARK    1  A    between atoms: O1_2  and  C2_3 
REMARK    2  A    between atoms: C2_3  and  C3_5 
REMARK    3  A    between atoms: C10_14  and  N2_15 
REMARK       I    between atoms: N2_15  and  C11_16 
REMARK    4  A    between atoms: C12_18  and  C11_16 
REMARK    5  A    between atoms: C12_18  and  N3_20 
REMARK    6  A    between atoms: N4_23  and  C16_24 
REMARK    7  A    between atoms: C20_28  and  C21_29 
ROOT
ATOM      1  N2  NON d   1     -40.325  20.099  -6.400  0.00  0.00    -0.322 N 
ATOM      2  C11 NON d   1     -39.784  19.531  -5.276  0.00  0.00     0.255 C 
ATOM      3  O3  NON d   1     -38.588  19.295  -5.109  0.00  0.00    -0.271 OA
ATOM      4  H8  NON d   1     -41.321  20.296  -6.337  0.00  0.00     0.169 HD
ENDROOT
BRANCH   2   5
ATOM      5  C12 NON d   1     -40.752  19.264  -4.097  0.00  0.00     0.310 C 
ATOM      6  C13 NON d   1     -39.931  18.958  -2.841  0.00  0.00     0.053 C 
BRANCH   5   7
ATOM      7  N3  NON d   1     -41.916  18.358  -4.389  0.00  0.00     0.104 N 
ATOM      8  C14 NON d   1     -42.350  17.507  -3.255  0.00  0.00     0.293 C 
ATOM      9  C15 NON d   1     -43.627  16.658  -3.561  0.00  0.00     0.153 C 
ATOM     10  N4  NON d   1     -44.770  17.480  -4.045  0.00  0.00    -0.377 N 
ATOM     11  C23 NON d   1     -44.380  18.462  -5.079  0.00  0.00     0.153 C 
ATOM     12  C24 NON d   1     -43.084  19.217  -4.730  0.00  0.00     0.293 C 
BRANCH  10  13
ATOM     13  C16 NON d   1     -46.018  16.840  -4.246  0.00  0.00     0.030 A 
ATOM     14  C17 NON d   1     -46.332  16.138  -5.421  0.00  0.00     0.029 A 
ATOM     15  C18 NON d   1     -47.574  15.499  -5.606  0.00  0.00     0.003 A 
ATOM     16  C19 NON d   1     -48.539  15.531  -4.611  0.00  0.00     0.016 A 
ATOM     17  C20 NON d   1     -48.272  16.195  -3.414  0.00  0.00     0.050 A 
ATOM     18  C22 NON d   1     -47.013  16.814  -3.245  0.00  0.00     0.045 A 
BRANCH  17  19
ATOM     19  C21 NON d   1     -49.289  16.226  -2.299  0.00  0.00     0.417 C 
ATOM     20  F1  NON d   1     -49.842  15.005  -2.061  0.00  0.00    -0.166 F 
ATOM     21  F2  NON d   1     -48.756  16.632  -1.110  0.00  0.00    -0.166 F 
ATOM     22  F3  NON d   1     -50.333  17.069  -2.540  0.00  0.00    -0.166 F 
ENDBRANCH  17  19
ENDBRANCH  10  13
ENDBRANCH   5   7
ENDBRANCH   2   5
BRANCH   1  23
ATOM     23  C10 NON d   1     -39.653  20.644  -7.500  0.00  0.00     0.080 A 
ATOM     24  C9  NON d   1     -39.537  21.996  -7.998  0.00  0.00     0.021 A 
ATOM     25  C8  NON d   1     -39.940  23.287  -7.576  0.00  0.00     0.040 A 
ATOM     26  C4  NON d   1     -38.873  21.925  -9.230  0.00  0.00     0.045 A 
ATOM     27  C7  NON d   1     -39.761  24.395  -8.409  0.00  0.00     0.035 A 
ATOM     28  C6  NON d   1     -39.156  24.268  -9.652  0.00  0.00     0.026 A 
ATOM     29 Cl1  NON d   1     -40.316  25.944  -7.895  0.00  0.00    -0.084 Cl
ATOM     30  C5  NON d   1     -38.680  23.028 -10.074  0.00  0.00     0.032 A 
ATOM     31  N1  NON d   1     -38.500  20.619  -9.421  0.00  0.00    -0.349 N 
ATOM     32  C3  NON d   1     -38.993  19.823  -8.414  0.00  0.00     0.136 A 
ATOM     33  H4  NON d   1     -38.015  20.264 -10.229  0.00  0.00     0.166 HD
BRANCH  32  34
ATOM     34  C2  NON d   1     -38.876  18.386  -8.512  0.00  0.00     0.312 C 
ATOM     35  O2  NON d   1     -39.806  17.597  -8.397  0.00  0.00    -0.258 OA
BRANCH  34  36
ATOM     36  O1  NON d   1     -37.564  18.035  -8.583  0.00  0.00    -0.321 OA
ATOM     37  C1  NON d   1     -36.787  18.620  -7.542  0.00  0.00     0.213 C 
ENDBRANCH  34  36
ENDBRANCH  32  34
ENDBRANCH   1  23
TORSDOF 7
ENDMDL
MODEL 2
REMARK VINA RESULT:    -9.778      1.424      1.750
REMARK INTER + INTRA:         -14.063
REMARK INTER:                 -11.866
REMARK INTRA:                  -2.197
REMARK CONF_INDEPENDENT:        2.088
REMARK UNBOUND:                -2.197
REMARK  7 active torsions:
REMARK  status: ('A' for Active; 'I' for Inactive)
REMARK    1  A    between atoms: O1_2  and  C2_3 
REMARK    2  A    between atoms: C2_3  and  C3_5 
REMARK    3  A    between atoms: C10_14  and  N2_15 
REMARK       I    between atoms: N2_15  and  C11_16 
REMARK    4  A    between atoms: C12_18  and  C11_16 
REMARK    5  A    between atoms: C12_18  and  N3_20 
REMARK    6  A    between atoms: N4_23  and  C16_24 
REMARK    7  A    between atoms: C20_28  and  C21_29 
ROOT
ATOM      1  N2  NON d   1     -39.916  20.652  -5.678  0.00  0.00    -0.322 N 
ATOM      2  C11 NON d   1     -40.511  20.703  -4.443  0.00  0.00     0.255 C 
ATOM      3  O3  NON d   1     -41.075  21.688  -3.971  0.00  0.00    -0.271 OA
ATOM      4  H8  NON d   1     -39.567  19.735  -5.942  0.00  0.00     0.169 HD
ENDROOT
BRANCH   2   5
ATOM      5  C12 NON d   1     -40.553  19.380  -3.639  0.00  0.00     0.310 C 
ATOM      6  C13 NON d   1     -39.142  18.788  -3.583  0.00  0.00     0.053 C 
BRANCH   5   7
ATOM      7  N3  NON d   1     -41.675  18.438  -3.974  0.00  0.00     0.104 N 
ATOM      8  C14 NON d   1     -42.305  17.769  -2.809  0.00  0.00     0.293 C 
ATOM      9  C15 NON d   1     -43.534  16.880  -3.185  0.00  0.00     0.153 C 
ATOM     10  N4  NON d   1     -44.567  17.616  -3.966  0.00  0.00    -0.377 N 
ATOM     11  C23 NON d   1     -43.995  18.430  -5.061  0.00  0.00     0.153 C 
ATOM     12  C24 NON d   1     -42.755  19.232  -4.625  0.00  0.00     0.293 C 
BRANCH  10  13
ATOM     13  C16 NON d   1     -45.781  16.950  -4.267  0.00  0.00     0.030 A 
ATOM     14  C17 NON d   1     -46.002  16.282  -5.483  0.00  0.00     0.029 A 
ATOM     15  C18 NON d   1     -47.210  15.617  -5.766  0.00  0.00     0.003 A 
ATOM     16  C19 NON d   1     -48.235  15.587  -4.833  0.00  0.00     0.016 A 
ATOM     17  C20 NON d   1     -48.062  16.215  -3.600  0.00  0.00     0.050 A 
ATOM     18  C22 NON d   1     -46.834  16.861  -3.331  0.00  0.00     0.045 A 
BRANCH  17  19
ATOM     19  C21 NON d   1     -49.146  16.177  -2.550  0.00  0.00     0.417 C 
ATOM     20  F1  NON d   1     -49.684  14.936  -2.396  0.00  0.00    -0.166 F 
ATOM     21  F2  NON d   1     -48.698  16.545  -1.315  0.00  0.00    -0.166 F 
ATOM     22  F3  NON d   1     -50.193  17.007  -2.823  0.00  0.00    -0.166 F 
ENDBRANCH  17  19
ENDBRANCH  10  13
ENDBRANCH   5   7
ENDBRANCH   2   5
BRANCH   1  23
ATOM     23  C10 NON d   1     -39.941  21.621  -6.687  0.00  0.00     0.080 A 
ATOM     24  C9  NON d   1     -39.783  23.058  -6.662  0.00  0.00     0.021 A 
ATOM     25  C8  NON d   1     -39.463  24.042  -5.695  0.00  0.00     0.040 A 
ATOM     26  C4  NON d   1     -40.068  23.526  -7.952  0.00  0.00     0.045 A 
ATOM     27  C7  NON d   1     -39.532  25.401  -6.013  0.00  0.00     0.035 A 
ATOM     28  C6  NON d   1     -39.882  25.822  -7.288  0.00  0.00     0.026 A 
ATOM     29 Cl1  NON d   1     -39.196  26.577  -4.798  0.00  0.00    -0.084 Cl
ATOM     30  C5  NON d   1     -40.135  24.885  -8.289  0.00  0.00     0.032 A 
ATOM     31  N1  NON d   1     -40.273  22.430  -8.751  0.00  0.00    -0.349 N 
ATOM     32  C3  NON d   1     -40.242  21.275  -8.004  0.00  0.00     0.136 A 
ATOM     33  H4  NON d   1     -40.508  22.458  -9.729  0.00  0.00     0.166 HD
BRANCH  32  34
ATOM     34  C2  NON d   1     -40.616  20.018  -8.611  0.00  0.00     0.312 C 
ATOM     35  O2  NON d   1     -41.488  19.882  -9.461  0.00  0.00    -0.258 OA
BRANCH  34  36
ATOM     36  O1  NON d   1     -39.978  18.994  -7.983  0.00  0.00    -0.321 OA
ATOM     37  C1  NON d   1     -38.622  18.863  -8.398  0.00  0.00     0.213 C 
ENDBRANCH  34  36
ENDBRANCH  32  34
ENDBRANCH   1  23
TORSDOF 7
ENDMDL
MODEL 3
REMARK VINA RESULT:    -8.695      3.174      4.795
REMARK INTER + INTRA:         -12.870
REMARK INTER:                 -10.783
REMARK INTRA:                  -2.087
REMARK CONF_INDEPENDENT:        2.088
REMARK UNBOUND:                -2.087
REMARK  7 active torsions:
REMARK  status: ('A' for Active; 'I' for Inactive)
REMARK    1  A    between atoms: O1_2  and  C2_3 
REMARK    2  A    between atoms: C2_3  and  C3_5 
REMARK    3  A    between atoms: C10_14  and  N2_15 
REMARK       I    between atoms: N2_15  and  C11_16 
REMARK    4  A    between atoms: C12_18  and  C11_16 
REMARK    5  A    between atoms: C12_18  and  N3_20 
REMARK    6  A    between atoms: N4_23  and  C16_24 
REMARK    7  A    between atoms: C20_28  and  C21_29 
ROOT
ATOM      1  N2  NON d   1     -40.691  21.442  -3.045  0.00  0.00    -0.322 N 
ATOM      2  C11 NON d   1     -40.762  20.687  -4.188  0.00  0.00     0.255 C 
ATOM      3  O3  NON d   1     -40.901  21.137  -5.325  0.00  0.00    -0.271 OA
ATOM      4  H8  NON d   1     -40.495  20.913  -2.200  0.00  0.00     0.169 HD
ENDROOT
BRANCH   2   5
ATOM      5  C12 NON d   1     -40.549  19.162  -4.027  0.00  0.00     0.310 C 
ATOM      6  C13 NON d   1     -39.212  18.778  -4.667  0.00  0.00     0.053 C 
BRANCH   5   7
ATOM      7  N3  NON d   1     -41.733  18.291  -4.344  0.00  0.00     0.104 N 
ATOM      8  C14 NON d   1     -42.202  17.435  -3.228  0.00  0.00     0.293 C 
ATOM      9  C15 NON d   1     -43.496  16.624  -3.560  0.00  0.00     0.153 C 
ATOM     10  N4  NON d   1     -44.612  17.483  -4.044  0.00  0.00    -0.377 N 
ATOM     11  C23 NON d   1     -44.186  18.470  -5.059  0.00  0.00     0.153 C 
ATOM     12  C24 NON d   1     -42.875  19.186  -4.685  0.00  0.00     0.293 C 
BRANCH  10  13
ATOM     13  C16 NON d   1     -45.874  16.879  -4.268  0.00  0.00     0.030 A 
ATOM     14  C17 NON d   1     -46.189  16.190  -5.450  0.00  0.00     0.029 A 
ATOM     15  C18 NON d   1     -47.445  15.587  -5.658  0.00  0.00     0.003 A 
ATOM     16  C19 NON d   1     -48.425  15.642  -4.678  0.00  0.00     0.016 A 
ATOM     17  C20 NON d   1     -48.159  16.294  -3.475  0.00  0.00     0.050 A 
ATOM     18  C22 NON d   1     -46.885  16.877  -3.282  0.00  0.00     0.045 A 
BRANCH  17  19
ATOM     19  C21 NON d   1     -49.192  16.349  -2.375  0.00  0.00     0.417 C 
ATOM     20  F1  NON d   1     -50.269  17.113  -2.706  0.00  0.00    -0.166 F 
ATOM     21  F2  NON d   1     -49.691  15.119  -2.058  0.00  0.00    -0.166 F 
ATOM     22  F3  NON d   1     -48.713  16.864  -1.207  0.00  0.00    -0.166 F 
ENDBRANCH  17  19
ENDBRANCH  10  13
ENDBRANCH   5   7
ENDBRANCH   2   5
BRANCH   1  23
ATOM     23  C10 NON d   1     -40.621  22.836  -2.936  0.00  0.00     0.080 A 
ATOM     24  C9  NON d   1     -40.424  23.881  -3.915  0.00  0.00     0.021 A 
ATOM     25  C8  NON d   1     -40.317  23.964  -5.325  0.00  0.00     0.040 A 
ATOM     26  C4  NON d   1     -40.277  25.083  -3.210  0.00  0.00     0.045 A 
ATOM     27  C7  NON d   1     -39.984  25.173  -5.943  0.00  0.00     0.035 A 
ATOM     28  C6  NON d   1     -39.784  26.327  -5.199  0.00  0.00     0.026 A 
ATOM     29 Cl1  NON d   1     -39.802  25.230  -7.657  0.00  0.00    -0.084 Cl
ATOM     30  C5  NON d   1     -39.950  26.305  -3.815  0.00  0.00     0.032 A 
ATOM     31  N1  NON d   1     -40.490  24.810  -1.883  0.00  0.00    -0.349 N 
ATOM     32  C3  NON d   1     -40.658  23.458  -1.688  0.00  0.00     0.136 A 
ATOM     33  H4  NON d   1     -40.438  25.481  -1.134  0.00  0.00     0.166 HD
BRANCH  32  34
ATOM     34  C2  NON d   1     -40.713  22.928  -0.346  0.00  0.00     0.312 C 
ATOM     35  O2  NON d   1     -40.567  21.747  -0.051  0.00  0.00    -0.258 OA
BRANCH  34  36
ATOM     36  O1  NON d   1     -41.114  23.899   0.518  0.00  0.00    -0.321 OA
ATOM     37  C1  NON d   1     -40.738  23.619   1.863  0.00  0.00     0.213 C 
ENDBRANCH  34  36
ENDBRANCH  32  34
ENDBRANCH   1  23
TORSDOF 7
ENDMDL
MODEL 4
REMARK VINA RESULT:    -8.540      2.479      3.719
REMARK INTER + INTRA:         -12.829
REMARK INTER:                 -10.628
REMARK INTRA:                  -2.201
REMARK CONF_INDEPENDENT:        2.088
REMARK UNBOUND:                -2.201
REMARK  7 active torsions:
REMARK  status: ('A' for Active; 'I' for Inactive)
REMARK    1  A    between atoms: O1_2  and  C2_3 
REMARK    2  A    between atoms: C2_3  and  C3_5 
REMARK    3  A    between atoms: C10_14  and  N2_15 
REMARK       I    between atoms: N2_15  and  C11_16 
REMARK    4  A    between atoms: C12_18  and  C11_16 
REMARK    5  A    between atoms: C12_18  and  N3_20 
REMARK    6  A    between atoms: N4_23  and  C16_24 
REMARK    7  A    between atoms: C20_28  and  C21_29 
ROOT
ATOM      1  N2  NON d   1     -40.768  21.462  -4.779  0.00  0.00    -0.322 N 
ATOM      2  C11 NON d   1     -40.300  20.204  -5.057  0.00  0.00     0.255 C 
ATOM      3  O3  NON d   1     -39.578  19.913  -6.010  0.00  0.00    -0.271 OA
ATOM      4  H8  NON d   1     -41.286  21.538  -3.908  0.00  0.00     0.169 HD
ENDROOT
BRANCH   2   5
ATOM      5  C12 NON d   1     -40.633  19.096  -4.028  0.00  0.00     0.310 C 
ATOM      6  C13 NON d   1     -39.338  18.376  -3.639  0.00  0.00     0.053 C 
BRANCH   5   7
ATOM      7  N3  NON d   1     -41.823  18.234  -4.345  0.00  0.00     0.104 N 
ATOM      8  C14 NON d   1     -42.299  17.382  -3.228  0.00  0.00     0.293 C 
ATOM      9  C15 NON d   1     -43.600  16.581  -3.560  0.00  0.00     0.153 C 
ATOM     10  N4  NON d   1     -44.709  17.448  -4.044  0.00  0.00    -0.377 N 
ATOM     11  C23 NON d   1     -44.275  18.432  -5.060  0.00  0.00     0.153 C 
ATOM     12  C24 NON d   1     -42.959  19.137  -4.686  0.00  0.00     0.293 C 
BRANCH  10  13
ATOM     13  C16 NON d   1     -45.975  16.854  -4.268  0.00  0.00     0.030 A 
ATOM     14  C17 NON d   1     -46.315  16.215  -5.471  0.00  0.00     0.029 A 
ATOM     15  C18 NON d   1     -47.575  15.621  -5.678  0.00  0.00     0.003 A 
ATOM     16  C19 NON d   1     -48.535  15.635  -4.678  0.00  0.00     0.016 A 
ATOM     17  C20 NON d   1     -48.244  16.237  -3.454  0.00  0.00     0.050 A 
ATOM     18  C22 NON d   1     -46.967  16.811  -3.263  0.00  0.00     0.045 A 
BRANCH  17  19
ATOM     19  C21 NON d   1     -49.256  16.246  -2.333  0.00  0.00     0.417 C 
ATOM     20  F1  NON d   1     -50.336  17.027  -2.609  0.00  0.00    -0.166 F 
ATOM     21  F2  NON d   1     -49.752  15.005  -2.060  0.00  0.00    -0.166 F 
ATOM     22  F3  NON d   1     -48.752  16.708  -1.154  0.00  0.00    -0.166 F 
ENDBRANCH  17  19
ENDBRANCH  10  13
ENDBRANCH   5   7
ENDBRANCH   2   5
BRANCH   1  23
ATOM     23  C10 NON d   1     -40.428  22.667  -5.406  0.00  0.00     0.080 A 
ATOM     24  C9  NON d   1     -39.940  22.970  -6.732  0.00  0.00     0.021 A 
ATOM     25  C8  NON d   1     -39.696  22.252  -7.929  0.00  0.00     0.040 A 
ATOM     26  C4  NON d   1     -39.617  24.334  -6.750  0.00  0.00     0.045 A 
ATOM     27  C7  NON d   1     -39.074  22.873  -9.016  0.00  0.00     0.035 A 
ATOM     28  C6  NON d   1     -38.712  24.212  -8.966  0.00  0.00     0.026 A 
ATOM     29 Cl1  NON d   1     -38.735  21.959 -10.438  0.00  0.00    -0.084 Cl
ATOM     30  C5  NON d   1     -38.999  24.973  -7.834  0.00  0.00     0.032 A 
ATOM     31  N1  NON d   1     -39.996  24.861  -5.542  0.00  0.00    -0.349 N 
ATOM     32  C3  NON d   1     -40.448  23.870  -4.701  0.00  0.00     0.136 A 
ATOM     33  H4  NON d   1     -39.876  25.821  -5.262  0.00  0.00     0.166 HD
BRANCH  32  34
ATOM     34  C2  NON d   1     -40.726  24.174  -3.317  0.00  0.00     0.312 C 
ATOM     35  O2  NON d   1     -41.156  23.373  -2.495  0.00  0.00    -0.258 OA
BRANCH  34  36
ATOM     36  O1  NON d   1     -40.599  25.512  -3.104  0.00  0.00    -0.321 OA
ATOM     37  C1  NON d   1     -40.686  25.853  -1.724  0.00  0.00     0.213 C 
ENDBRANCH  34  36
ENDBRANCH  32  34
ENDBRANCH   1  23
TORSDOF 7
ENDMDL
MODEL 5
REMARK VINA RESULT:    -8.279      3.483      4.841
REMARK INTER + INTRA:         -12.460
REMARK INTER:                 -10.367
REMARK INTRA:                  -2.093
REMARK CONF_INDEPENDENT:        2.088
REMARK UNBOUND:                -2.093
REMARK  7 active torsions:
REMARK  status: ('A' for Active; 'I' for Inactive)
REMARK    1  A    between atoms: O1_2  and  C2_3 
REMARK    2  A    between atoms: C2_3  and  C3_5 
REMARK    3  A    between atoms: C10_14  and  N2_15 
REMARK       I    between atoms: N2_15  and  C11_16 
REMARK    4  A    between atoms: C12_18  and  C11_16 
REMARK    5  A    between atoms: C12_18  and  N3_20 
REMARK    6  A    between atoms: N4_23  and  C16_24 
REMARK    7  A    between atoms: C20_28  and  C21_29 
ROOT
ATOM      1  N2  NON d   1     -40.480  21.429  -4.074  0.00  0.00    -0.322 N 
ATOM      2  C11 NON d   1     -40.531  20.277  -3.332  0.00  0.00     0.255 C 
ATOM      3  O3  NON d   1     -40.281  20.199  -2.130  0.00  0.00    -0.271 OA
ATOM      4  H8  NON d   1     -40.795  21.327  -5.035  0.00  0.00     0.169 HD
ENDROOT
BRANCH   2   5
ATOM      5  C12 NON d   1     -41.040  19.006  -4.056  0.00  0.00     0.310 C 
ATOM      6  C13 NON d   1     -40.438  18.964  -5.464  0.00  0.00     0.053 C 
BRANCH   5   7
ATOM      7  N3  NON d   1     -42.511  18.720  -3.934  0.00  0.00     0.104 N 
ATOM      8  C14 NON d   1     -43.295  18.914  -5.178  0.00  0.00     0.293 C 
ATOM      9  C15 NON d   1     -44.798  18.506  -5.042  0.00  0.00     0.153 C 
ATOM     10  N4  NON d   1     -44.980  17.116  -4.538  0.00  0.00    -0.377 N 
ATOM     11  C23 NON d   1     -44.115  16.801  -3.382  0.00  0.00     0.153 C 
ATOM     12  C24 NON d   1     -42.664  17.283  -3.569  0.00  0.00     0.293 C 
BRANCH  10  13
ATOM     13  C16 NON d   1     -46.294  16.591  -4.482  0.00  0.00     0.030 A 
ATOM     14  C17 NON d   1     -46.843  15.802  -5.506  0.00  0.00     0.029 A 
ATOM     15  C18 NON d   1     -48.149  15.278  -5.435  0.00  0.00     0.003 A 
ATOM     16  C19 NON d   1     -48.945  15.516  -4.325  0.00  0.00     0.016 A 
ATOM     17  C20 NON d   1     -48.443  16.274  -3.268  0.00  0.00     0.050 A 
ATOM     18  C22 NON d   1     -47.124  16.775  -3.354  0.00  0.00     0.045 A 
BRANCH  17  19
ATOM     19  C21 NON d   1     -49.272  16.530  -2.032  0.00  0.00     0.417 C 
ATOM     20  F1  NON d   1     -49.690  15.380  -1.435  0.00  0.00    -0.166 F 
ATOM     21  F2  NON d   1     -48.591  17.221  -1.073  0.00  0.00    -0.166 F 
ATOM     22  F3  NON d   1     -50.400  17.255  -2.277  0.00  0.00    -0.166 F 
ENDBRANCH  17  19
ENDBRANCH  10  13
ENDBRANCH   5   7
ENDBRANCH   2   5
BRANCH   1  23
ATOM     23  C10 NON d   1     -40.281  22.738  -3.621  0.00  0.00     0.080 A 
ATOM     24  C9  NON d   1     -40.369  23.338  -2.308  0.00  0.00     0.021 A 
ATOM     25  C8  NON d   1     -40.585  22.888  -0.983  0.00  0.00     0.040 A 
ATOM     26  C4  NON d   1     -40.226  24.722  -2.478  0.00  0.00     0.045 A 
ATOM     27  C7  NON d   1     -40.742  23.803   0.062  0.00  0.00     0.035 A 
ATOM     28  C6  NON d   1     -40.658  25.170  -0.163  0.00  0.00     0.026 A 
ATOM     29 Cl1  NON d   1     -41.065  23.228   1.655  0.00  0.00    -0.084 Cl
ATOM     30  C5  NON d   1     -40.374  25.652  -1.440  0.00  0.00     0.032 A 
ATOM     31  N1  NON d   1     -39.949  24.946  -3.802  0.00  0.00    -0.349 N 
ATOM     32  C3  NON d   1     -40.017  23.773  -4.517  0.00  0.00     0.136 A 
ATOM     33  H4  NON d   1     -39.807  25.850  -4.223  0.00  0.00     0.166 HD
BRANCH  32  34
ATOM     34  C2  NON d   1     -39.941  23.805  -5.959  0.00  0.00     0.312 C 
ATOM     35  O2  NON d   1     -40.146  22.847  -6.694  0.00  0.00    -0.258 OA
BRANCH  34  36
ATOM     36  O1  NON d   1     -39.447  25.005  -6.368  0.00  0.00    -0.321 OA
ATOM     37  C1  NON d   1     -39.249  25.059  -7.777  0.00  0.00     0.213 C 
ENDBRANCH  34  36
ENDBRANCH  32  34
ENDBRANCH   1  23
TORSDOF 7
ENDMDL
MODEL 6
REMARK VINA RESULT:    -7.841      2.191      2.767
REMARK INTER + INTRA:         -11.725
REMARK INTER:                  -9.929
REMARK INTRA:                  -1.795
REMARK CONF_INDEPENDENT:        2.088
REMARK UNBOUND:                -1.795
REMARK  7 active torsions:
REMARK  status: ('A' for Active; 'I' for Inactive)
REMARK    1  A    between atoms: O1_2  and  C2_3 
REMARK    2  A    between atoms: C2_3  and  C3_5 
REMARK    3  A    between atoms: C10_14  and  N2_15 
REMARK       I    between atoms: N2_15  and  C11_16 
REMARK    4  A    between atoms: C12_18  and  C11_16 
REMARK    5  A    between atoms: C12_18  and  N3_20 
REMARK    6  A    between atoms: N4_23  and  C16_24 
REMARK    7  A    between atoms: C20_28  and  C21_29 
ROOT
ATOM      1  N2  NON d   1     -40.008  21.659  -4.426  0.00  0.00    -0.322 N 
ATOM      2  C11 NON d   1     -40.668  20.580  -4.956  0.00  0.00     0.255 C 
ATOM      3  O3  NON d   1     -41.068  20.495  -6.116  0.00  0.00    -0.271 OA
ATOM      4  H8  NON d   1     -39.678  21.528  -3.474  0.00  0.00     0.169 HD
ENDROOT
BRANCH   2   5
ATOM      5  C12 NON d   1     -40.821  19.342  -4.038  0.00  0.00     0.310 C 
ATOM      6  C13 NON d   1     -39.447  18.693  -3.846  0.00  0.00     0.053 C 
BRANCH   5   7
ATOM      7  N3  NON d   1     -41.971  18.425  -4.352  0.00  0.00     0.104 N 
ATOM      8  C14 NON d   1     -42.404  17.553  -3.232  0.00  0.00     0.293 C 
ATOM      9  C15 NON d   1     -43.666  16.691  -3.560  0.00  0.00     0.153 C 
ATOM     10  N4  NON d   1     -44.816  17.505  -4.043  0.00  0.00    -0.377 N 
ATOM     11  C23 NON d   1     -44.431  18.506  -5.062  0.00  0.00     0.153 C 
ATOM     12  C24 NON d   1     -43.148  19.273  -4.692  0.00  0.00     0.293 C 
BRANCH  10  13
ATOM     13  C16 NON d   1     -46.053  16.852  -4.263  0.00  0.00     0.030 A 
ATOM     14  C17 NON d   1     -46.336  16.130  -5.435  0.00  0.00     0.029 A 
ATOM     15  C18 NON d   1     -47.567  15.478  -5.639  0.00  0.00     0.003 A 
ATOM     16  C19 NON d   1     -48.555  15.516  -4.666  0.00  0.00     0.016 A 
ATOM     17  C20 NON d   1     -48.320  16.198  -3.473  0.00  0.00     0.050 A 
ATOM     18  C22 NON d   1     -47.070  16.830  -3.284  0.00  0.00     0.045 A 
BRANCH  17  19
ATOM     19  C21 NON d   1     -49.362  16.235  -2.381  0.00  0.00     0.417 C 
ATOM     20  F1  NON d   1     -48.885  16.764  -1.220  0.00  0.00    -0.166 F 
ATOM     21  F2  NON d   1     -50.450  16.988  -2.714  0.00  0.00    -0.166 F 
ATOM     22  F3  NON d   1     -49.852  15.005  -2.058  0.00  0.00    -0.166 F 
ENDBRANCH  17  19
ENDBRANCH  10  13
ENDBRANCH   5   7
ENDBRANCH   2   5
BRANCH   1  23
ATOM     23  C10 NON d   1     -39.540  22.796  -5.095  0.00  0.00     0.080 A 
ATOM     24  C9  NON d   1     -39.933  24.186  -5.045  0.00  0.00     0.021 A 
ATOM     25  C8  NON d   1     -40.834  24.975  -4.289  0.00  0.00     0.040 A 
ATOM     26  C4  NON d   1     -39.223  24.851  -6.055  0.00  0.00     0.045 A 
ATOM     27  C7  NON d   1     -41.055  26.316  -4.618  0.00  0.00     0.035 A 
ATOM     28  C6  NON d   1     -40.376  26.917  -5.669  0.00  0.00     0.026 A 
ATOM     29 Cl1  NON d   1     -42.202  27.235  -3.717  0.00  0.00    -0.084 Cl
ATOM     30  C5  NON d   1     -39.428  26.196  -6.393  0.00  0.00     0.032 A 
ATOM     31  N1  NON d   1     -38.357  23.945  -6.612  0.00  0.00    -0.349 N 
ATOM     32  C3  NON d   1     -38.558  22.692  -6.080  0.00  0.00     0.136 A 
ATOM     33  H4  NON d   1     -37.725  24.136  -7.372  0.00  0.00     0.166 HD
BRANCH  32  34
ATOM     34  C2  NON d   1     -37.881  21.552  -6.653  0.00  0.00     0.312 C 
ATOM     35  O2  NON d   1     -37.788  20.452  -6.122  0.00  0.00    -0.258 OA
BRANCH  34  36
ATOM     36  O1  NON d   1     -37.225  21.926  -7.785  0.00  0.00    -0.321 OA
ATOM     37  C1  NON d   1     -36.600  20.826  -8.439  0.00  0.00     0.213 C 
ENDBRANCH  34  36
ENDBRANCH  32  34
ENDBRANCH   1  23
TORSDOF 7
ENDMDL
MODEL 7
REMARK VINA RESULT:    -7.344      6.213      8.862
REMARK INTER + INTRA:         -11.765
REMARK INTER:                  -9.432
REMARK INTRA:                  -2.333
REMARK CONF_INDEPENDENT:        2.088
REMARK UNBOUND:                -2.333
REMARK  7 active torsions:
REMARK  status: ('A' for Active; 'I' for Inactive)
REMARK    1  A    between atoms: O1_2  and  C2_3 
REMARK    2  A    between atoms: C2_3  and  C3_5 
REMARK    3  A    between atoms: C10_14  and  N2_15 
REMARK       I    between atoms: N2_15  and  C11_16 
REMARK    4  A    between atoms: C12_18  and  C11_16 
REMARK    5  A    between atoms: C12_18  and  N3_20 
REMARK    6  A    between atoms: N4_23  and  C16_24 
REMARK    7  A    between atoms: C20_28  and  C21_29 
ROOT
ATOM      1  N2  NON d   1     -38.423  18.865  -2.583  0.00  0.00    -0.322 N 
ATOM      2  C11 NON d   1     -37.256  19.567  -2.420  0.00  0.00     0.255 C 
ATOM      3  O3  NON d   1     -36.592  20.056  -3.333  0.00  0.00    -0.271 OA
ATOM      4  H8  NON d   1     -38.883  18.602  -1.716  0.00  0.00     0.169 HD
ENDROOT
BRANCH   2   5
ATOM      5  C12 NON d   1     -36.810  19.844  -0.963  0.00  0.00     0.310 C 
ATOM      6  C13 NON d   1     -36.348  18.530  -0.328  0.00  0.00     0.053 C 
BRANCH   5   7
ATOM      7  N3  NON d   1     -37.726  20.712  -0.145  0.00  0.00     0.104 N 
ATOM      8  C14 NON d   1     -37.047  21.745   0.676  0.00  0.00     0.293 C 
ATOM      9  C15 NON d   1     -38.033  22.695   1.429  0.00  0.00     0.153 C 
ATOM     10  N4  NON d   1     -39.026  23.338   0.525  0.00  0.00    -0.377 N 
ATOM     11  C23 NON d   1     -39.640  22.390  -0.430  0.00  0.00     0.153 C 
ATOM     12  C24 NON d   1     -38.612  21.452  -1.088  0.00  0.00     0.293 C 
BRANCH  10  13
ATOM     13  C16 NON d   1     -39.900  24.310   1.071  0.00  0.00     0.030 A 
ATOM     14  C17 NON d   1     -40.560  25.269   0.285  0.00  0.00     0.029 A 
ATOM     15  C18 NON d   1     -41.433  26.225   0.839  0.00  0.00     0.003 A 
ATOM     16  C19 NON d   1     -41.686  26.243   2.202  0.00  0.00     0.016 A 
ATOM     17  C20 NON d   1     -41.075  25.300   3.028  0.00  0.00     0.050 A 
ATOM     18  C22 NON d   1     -40.216  24.340   2.447  0.00  0.00     0.045 A 
BRANCH  17  19
ATOM     19  C21 NON d   1     -41.349  25.273   4.512  0.00  0.00     0.417 C 
ATOM     20  F1  NON d   1     -42.552  25.826   4.833  0.00  0.00    -0.166 F 
ATOM     21  F2  NON d   1     -41.372  24.008   5.022  0.00  0.00    -0.166 F 
ATOM     22  F3  NON d   1     -40.421  25.949   5.247  0.00  0.00    -0.166 F 
ENDBRANCH  17  19
ENDBRANCH  10  13
ENDBRANCH   5   7
ENDBRANCH   2   5
BRANCH   1  23
ATOM     23  C10 NON d   1     -39.159  18.677  -3.759  0.00  0.00     0.080 A 
ATOM     24  C9  NON d   1     -38.798  18.755  -5.156  0.00  0.00     0.021 A 
ATOM     25  C8  NON d   1     -37.611  18.949  -5.904  0.00  0.00     0.040 A 
ATOM     26  C4  NON d   1     -39.983  18.632  -5.895  0.00  0.00     0.045 A 
ATOM     27  C7  NON d   1     -37.662  19.103  -7.293  0.00  0.00     0.035 A 
ATOM     28  C6  NON d   1     -38.867  19.039  -7.977  0.00  0.00     0.026 A 
ATOM     29 Cl1  NON d   1     -36.207  19.398  -8.170  0.00  0.00    -0.084 Cl
ATOM     30  C5  NON d   1     -40.050  18.778  -7.287  0.00  0.00     0.032 A 
ATOM     31  N1  NON d   1     -40.995  18.374  -5.006  0.00  0.00    -0.349 N 
ATOM     32  C3  NON d   1     -40.532  18.437  -3.712  0.00  0.00     0.136 A 
ATOM     33  H4  NON d   1     -41.965  18.250  -5.248  0.00  0.00     0.166 HD
BRANCH  32  34
ATOM     34  C2  NON d   1     -41.465  18.380  -2.611  0.00  0.00     0.312 C 
ATOM     35  O2  NON d   1     -41.152  18.341  -1.427  0.00  0.00    -0.258 OA
BRANCH  34  36
ATOM     36  O1  NON d   1     -42.728  18.207  -3.086  0.00  0.00    -0.321 OA
ATOM     37  C1  NON d   1     -42.955  16.883  -3.559  0.00  0.00     0.213 C 
ENDBRANCH  34  36
ENDBRANCH  32  34
ENDBRANCH   1  23
TORSDOF 7
ENDMDL
MODEL 8
REMARK VINA RESULT:    -7.306      3.366      4.882
REMARK INTER + INTRA:         -11.162
REMARK INTER:                  -9.394
REMARK INTRA:                  -1.769
REMARK CONF_INDEPENDENT:        2.088
REMARK UNBOUND:                -1.769
REMARK  7 active torsions:
REMARK  status: ('A' for Active; 'I' for Inactive)
REMARK    1  A    between atoms: O1_2  and  C2_3 
REMARK    2  A    between atoms: C2_3  and  C3_5 
REMARK    3  A    between atoms: C10_14  and  N2_15 
REMARK       I    between atoms: N2_15  and  C11_16 
REMARK    4  A    between atoms: C12_18  and  C11_16 
REMARK    5  A    between atoms: C12_18  and  N3_20 
REMARK    6  A    between atoms: N4_23  and  C16_24 
REMARK    7  A    between atoms: C20_28  and  C21_29 
ROOT
ATOM      1  N2  NON d   1     -40.074  21.252  -2.495  0.00  0.00    -0.322 N 
ATOM      2  C11 NON d   1     -40.475  20.804  -3.727  0.00  0.00     0.255 C 
ATOM      3  O3  NON d   1     -40.510  21.486  -4.750  0.00  0.00    -0.271 OA
ATOM      4  H8  NON d   1     -40.031  20.534  -1.777  0.00  0.00     0.169 HD
ENDROOT
BRANCH   2   5
ATOM      5  C12 NON d   1     -40.810  19.296  -3.842  0.00  0.00     0.310 C 
ATOM      6  C13 NON d   1     -39.967  18.686  -4.966  0.00  0.00     0.053 C 
BRANCH   5   7
ATOM      7  N3  NON d   1     -42.270  18.939  -3.814  0.00  0.00     0.104 N 
ATOM      8  C14 NON d   1     -42.997  19.162  -5.087  0.00  0.00     0.293 C 
ATOM      9  C15 NON d   1     -44.484  18.681  -5.053  0.00  0.00     0.153 C 
ATOM     10  N4  NON d   1     -44.627  17.261  -4.629  0.00  0.00    -0.377 N 
ATOM     11  C23 NON d   1     -43.808  16.924  -3.445  0.00  0.00     0.153 C 
ATOM     12  C24 NON d   1     -42.375  17.480  -3.530  0.00  0.00     0.293 C 
BRANCH  10  13
ATOM     13  C16 NON d   1     -45.916  16.675  -4.670  0.00  0.00     0.030 A 
ATOM     14  C17 NON d   1     -46.395  15.965  -5.784  0.00  0.00     0.029 A 
ATOM     15  C18 NON d   1     -47.675  15.380  -5.809  0.00  0.00     0.003 A 
ATOM     16  C19 NON d   1     -48.517  15.476  -4.711  0.00  0.00     0.016 A 
ATOM     17  C20 NON d   1     -48.085  16.150  -3.570  0.00  0.00     0.050 A 
ATOM     18  C22 NON d   1     -46.789  16.714  -3.561  0.00  0.00     0.045 A 
BRANCH  17  19
ATOM     19  C21 NON d   1     -48.963  16.249  -2.346  0.00  0.00     0.417 C 
ATOM     20  F1  NON d   1     -49.903  17.228  -2.453  0.00  0.00    -0.166 F 
ATOM     21  F2  NON d   1     -49.651  15.097  -2.095  0.00  0.00    -0.166 F 
ATOM     22  F3  NON d   1     -48.271  16.519  -1.203  0.00  0.00    -0.166 F 
ENDBRANCH  17  19
ENDBRANCH  10  13
ENDBRANCH   5   7
ENDBRANCH   2   5
BRANCH   1  23
ATOM     23  C10 NON d   1     -39.506  22.489  -2.171  0.00  0.00     0.080 A 
ATOM     24  C9  NON d   1     -39.842  23.844  -2.548  0.00  0.00     0.021 A 
ATOM     25  C8  NON d   1     -40.872  24.484  -3.280  0.00  0.00     0.040 A 
ATOM     26  C4  NON d   1     -38.824  24.673  -2.055  0.00  0.00     0.045 A 
ATOM     27  C7  NON d   1     -40.799  25.851  -3.563  0.00  0.00     0.035 A 
ATOM     28  C6  NON d   1     -39.739  26.622  -3.110  0.00  0.00     0.026 A 
ATOM     29 Cl1  NON d   1     -42.037  26.590  -4.508  0.00  0.00    -0.084 Cl
ATOM     30  C5  NON d   1     -38.741  26.046  -2.325  0.00  0.00     0.032 A 
ATOM     31  N1  NON d   1     -37.976  23.887  -1.317  0.00  0.00    -0.349 N 
ATOM     32  C3  NON d   1     -38.342  22.564  -1.406  0.00  0.00     0.136 A 
ATOM     33  H4  NON d   1     -37.144  24.208  -0.850  0.00  0.00     0.166 HD
BRANCH  32  34
ATOM     34  C2  NON d   1     -37.481  21.543  -0.856  0.00  0.00     0.312 C 
ATOM     35  O2  NON d   1     -37.465  20.371  -1.214  0.00  0.00    -0.258 OA
BRANCH  34  36
ATOM     36  O1  NON d   1     -36.814  22.033   0.223  0.00  0.00    -0.321 OA
ATOM     37  C1  NON d   1     -37.457  21.710   1.452  0.00  0.00     0.213 C 
ENDBRANCH  34  36
ENDBRANCH  32  34
ENDBRANCH   1  23
TORSDOF 7
ENDMDL
