MODEL 1
REMARK VINA RESULT:   -16.312      0.000      0.000
REMARK INTER + INTRA:         -19.261
REMARK INTER:                 -18.699
REMARK INTRA:                  -0.563
REMARK CONF_INDEPENDENT:        2.386
REMARK UNBOUND:                -0.563
REMARK  8 active torsions:
REMARK  status: ('A' for Active; 'I' for Inactive)
REMARK    1  A    between atoms: C2_2  and  O1_3 
REMARK    2  A    between atoms: O1_3  and  C3_4 
REMARK    3  A    between atoms: C6_7  and  C5_6 
REMARK    4  A    between atoms: C6_7  and  C7_8 
REMARK    5  A    between atoms: C6_7  and  C11_15 
REMARK    6  A    between atoms: C17_24  and  O4_25 
REMARK    7  A    between atoms: O4_25  and  S1_26 
REMARK    8  A    between atoms: S1_26  and  C18_29 
ROOT
ATOM      1  C3  NON d   1     -42.233  17.497  -3.943  0.00  0.00     0.103 C 
ATOM      2  C4  NON d   1     -41.422  18.592  -4.445  0.00  0.00     0.047 C 
ATOM      3  C5  NON d   1     -41.894  19.629  -5.321  0.00  0.00    -0.042 C 
ATOM      4  C15 NON d   1     -43.242  19.492  -5.681  0.00  0.00     0.011 C 
ATOM      5  C16 NON d   1     -43.975  18.320  -5.434  0.00  0.00     0.041 C 
ATOM      6  C17 NON d   1     -43.469  17.262  -4.655  0.00  0.00     0.123 C 
ENDROOT
BRANCH   3   7
ATOM      7  C6  NON d   1     -41.159  20.968  -5.821  0.00  0.00     0.099 C 
BRANCH   7   8
ATOM      8  C7  NON d   1     -40.563  21.054  -7.311  0.00  0.00     0.050 C 
ATOM      9  C8  NON d   1     -40.193  22.334  -7.990  0.00  0.00     0.270 C 
ATOM     10  O2  NON d   1     -40.064  23.433  -7.468  0.00  0.00    -0.266 OA
ATOM     11  N1  NON d   1     -39.897  22.035  -9.304  0.00  0.00    -0.243 N 
ATOM     12  N2  NON d   1     -39.763  20.637  -9.530  0.00  0.00    -0.176 NA
ATOM     13  H8  NON d   1     -39.514  22.701  -9.954  0.00  0.00     0.192 HD
ATOM     14  C9  NON d   1     -40.174  20.207  -8.325  0.00  0.00     0.063 C 
ATOM     15  C10 NON d   1     -39.687  18.840  -7.810  0.00  0.00     0.073 C 
ENDBRANCH   7   8
BRANCH   7  16
ATOM     16  C11 NON d   1     -40.388  21.825  -4.797  0.00  0.00     0.036 C 
ATOM     17  C12 NON d   1     -40.456  22.957  -4.054  0.00  0.00     0.009 C 
ATOM     18  C13 NON d   1     -41.416  24.091  -4.062  0.00  0.00     0.063 C 
ATOM     19  N3  NON d   1     -39.384  23.131  -3.173  0.00  0.00    -0.223 NA
ATOM     20  N4  NON d   1     -38.522  22.073  -3.400  0.00  0.00    -0.187 NA
ATOM     21  H15 NON d   1     -39.738  23.122  -2.211  0.00  0.00     0.147 HD
ATOM     22  C14 NON d   1     -38.945  21.454  -4.561  0.00  0.00     0.243 C 
ATOM     23  H16 NON d   1     -37.526  22.196  -3.274  0.00  0.00     0.150 HD
ATOM     24  O3  NON d   1     -38.217  20.868  -5.345  0.00  0.00    -0.273 OA
ENDBRANCH   7  16
ENDBRANCH   3   7
BRANCH   1  25
ATOM     25  O1  NON d   1     -41.821  16.748  -2.789  0.00  0.00    -0.349 OA
BRANCH  25  26
ATOM     26  C2  NON d   1     -40.675  17.265  -1.872  0.00  0.00     0.171 C 
ATOM     27  C1  NON d   1     -39.331  17.638  -2.524  0.00  0.00     0.034 C 
ENDBRANCH  25  26
ENDBRANCH   1  25
BRANCH   6  28
ATOM     28  O4  NON d   1     -44.345  16.152  -4.657  0.00  0.00    -0.226 OA
BRANCH  28  29
ATOM     29  S1  NON d   1     -45.865  16.268  -5.384  0.00  0.00     0.303 S 
ATOM     30  O5  NON d   1     -46.096  17.630  -5.832  0.00  0.00    -0.193 OA
ATOM     31  O6  NON d   1     -45.940  15.186  -6.354  0.00  0.00    -0.193 OA
BRANCH  29  32
ATOM     32  C18 NON d   1     -47.396  15.909  -4.227  0.00  0.00     0.086 A 
ATOM     33  C19 NON d   1     -48.426  15.031  -4.621  0.00  0.00     0.026 A 
ATOM     34  C20 NON d   1     -49.767  15.059  -4.021  0.00  0.00     0.008 A 
ATOM     35  C21 NON d   1     -50.180  15.978  -3.022  0.00  0.00    -0.062 A 
ATOM     36  C22 NON d   1     -51.599  16.084  -2.434  0.00  0.00     0.048 C 
ATOM     37  C23 NON d   1     -49.131  16.879  -2.683  0.00  0.00     0.008 A 
ATOM     38  C24 NON d   1     -47.789  16.860  -3.265  0.00  0.00     0.026 A 
ENDBRANCH  29  32
ENDBRANCH  28  29
ENDBRANCH   6  28
TORSDOF 8
ENDMDL
MODEL 2
REMARK VINA RESULT:   -15.282      2.065      3.077
REMARK INTER + INTRA:         -19.466
REMARK INTER:                 -17.669
REMARK INTRA:                  -1.797
REMARK CONF_INDEPENDENT:        2.386
REMARK UNBOUND:                -1.797
REMARK  8 active torsions:
REMARK  status: ('A' for Active; 'I' for Inactive)
REMARK    1  A    between atoms: C2_2  and  O1_3 
REMARK    2  A    between atoms: O1_3  and  C3_4 
REMARK    3  A    between atoms: C6_7  and  C5_6 
REMARK    4  A    between atoms: C6_7  and  C7_8 
REMARK    5  A    between atoms: C6_7  and  C11_15 
REMARK    6  A    between atoms: C17_24  and  O4_25 
REMARK    7  A    between atoms: O4_25  and  S1_26 
REMARK    8  A    between atoms: S1_26  and  C18_29 
ROOT
ATOM      1  C3  NON d   1     -41.822  17.854  -4.171  0.00  0.00     0.103 C 
ATOM      2  C4  NON d   1     -40.667  18.244  -4.960  0.00  0.00     0.047 C 
ATOM      3  C5  NON d   1     -40.568  19.456  -5.727  0.00  0.00    -0.042 C 
ATOM      4  C15 NON d   1     -41.717  20.257  -5.667  0.00  0.00     0.011 C 
ATOM      5  C16 NON d   1     -42.933  19.795  -5.139  0.00  0.00     0.041 C 
ATOM      6  C17 NON d   1     -43.048  18.560  -4.474  0.00  0.00     0.123 C 
ENDROOT
BRANCH   3   7
ATOM      7  C6  NON d   1     -39.309  20.078  -6.508  0.00  0.00     0.099 C 
BRANCH   7   8
ATOM      8  C7  NON d   1     -39.523  21.268  -7.568  0.00  0.00     0.050 C 
ATOM      9  C8  NON d   1     -40.313  21.130  -8.830  0.00  0.00     0.270 C 
ATOM     10  O2  NON d   1     -41.077  20.221  -9.124  0.00  0.00    -0.266 OA
ATOM     11  N1  NON d   1     -40.123  22.283  -9.565  0.00  0.00    -0.243 N 
ATOM     12  N2  NON d   1     -39.499  23.316  -8.811  0.00  0.00    -0.176 NA
ATOM     13  H8  NON d   1     -40.629  22.495 -10.408  0.00  0.00     0.192 HD
ATOM     14  C9  NON d   1     -39.209  22.601  -7.709  0.00  0.00     0.063 C 
ATOM     15  C10 NON d   1     -39.061  23.330  -6.361  0.00  0.00     0.073 C 
ENDBRANCH   7   8
BRANCH   7  16
ATOM     16  C11 NON d   1     -38.107  19.169  -6.837  0.00  0.00     0.036 C 
ATOM     17  C12 NON d   1     -37.106  18.445  -6.278  0.00  0.00     0.009 C 
ATOM     18  C13 NON d   1     -36.602  18.362  -4.883  0.00  0.00     0.063 C 
ATOM     19  N3  NON d   1     -36.357  17.700  -7.194  0.00  0.00    -0.223 NA
ATOM     20  N4  NON d   1     -36.861  18.006  -8.445  0.00  0.00    -0.187 NA
ATOM     21  H15 NON d   1     -36.467  16.703  -6.983  0.00  0.00     0.147 HD
ATOM     22  C14 NON d   1     -37.694  19.097  -8.286  0.00  0.00     0.243 C 
ATOM     23  H16 NON d   1     -36.252  18.001  -9.252  0.00  0.00     0.150 HD
ATOM     24  O3  NON d   1     -37.899  19.950  -9.134  0.00  0.00    -0.273 OA
ENDBRANCH   7  16
ENDBRANCH   3   7
BRANCH   1  25
ATOM     25  O1  NON d   1     -41.706  16.861  -3.141  0.00  0.00    -0.349 OA
BRANCH  25  26
ATOM     26  C2  NON d   1     -40.689  17.038  -1.976  0.00  0.00     0.171 C 
ATOM     27  C1  NON d   1     -39.303  17.624  -2.301  0.00  0.00     0.034 C 
ENDBRANCH  25  26
ENDBRANCH   1  25
BRANCH   6  28
ATOM     28  O4  NON d   1     -44.393  18.271  -4.145  0.00  0.00    -0.226 OA
BRANCH  28  29
ATOM     29  S1  NON d   1     -45.306  17.240  -5.122  0.00  0.00     0.303 S 
ATOM     30  O5  NON d   1     -45.941  18.000  -6.184  0.00  0.00    -0.193 OA
ATOM     31  O6  NON d   1     -44.435  16.130  -5.474  0.00  0.00    -0.193 OA
BRANCH  29  32
ATOM     32  C18 NON d   1     -46.807  16.345  -4.251  0.00  0.00     0.086 A 
ATOM     33  C19 NON d   1     -47.692  15.520  -4.976  0.00  0.00     0.026 A 
ATOM     34  C20 NON d   1     -49.042  15.189  -4.498  0.00  0.00     0.008 A 
ATOM     35  C21 NON d   1     -49.609  15.682  -3.294  0.00  0.00    -0.062 A 
ATOM     36  C22 NON d   1     -51.047  15.419  -2.809  0.00  0.00     0.048 C 
ATOM     37  C23 NON d   1     -48.707  16.548  -2.613  0.00  0.00     0.008 A 
ATOM     38  C24 NON d   1     -47.358  16.881  -3.072  0.00  0.00     0.026 A 
ENDBRANCH  29  32
ENDBRANCH  28  29
ENDBRANCH   6  28
TORSDOF 8
ENDMDL
MODEL 3
REMARK VINA RESULT:   -15.112      1.937      2.894
REMARK INTER + INTRA:         -19.597
REMARK INTER:                 -17.498
REMARK INTRA:                  -2.099
REMARK CONF_INDEPENDENT:        2.386
REMARK UNBOUND:                -2.099
REMARK  8 active torsions:
REMARK  status: ('A' for Active; 'I' for Inactive)
REMARK    1  A    between atoms: C2_2  and  O1_3 
REMARK    2  A    between atoms: O1_3  and  C3_4 
REMARK    3  A    between atoms: C6_7  and  C5_6 
REMARK    4  A    between atoms: C6_7  and  C7_8 
REMARK    5  A    between atoms: C6_7  and  C11_15 
REMARK    6  A    between atoms: C17_24  and  O4_25 
REMARK    7  A    between atoms: O4_25  and  S1_26 
REMARK    8  A    between atoms: S1_26  and  C18_29 
ROOT
ATOM      1  C3  NON d   1     -42.364  18.000  -4.113  0.00  0.00     0.103 C 
ATOM      2  C4  NON d   1     -41.229  18.285  -4.973  0.00  0.00     0.047 C 
ATOM      3  C5  NON d   1     -41.240  19.220  -6.064  0.00  0.00    -0.042 C 
ATOM      4  C15 NON d   1     -42.478  19.850  -6.254  0.00  0.00     0.011 C 
ATOM      5  C16 NON d   1     -43.654  19.411  -5.623  0.00  0.00     0.041 C 
ATOM      6  C17 NON d   1     -43.650  18.422  -4.622  0.00  0.00     0.123 C 
ENDROOT
BRANCH   3   7
ATOM      7  C6  NON d   1     -40.030  19.742  -6.985  0.00  0.00     0.099 C 
BRANCH   7   8
ATOM      8  C7  NON d   1     -38.588  19.038  -6.899  0.00  0.00     0.050 C 
ATOM      9  C8  NON d   1     -37.988  18.227  -8.003  0.00  0.00     0.270 C 
ATOM     10  O2  NON d   1     -38.365  18.173  -9.165  0.00  0.00    -0.266 OA
ATOM     11  N1  NON d   1     -36.843  17.637  -7.507  0.00  0.00    -0.243 N 
ATOM     12  N2  NON d   1     -36.448  18.177  -6.251  0.00  0.00    -0.176 NA
ATOM     13  H8  NON d   1     -36.190  17.124  -8.075  0.00  0.00     0.192 HD
ATOM     14  C9  NON d   1     -37.527  18.948  -6.026  0.00  0.00     0.063 C 
ATOM     15  C10 NON d   1     -37.388  20.185  -5.121  0.00  0.00     0.073 C 
ENDBRANCH   7   8
BRANCH   7  16
ATOM     16  C11 NON d   1     -39.966  21.237  -7.360  0.00  0.00     0.036 C 
ATOM     17  C12 NON d   1     -39.721  22.092  -8.383  0.00  0.00     0.009 C 
ATOM     18  C13 NON d   1     -39.172  21.876  -9.746  0.00  0.00     0.063 C 
ATOM     19  N3  NON d   1     -39.953  23.437  -8.074  0.00  0.00    -0.223 NA
ATOM     20  N4  NON d   1     -40.311  23.470  -6.739  0.00  0.00    -0.187 NA
ATOM     21  H15 NON d   1     -40.707  23.791  -8.671  0.00  0.00     0.147 HD
ATOM     22  C14 NON d   1     -40.036  22.220  -6.218  0.00  0.00     0.243 C 
ATOM     23  H16 NON d   1     -40.075  24.273  -6.171  0.00  0.00     0.150 HD
ATOM     24  O3  NON d   1     -39.720  21.999  -5.060  0.00  0.00    -0.273 OA
ENDBRANCH   7  16
ENDBRANCH   3   7
BRANCH   1  25
ATOM     25  O1  NON d   1     -42.177  17.376  -2.833  0.00  0.00    -0.349 OA
BRANCH  25  26
ATOM     26  C2  NON d   1     -41.020  17.822  -1.892  0.00  0.00     0.171 C 
ATOM     27  C1  NON d   1     -40.066  18.927  -2.383  0.00  0.00     0.034 C 
ENDBRANCH  25  26
ENDBRANCH   1  25
BRANCH   6  28
ATOM     28  O4  NON d   1     -44.964  18.073  -4.233  0.00  0.00    -0.226 OA
BRANCH  28  29
ATOM     29  S1  NON d   1     -45.936  17.143  -5.254  0.00  0.00     0.303 S 
ATOM     30  O5  NON d   1     -46.642  18.006  -6.185  0.00  0.00    -0.193 OA
ATOM     31  O6  NON d   1     -45.086  16.087  -5.781  0.00  0.00    -0.193 OA
BRANCH  29  32
ATOM     32  C18 NON d   1     -47.372  16.143  -4.390  0.00  0.00     0.086 A 
ATOM     33  C19 NON d   1     -48.284  15.371  -5.138  0.00  0.00     0.026 A 
ATOM     34  C20 NON d   1     -49.600  14.972  -4.620  0.00  0.00     0.008 A 
ATOM     35  C21 NON d   1     -50.106  15.340  -3.347  0.00  0.00    -0.062 A 
ATOM     36  C22 NON d   1     -51.510  15.005  -2.810  0.00  0.00     0.048 C 
ATOM     37  C23 NON d   1     -49.179  16.157  -2.638  0.00  0.00     0.008 A 
ATOM     38  C24 NON d   1     -47.864  16.557  -3.137  0.00  0.00     0.026 A 
ENDBRANCH  29  32
ENDBRANCH  28  29
ENDBRANCH   6  28
TORSDOF 8
ENDMDL
