MODEL 1
REMARK VINA RESULT:   -14.483      0.000      0.000
REMARK INTER + INTRA:         -19.508
REMARK INTER:                 -17.167
REMARK INTRA:                  -2.340
REMARK CONF_INDEPENDENT:        2.685
REMARK UNBOUND:                -2.340
REMARK  9 active torsions:
REMARK  status: ('A' for Active; 'I' for Inactive)
REMARK    1  A    between atoms: S1_2  and  C2_3 
REMARK    2  A    between atoms: C2_3  and  C3_4 
REMARK    3  A    between atoms: C4_5  and  C3_4 
REMARK    4  A    between atoms: C4_5  and  N1_6 
REMARK    5  A    between atoms: C4_5  and  C15_18 
REMARK       I    between atoms: N1_6  and  C5_7 
REMARK    6  A    between atoms: C5_7  and  C6_9 
REMARK    7  A    between atoms: C6_9  and  C7_10 
REMARK    8  A    between atoms: C7_10  and  C8_11 
REMARK    9  A    between atoms: C8_11  and  C9_12 
REMARK       I    between atoms: C15_18  and  N2_20 
ROOT
ATOM      1  C15 NON d   1     -42.630  17.525  -3.583  0.00  0.00     0.222 C 
ATOM      2  O2  NON d   1     -42.801  16.372  -3.187  0.00  0.00    -0.277 OA
ATOM      3  N2  NON d   1     -41.372  18.177  -3.350  0.00  0.00    -0.252 NA
ATOM      4  C16 NON d   1     -40.236  17.255  -3.184  0.00  0.00     0.101 C 
ATOM      5  C17 NON d   1     -38.891  17.873  -2.678  0.00  0.00     0.060 C 
ATOM      6  C18 NON d   1     -38.837  19.407  -2.801  0.00  0.00     0.171 C 
ATOM      7  C19 NON d   1     -40.106  19.521  -1.685  0.00  0.00     0.060 C 
ATOM      8  C20 NON d   1     -41.440  19.234  -2.364  0.00  0.00     0.101 C 
ATOM      9  N3  NON d   1     -37.489  19.413  -1.654  0.00  0.00    -0.060 N 
ATOM     10  C21 NON d   1     -36.238  20.084  -2.151  0.00  0.00     0.240 C 
ATOM     11  C22 NON d   1     -36.450  21.586  -2.115  0.00  0.00     0.089 C 
ATOM     12  C23 NON d   1     -37.785  21.871  -2.672  0.00  0.00     0.062 C 
ATOM     13  N4  NON d   1     -38.152  23.126  -3.046  0.00  0.00    -0.246 NA
ATOM     14  C24 NON d   1     -39.308  22.985  -3.645  0.00  0.00     0.207 C 
ATOM     15  N5  NON d   1     -39.698  21.676  -3.666  0.00  0.00    -0.350 N 
ATOM     16  C25 NON d   1     -38.784  20.941  -2.924  0.00  0.00     0.071 C 
ATOM     17  H29 NON d   1     -37.230  18.469  -1.344  0.00  0.00     0.278 HD
ATOM     18  H30 NON d   1     -37.822  19.901  -0.809  0.00  0.00     0.278 HD
ATOM     19  H36 NON d   1     -40.511  21.335  -4.162  0.00  0.00     0.166 HD
ENDROOT
BRANCH   1  20
ATOM     20  C4  NON d   1     -43.690  18.222  -4.521  0.00  0.00     0.171 C 
BRANCH  20  21
ATOM     21  C3  NON d   1     -44.660  17.370  -5.353  0.00  0.00     0.044 C 
BRANCH  21  22
ATOM     22  C2  NON d   1     -45.746  16.522  -4.674  0.00  0.00     0.076 C 
BRANCH  22  23
ATOM     23  S1  NON d   1     -47.397  16.455  -5.435  0.00  0.00    -0.173 SA
ATOM     24  C1  NON d   1     -48.430  16.414  -3.939  0.00  0.00     0.089 C 
ENDBRANCH  22  23
ENDBRANCH  21  22
ENDBRANCH  20  21
BRANCH  20  25
ATOM     25  N1  NON d   1     -43.086  19.265  -5.367  0.00  0.00    -0.348 N 
ATOM     26  C5  NON d   1     -41.855  19.088  -5.966  0.00  0.00     0.218 C 
ATOM     27  O1  NON d   1     -41.286  18.000  -5.982  0.00  0.00    -0.274 OA
ATOM     28  H9  NON d   1     -43.484  20.195  -5.323  0.00  0.00     0.163 HD
BRANCH  26  29
ATOM     29  C6  NON d   1     -41.257  20.318  -6.630  0.00  0.00     0.103 C 
BRANCH  29  30
ATOM     30  C7  NON d   1     -41.119  20.268  -8.160  0.00  0.00     0.014 C 
BRANCH  30  31
ATOM     31  C8  NON d   1     -39.689  20.136  -8.722  0.00  0.00     0.039 C 
BRANCH  31  32
ATOM     32  C9  NON d   1     -38.581  19.625  -7.822  0.00  0.00    -0.058 A 
ATOM     33  C10 NON d   1     -38.213  20.247  -6.628  0.00  0.00     0.007 A 
ATOM     34  C11 NON d   1     -37.175  19.746  -5.837  0.00  0.00     0.001 A 
ATOM     35  C12 NON d   1     -36.473  18.617  -6.241  0.00  0.00     0.000 A 
ATOM     36  C13 NON d   1     -36.803  17.997  -7.442  0.00  0.00     0.001 A 
ATOM     37  C14 NON d   1     -37.845  18.500  -8.229  0.00  0.00     0.007 A 
ENDBRANCH  31  32
ENDBRANCH  30  31
ENDBRANCH  29  30
ENDBRANCH  26  29
ENDBRANCH  20  25
ENDBRANCH   1  20
TORSDOF 9
ENDMDL
MODEL 2
REMARK VINA RESULT:   -14.344      2.855      5.937
REMARK INTER + INTRA:         -19.147
REMARK INTER:                 -17.028
REMARK INTRA:                  -2.119
REMARK CONF_INDEPENDENT:        2.685
REMARK UNBOUND:                -2.119
REMARK  9 active torsions:
REMARK  status: ('A' for Active; 'I' for Inactive)
REMARK    1  A    between atoms: S1_2  and  C2_3 
REMARK    2  A    between atoms: C2_3  and  C3_4 
REMARK    3  A    between atoms: C4_5  and  C3_4 
REMARK    4  A    between atoms: C4_5  and  N1_6 
REMARK    5  A    between atoms: C4_5  and  C15_18 
REMARK       I    between atoms: N1_6  and  C5_7 
REMARK    6  A    between atoms: C5_7  and  C6_9 
REMARK    7  A    between atoms: C6_9  and  C7_10 
REMARK    8  A    between atoms: C7_10  and  C8_11 
REMARK    9  A    between atoms: C8_11  and  C9_12 
REMARK       I    between atoms: C15_18  and  N2_20 
ROOT
ATOM      1  C15 NON d   1     -41.042  18.113  -6.075  0.00  0.00     0.222 C 
ATOM      2  O2  NON d   1     -40.690  17.293  -6.924  0.00  0.00    -0.277 OA
ATOM      3  N2  NON d   1     -40.803  19.511  -6.296  0.00  0.00    -0.252 NA
ATOM      4  C16 NON d   1     -40.691  19.888  -7.715  0.00  0.00     0.101 C 
ATOM      5  C17 NON d   1     -40.181  21.334  -8.025  0.00  0.00     0.060 C 
ATOM      6  C18 NON d   1     -40.244  22.279  -6.810  0.00  0.00     0.171 C 
ATOM      7  C19 NON d   1     -39.105  21.306  -6.020  0.00  0.00     0.060 C 
ATOM      8  C20 NON d   1     -39.775  20.066  -5.442  0.00  0.00     0.101 C 
ATOM      9  N3  NON d   1     -39.118  23.362  -7.643  0.00  0.00    -0.060 N 
ATOM     10  C21 NON d   1     -39.607  24.774  -7.814  0.00  0.00     0.240 C 
ATOM     11  C22 NON d   1     -39.509  25.483  -6.477  0.00  0.00     0.089 C 
ATOM     12  C23 NON d   1     -40.033  24.576  -5.440  0.00  0.00     0.062 C 
ATOM     13  N4  NON d   1     -40.352  25.019  -4.195  0.00  0.00    -0.246 NA
ATOM     14  C24 NON d   1     -40.938  24.007  -3.606  0.00  0.00     0.207 C 
ATOM     15  N5  NON d   1     -41.005  22.924  -4.435  0.00  0.00    -0.350 N 
ATOM     16  C25 NON d   1     -40.307  23.224  -5.596  0.00  0.00     0.071 C 
ATOM     17  H29 NON d   1     -38.850  23.014  -8.571  0.00  0.00     0.278 HD
ATOM     18  H30 NON d   1     -38.250  23.370  -7.088  0.00  0.00     0.278 HD
ATOM     19  H36 NON d   1     -41.502  22.070  -4.213  0.00  0.00     0.166 HD
ENDROOT
BRANCH   1  20
ATOM     20  C4  NON d   1     -41.935  17.673  -4.851  0.00  0.00     0.171 C 
BRANCH  20  21
ATOM     21  C3  NON d   1     -43.412  18.091  -4.785  0.00  0.00     0.044 C 
BRANCH  21  22
ATOM     22  C2  NON d   1     -44.495  17.089  -4.355  0.00  0.00     0.076 C 
BRANCH  22  23
ATOM     23  S1  NON d   1     -45.940  16.858  -5.435  0.00  0.00    -0.173 SA
ATOM     24  C1  NON d   1     -47.154  16.273  -4.214  0.00  0.00     0.089 C 
ENDBRANCH  22  23
ENDBRANCH  21  22
ENDBRANCH  20  21
BRANCH  20  25
ATOM     25  N1  NON d   1     -41.280  17.941  -3.559  0.00  0.00    -0.348 N 
ATOM     26  C5  NON d   1     -41.162  19.221  -3.058  0.00  0.00     0.218 C 
ATOM     27  O1  NON d   1     -41.749  20.176  -3.560  0.00  0.00    -0.274 OA
ATOM     28  H9  NON d   1     -40.725  17.198  -3.151  0.00  0.00     0.163 HD
BRANCH  26  29
ATOM     29  C6  NON d   1     -40.281  19.375  -1.829  0.00  0.00     0.103 C 
BRANCH  29  30
ATOM     30  C7  NON d   1     -39.870  20.809  -1.458  0.00  0.00     0.014 C 
BRANCH  30  31
ATOM     31  C8  NON d   1     -39.941  21.184   0.035  0.00  0.00     0.039 C 
BRANCH  31  32
ATOM     32  C9  NON d   1     -40.334  22.594   0.430  0.00  0.00    -0.058 A 
ATOM     33  C10 NON d   1     -40.075  23.139   1.689  0.00  0.00     0.007 A 
ATOM     34  C11 NON d   1     -40.469  24.442   2.011  0.00  0.00     0.001 A 
ATOM     35  C12 NON d   1     -41.147  25.216   1.079  0.00  0.00     0.000 A 
ATOM     36  C13 NON d   1     -41.441  24.684  -0.172  0.00  0.00     0.001 A 
ATOM     37  C14 NON d   1     -41.043  23.381  -0.492  0.00  0.00     0.007 A 
ENDBRANCH  31  32
ENDBRANCH  30  31
ENDBRANCH  29  30
ENDBRANCH  26  29
ENDBRANCH  20  25
ENDBRANCH   1  20
TORSDOF 9
ENDMDL
MODEL 3
REMARK VINA RESULT:   -14.161      1.929      2.820
REMARK INTER + INTRA:         -19.580
REMARK INTER:                 -16.845
REMARK INTRA:                  -2.735
REMARK CONF_INDEPENDENT:        2.685
REMARK UNBOUND:                -2.735
REMARK  9 active torsions:
REMARK  status: ('A' for Active; 'I' for Inactive)
REMARK    1  A    between atoms: S1_2  and  C2_3 
REMARK    2  A    between atoms: C2_3  and  C3_4 
REMARK    3  A    between atoms: C4_5  and  C3_4 
REMARK    4  A    between atoms: C4_5  and  N1_6 
REMARK    5  A    between atoms: C4_5  and  C15_18 
REMARK       I    between atoms: N1_6  and  C5_7 
REMARK    6  A    between atoms: C5_7  and  C6_9 
REMARK    7  A    between atoms: C6_9  and  C7_10 
REMARK    8  A    between atoms: C7_10  and  C8_11 
REMARK    9  A    between atoms: C8_11  and  C9_12 
REMARK       I    between atoms: C15_18  and  N2_20 
ROOT
ATOM      1  C15 NON d   1     -41.821  18.527  -3.403  0.00  0.00     0.222 C 
ATOM      2  O2  NON d   1     -42.194  18.004  -2.351  0.00  0.00    -0.277 OA
ATOM      3  N2  NON d   1     -40.699  19.423  -3.391  0.00  0.00    -0.252 NA
ATOM      4  C16 NON d   1     -39.760  19.200  -2.279  0.00  0.00     0.101 C 
ATOM      5  C17 NON d   1     -38.659  20.288  -2.054  0.00  0.00     0.060 C 
ATOM      6  C18 NON d   1     -38.472  21.228  -3.259  0.00  0.00     0.171 C 
ATOM      7  C19 NON d   1     -40.052  21.796  -3.035  0.00  0.00     0.060 C 
ATOM      8  C20 NON d   1     -41.059  20.807  -3.608  0.00  0.00     0.101 C 
ATOM      9  N3  NON d   1     -37.639  22.368  -2.191  0.00  0.00    -0.060 N 
ATOM     10  C21 NON d   1     -36.255  22.755  -2.635  0.00  0.00     0.240 C 
ATOM     11  C22 NON d   1     -36.374  23.725  -3.796  0.00  0.00     0.089 C 
ATOM     12  C23 NON d   1     -37.394  23.201  -4.723  0.00  0.00     0.062 C 
ATOM     13  N4  NON d   1     -37.523  23.678  -5.990  0.00  0.00    -0.246 NA
ATOM     14  C24 NON d   1     -38.386  22.885  -6.574  0.00  0.00     0.207 C 
ATOM     15  N5  NON d   1     -38.819  21.911  -5.719  0.00  0.00    -0.350 N 
ATOM     16  C25 NON d   1     -38.285  22.169  -4.464  0.00  0.00     0.071 C 
ATOM     17  H29 NON d   1     -37.569  22.025  -1.226  0.00  0.00     0.278 HD
ATOM     18  H30 NON d   1     -38.228  23.213  -2.143  0.00  0.00     0.278 HD
ATOM     19  H36 NON d   1     -39.413  21.139  -5.994  0.00  0.00     0.166 HD
ENDROOT
BRANCH   1  20
ATOM     20  C4  NON d   1     -42.421  18.069  -4.788  0.00  0.00     0.171 C 
BRANCH  20  21
ATOM     21  C3  NON d   1     -43.484  16.961  -4.840  0.00  0.00     0.044 C 
BRANCH  21  22
ATOM     22  C2  NON d   1     -44.940  17.248  -4.442  0.00  0.00     0.076 C 
BRANCH  22  23
ATOM     23  S1  NON d   1     -46.271  16.505  -5.435  0.00  0.00    -0.173 SA
ATOM     24  C1  NON d   1     -47.470  16.130  -4.120  0.00  0.00     0.089 C 
ENDBRANCH  22  23
ENDBRANCH  21  22
ENDBRANCH  20  21
BRANCH  20  25
ATOM     25  N1  NON d   1     -41.373  17.806  -5.789  0.00  0.00    -0.348 N 
ATOM     26  C5  NON d   1     -40.832  18.819  -6.555  0.00  0.00     0.218 C 
ATOM     27  O1  NON d   1     -41.053  20.004  -6.321  0.00  0.00    -0.274 OA
ATOM     28  H9  NON d   1     -41.214  16.843  -6.061  0.00  0.00     0.163 HD
BRANCH  26  29
ATOM     29  C6  NON d   1     -39.921  18.380  -7.690  0.00  0.00     0.103 C 
BRANCH  29  30
ATOM     30  C7  NON d   1     -38.439  18.761  -7.563  0.00  0.00     0.014 C 
BRANCH  30  31
ATOM     31  C8  NON d   1     -37.772  19.375  -8.810  0.00  0.00     0.039 C 
BRANCH  31  32
ATOM     32  C9  NON d   1     -38.267  20.707  -9.338  0.00  0.00    -0.058 A 
ATOM     33  C10 NON d   1     -39.521  21.236  -9.030  0.00  0.00     0.007 A 
ATOM     34  C11 NON d   1     -39.940  22.464  -9.552  0.00  0.00     0.001 A 
ATOM     35  C12 NON d   1     -39.110  23.177 -10.408  0.00  0.00     0.000 A 
ATOM     36  C13 NON d   1     -37.867  22.656 -10.751  0.00  0.00     0.001 A 
ATOM     37  C14 NON d   1     -37.451  21.428 -10.225  0.00  0.00     0.007 A 
ENDBRANCH  31  32
ENDBRANCH  30  31
ENDBRANCH  29  30
ENDBRANCH  26  29
ENDBRANCH  20  25
ENDBRANCH   1  20
TORSDOF 9
ENDMDL
MODEL 4
REMARK VINA RESULT:   -13.851      1.275      1.695
REMARK INTER + INTRA:         -19.898
REMARK INTER:                 -16.535
REMARK INTRA:                  -3.363
REMARK CONF_INDEPENDENT:        2.685
REMARK UNBOUND:                -3.363
REMARK  9 active torsions:
REMARK  status: ('A' for Active; 'I' for Inactive)
REMARK    1  A    between atoms: S1_2  and  C2_3 
REMARK    2  A    between atoms: C2_3  and  C3_4 
REMARK    3  A    between atoms: C4_5  and  C3_4 
REMARK    4  A    between atoms: C4_5  and  N1_6 
REMARK    5  A    between atoms: C4_5  and  C15_18 
REMARK       I    between atoms: N1_6  and  C5_7 
REMARK    6  A    between atoms: C5_7  and  C6_9 
REMARK    7  A    between atoms: C6_9  and  C7_10 
REMARK    8  A    between atoms: C7_10  and  C8_11 
REMARK    9  A    between atoms: C8_11  and  C9_12 
REMARK       I    between atoms: C15_18  and  N2_20 
ROOT
ATOM      1  C15 NON d   1     -41.220  17.758  -3.374  0.00  0.00     0.222 C 
ATOM      2  O2  NON d   1     -41.073  16.684  -2.790  0.00  0.00    -0.277 OA
ATOM      3  N2  NON d   1     -40.270  18.815  -3.169  0.00  0.00    -0.252 NA
ATOM      4  C16 NON d   1     -38.935  18.354  -2.752  0.00  0.00     0.101 C 
ATOM      5  C17 NON d   1     -37.929  19.448  -2.265  0.00  0.00     0.060 C 
ATOM      6  C18 NON d   1     -38.341  20.878  -2.661  0.00  0.00     0.171 C 
ATOM      7  C19 NON d   1     -39.717  20.730  -1.684  0.00  0.00     0.060 C 
ATOM      8  C20 NON d   1     -40.793  19.923  -2.399  0.00  0.00     0.101 C 
ATOM      9  N3  NON d   1     -37.225  21.497  -1.435  0.00  0.00    -0.060 N 
ATOM     10  C21 NON d   1     -36.192  22.462  -1.949  0.00  0.00     0.240 C 
ATOM     11  C22 NON d   1     -36.864  23.798  -2.203  0.00  0.00     0.089 C 
ATOM     12  C23 NON d   1     -38.136  23.542  -2.902  0.00  0.00     0.062 C 
ATOM     13  N4  NON d   1     -38.824  24.536  -3.525  0.00  0.00    -0.246 NA
ATOM     14  C24 NON d   1     -39.789  23.935  -4.175  0.00  0.00     0.207 C 
ATOM     15  N5  NON d   1     -39.745  22.583  -3.987  0.00  0.00    -0.350 N 
ATOM     16  C25 NON d   1     -38.753  22.308  -3.056  0.00  0.00     0.071 C 
ATOM     17  H29 NON d   1     -36.727  20.748  -0.940  0.00  0.00     0.278 HD
ATOM     18  H30 NON d   1     -37.801  21.967  -0.721  0.00  0.00     0.278 HD
ATOM     19  H36 NON d   1     -40.339  21.923  -4.474  0.00  0.00     0.166 HD
ENDROOT
BRANCH   1  20
ATOM     20  C4  NON d   1     -42.312  17.919  -4.501  0.00  0.00     0.171 C 
BRANCH  20  21
ATOM     21  C3  NON d   1     -43.336  16.801  -4.749  0.00  0.00     0.044 C 
BRANCH  21  22
ATOM     22  C2  NON d   1     -44.799  16.961  -4.308  0.00  0.00     0.076 C 
BRANCH  22  23
ATOM     23  S1  NON d   1     -46.111  16.397  -5.435  0.00  0.00    -0.173 SA
ATOM     24  C1  NON d   1     -47.492  16.252  -4.261  0.00  0.00     0.089 C 
ENDBRANCH  22  23
ENDBRANCH  21  22
ENDBRANCH  20  21
BRANCH  20  25
ATOM     25  N1  NON d   1     -41.731  18.359  -5.781  0.00  0.00    -0.348 N 
ATOM     26  C5  NON d   1     -41.440  19.686  -6.027  0.00  0.00     0.218 C 
ATOM     27  O1  NON d   1     -41.473  20.537  -5.142  0.00  0.00    -0.274 OA
ATOM     28  H9  NON d   1     -41.753  17.708  -6.556  0.00  0.00     0.163 HD
BRANCH  26  29
ATOM     29  C6  NON d   1     -41.049  20.027  -7.456  0.00  0.00     0.103 C 
BRANCH  29  30
ATOM     30  C7  NON d   1     -40.267  21.335  -7.655  0.00  0.00     0.014 C 
BRANCH  30  31
ATOM     31  C8  NON d   1     -38.890  21.430  -6.968  0.00  0.00     0.039 C 
BRANCH  31  32
ATOM     32  C9  NON d   1     -37.975  20.222  -6.965  0.00  0.00    -0.058 A 
ATOM     33  C10 NON d   1     -37.700  19.465  -8.106  0.00  0.00     0.007 A 
ATOM     34  C11 NON d   1     -36.859  18.349  -8.052  0.00  0.00     0.001 A 
ATOM     35  C12 NON d   1     -36.291  17.962  -6.844  0.00  0.00     0.000 A 
ATOM     36  C13 NON d   1     -36.574  18.684  -5.690  0.00  0.00     0.001 A 
ATOM     37  C14 NON d   1     -37.413  19.802  -5.748  0.00  0.00     0.007 A 
ENDBRANCH  31  32
ENDBRANCH  30  31
ENDBRANCH  29  30
ENDBRANCH  26  29
ENDBRANCH  20  25
ENDBRANCH   1  20
TORSDOF 9
ENDMDL
MODEL 5
REMARK VINA RESULT:   -13.773      2.310      5.246
REMARK INTER + INTRA:         -19.246
REMARK INTER:                 -16.458
REMARK INTRA:                  -2.788
REMARK CONF_INDEPENDENT:        2.685
REMARK UNBOUND:                -2.788
REMARK  9 active torsions:
REMARK  status: ('A' for Active; 'I' for Inactive)
REMARK    1  A    between atoms: S1_2  and  C2_3 
REMARK    2  A    between atoms: C2_3  and  C3_4 
REMARK    3  A    between atoms: C4_5  and  C3_4 
REMARK    4  A    between atoms: C4_5  and  N1_6 
REMARK    5  A    between atoms: C4_5  and  C15_18 
REMARK       I    between atoms: N1_6  and  C5_7 
REMARK    6  A    between atoms: C5_7  and  C6_9 
REMARK    7  A    between atoms: C6_9  and  C7_10 
REMARK    8  A    between atoms: C7_10  and  C8_11 
REMARK    9  A    between atoms: C8_11  and  C9_12 
REMARK       I    between atoms: C15_18  and  N2_20 
ROOT
ATOM      1  C15 NON d   1     -42.416  19.075  -4.892  0.00  0.00     0.222 C 
ATOM      2  O2  NON d   1     -43.405  19.780  -4.688  0.00  0.00    -0.277 OA
ATOM      3  N2  NON d   1     -41.268  19.634  -5.549  0.00  0.00    -0.252 NA
ATOM      4  C16 NON d   1     -41.143  21.095  -5.406  0.00  0.00     0.101 C 
ATOM      5  C17 NON d   1     -40.071  21.804  -6.298  0.00  0.00     0.060 C 
ATOM      6  C18 NON d   1     -39.040  20.834  -6.904  0.00  0.00     0.171 C 
ATOM      7  C19 NON d   1     -40.283  20.094  -7.784  0.00  0.00     0.060 C 
ATOM      8  C20 NON d   1     -41.072  19.141  -6.895  0.00  0.00     0.101 C 
ATOM      9  N3  NON d   1     -38.609  22.087  -8.077  0.00  0.00    -0.060 N 
ATOM     10  C21 NON d   1     -37.151  22.457  -8.100  0.00  0.00     0.240 C 
ATOM     11  C22 NON d   1     -36.383  21.351  -8.798  0.00  0.00     0.089 C 
ATOM     12  C23 NON d   1     -36.872  20.060  -8.280  0.00  0.00     0.062 C 
ATOM     13  N4  NON d   1     -36.190  18.902  -8.486  0.00  0.00    -0.246 NA
ATOM     14  C24 NON d   1     -36.803  18.004  -7.755  0.00  0.00     0.207 C 
ATOM     15  N5  NON d   1     -37.861  18.550  -7.087  0.00  0.00    -0.350 N 
ATOM     16  C25 NON d   1     -38.009  19.864  -7.509  0.00  0.00     0.071 C 
ATOM     17  H29 NON d   1     -39.144  22.952  -7.945  0.00  0.00     0.278 HD
ATOM     18  H30 NON d   1     -38.881  21.730  -9.005  0.00  0.00     0.278 HD
ATOM     19  H36 NON d   1     -38.411  18.056  -6.395  0.00  0.00     0.166 HD
ENDROOT
BRANCH   1  20
ATOM     20  C4  NON d   1     -42.309  17.633  -4.261  0.00  0.00     0.171 C 
BRANCH  20  21
ATOM     21  C3  NON d   1     -43.579  16.880  -3.839  0.00  0.00     0.044 C 
BRANCH  21  22
ATOM     22  C2  NON d   1     -44.972  17.415  -4.209  0.00  0.00     0.076 C 
BRANCH  22  23
ATOM     23  S1  NON d   1     -45.955  16.500  -5.435  0.00  0.00    -0.173 SA
ATOM     24  C1  NON d   1     -47.437  16.142  -4.444  0.00  0.00     0.089 C 
ENDBRANCH  22  23
ENDBRANCH  21  22
ENDBRANCH  20  21
BRANCH  20  25
ATOM     25  N1  NON d   1     -41.307  17.569  -3.183  0.00  0.00    -0.348 N 
ATOM     26  C5  NON d   1     -39.962  17.748  -3.433  0.00  0.00     0.218 C 
ATOM     27  O1  NON d   1     -39.546  18.148  -4.517  0.00  0.00    -0.274 OA
ATOM     28  H9  NON d   1     -41.596  17.175  -2.296  0.00  0.00     0.163 HD
BRANCH  26  29
ATOM     29  C6  NON d   1     -39.025  17.445  -2.275  0.00  0.00     0.103 C 
BRANCH  29  30
ATOM     30  C7  NON d   1     -37.585  17.965  -2.408  0.00  0.00     0.014 C 
BRANCH  30  31
ATOM     31  C8  NON d   1     -37.417  19.467  -2.718  0.00  0.00     0.039 C 
BRANCH  31  32
ATOM     32  C9  NON d   1     -38.326  20.472  -2.039  0.00  0.00    -0.058 A 
ATOM     33  C10 NON d   1     -39.513  20.940  -2.606  0.00  0.00     0.007 A 
ATOM     34  C11 NON d   1     -40.313  21.879  -1.947  0.00  0.00     0.001 A 
ATOM     35  C12 NON d   1     -39.926  22.378  -0.710  0.00  0.00     0.000 A 
ATOM     36  C13 NON d   1     -38.733  21.947  -0.137  0.00  0.00     0.001 A 
ATOM     37  C14 NON d   1     -37.937  21.006  -0.799  0.00  0.00     0.007 A 
ENDBRANCH  31  32
ENDBRANCH  30  31
ENDBRANCH  29  30
ENDBRANCH  26  29
ENDBRANCH  20  25
ENDBRANCH   1  20
TORSDOF 9
ENDMDL
MODEL 6
REMARK VINA RESULT:   -13.373      1.571      2.150
REMARK INTER + INTRA:         -19.804
REMARK INTER:                 -16.058
REMARK INTRA:                  -3.746
REMARK CONF_INDEPENDENT:        2.685
REMARK UNBOUND:                -3.746
REMARK  9 active torsions:
REMARK  status: ('A' for Active; 'I' for Inactive)
REMARK    1  A    between atoms: S1_2  and  C2_3 
REMARK    2  A    between atoms: C2_3  and  C3_4 
REMARK    3  A    between atoms: C4_5  and  C3_4 
REMARK    4  A    between atoms: C4_5  and  N1_6 
REMARK    5  A    between atoms: C4_5  and  C15_18 
REMARK       I    between atoms: N1_6  and  C5_7 
REMARK    6  A    between atoms: C5_7  and  C6_9 
REMARK    7  A    between atoms: C6_9  and  C7_10 
REMARK    8  A    between atoms: C7_10  and  C8_11 
REMARK    9  A    between atoms: C8_11  and  C9_12 
REMARK       I    between atoms: C15_18  and  N2_20 
ROOT
ATOM      1  C15 NON d   1     -41.142  17.807  -3.117  0.00  0.00     0.222 C 
ATOM      2  O2  NON d   1     -40.868  16.697  -2.657  0.00  0.00    -0.277 OA
ATOM      3  N2  NON d   1     -40.223  18.895  -2.940  0.00  0.00    -0.252 NA
ATOM      4  C16 NON d   1     -38.824  18.478  -2.743  0.00  0.00     0.101 C 
ATOM      5  C17 NON d   1     -37.813  19.584  -2.293  0.00  0.00     0.060 C 
ATOM      6  C18 NON d   1     -38.340  21.016  -2.500  0.00  0.00     0.171 C 
ATOM      7  C19 NON d   1     -39.565  20.707  -1.372  0.00  0.00     0.060 C 
ATOM      8  C20 NON d   1     -40.688  19.903  -2.013  0.00  0.00     0.101 C 
ATOM      9  N3  NON d   1     -37.100  21.593  -1.377  0.00  0.00    -0.060 N 
ATOM     10  C21 NON d   1     -36.190  22.656  -1.930  0.00  0.00     0.240 C 
ATOM     11  C22 NON d   1     -36.951  23.968  -1.973  0.00  0.00     0.089 C 
ATOM     12  C23 NON d   1     -38.293  23.698  -2.522  0.00  0.00     0.062 C 
ATOM     13  N4  NON d   1     -39.102  24.700  -2.958  0.00  0.00    -0.246 NA
ATOM     14  C24 NON d   1     -40.117  24.101  -3.530  0.00  0.00     0.207 C 
ATOM     15  N5  NON d   1     -39.986  22.743  -3.473  0.00  0.00    -0.350 N 
ATOM     16  C25 NON d   1     -38.867  22.448  -2.707  0.00  0.00     0.071 C 
ATOM     17  H29 NON d   1     -36.507  20.835  -1.021  0.00  0.00     0.278 HD
ATOM     18  H30 NON d   1     -37.596  21.968  -0.555  0.00  0.00     0.278 HD
ATOM     19  H36 NON d   1     -40.608  22.093  -3.937  0.00  0.00     0.166 HD
ENDROOT
BRANCH   1  20
ATOM     20  C4  NON d   1     -42.381  17.999  -4.075  0.00  0.00     0.171 C 
BRANCH  20  21
ATOM     21  C3  NON d   1     -43.427  16.883  -4.216  0.00  0.00     0.044 C 
BRANCH  21  22
ATOM     22  C2  NON d   1     -44.929  17.198  -4.152  0.00  0.00     0.076 C 
BRANCH  22  23
ATOM     23  S1  NON d   1     -46.016  16.505  -5.435  0.00  0.00    -0.173 SA
ATOM     24  C1  NON d   1     -47.461  16.071  -4.420  0.00  0.00     0.089 C 
ENDBRANCH  22  23
ENDBRANCH  21  22
ENDBRANCH  20  21
BRANCH  20  25
ATOM     25  N1  NON d   1     -41.985  18.487  -5.407  0.00  0.00    -0.348 N 
ATOM     26  C5  NON d   1     -41.633  19.804  -5.621  0.00  0.00     0.218 C 
ATOM     27  O1  NON d   1     -41.451  20.590  -4.695  0.00  0.00    -0.274 OA
ATOM     28  H9  NON d   1     -42.187  17.895  -6.204  0.00  0.00     0.163 HD
BRANCH  26  29
ATOM     29  C6  NON d   1     -41.456  20.218  -7.073  0.00  0.00     0.103 C 
BRANCH  29  30
ATOM     30  C7  NON d   1     -40.307  19.544  -7.839  0.00  0.00     0.014 C 
BRANCH  30  31
ATOM     31  C8  NON d   1     -38.954  19.440  -7.107  0.00  0.00     0.039 C 
BRANCH  31  32
ATOM     32  C9  NON d   1     -38.269  20.704  -6.628  0.00  0.00    -0.058 A 
ATOM     33  C10 NON d   1     -37.153  20.702  -5.789  0.00  0.00     0.007 A 
ATOM     34  C11 NON d   1     -36.562  21.895  -5.362  0.00  0.00     0.001 A 
ATOM     35  C12 NON d   1     -37.093  23.117  -5.758  0.00  0.00     0.000 A 
ATOM     36  C13 NON d   1     -38.221  23.144  -6.572  0.00  0.00     0.001 A 
ATOM     37  C14 NON d   1     -38.808  21.947  -6.998  0.00  0.00     0.007 A 
ENDBRANCH  31  32
ENDBRANCH  30  31
ENDBRANCH  29  30
ENDBRANCH  26  29
ENDBRANCH  20  25
ENDBRANCH   1  20
TORSDOF 9
ENDMDL
MODEL 7
REMARK VINA RESULT:   -13.005      1.876      3.013
REMARK INTER + INTRA:         -19.516
REMARK INTER:                 -15.689
REMARK INTRA:                  -3.827
REMARK CONF_INDEPENDENT:        2.685
REMARK UNBOUND:                -3.827
REMARK  9 active torsions:
REMARK  status: ('A' for Active; 'I' for Inactive)
REMARK    1  A    between atoms: S1_2  and  C2_3 
REMARK    2  A    between atoms: C2_3  and  C3_4 
REMARK    3  A    between atoms: C4_5  and  C3_4 
REMARK    4  A    between atoms: C4_5  and  N1_6 
REMARK    5  A    between atoms: C4_5  and  C15_18 
REMARK       I    between atoms: N1_6  and  C5_7 
REMARK    6  A    between atoms: C5_7  and  C6_9 
REMARK    7  A    between atoms: C6_9  and  C7_10 
REMARK    8  A    between atoms: C7_10  and  C8_11 
REMARK    9  A    between atoms: C8_11  and  C9_12 
REMARK       I    between atoms: C15_18  and  N2_20 
ROOT
ATOM      1  C15 NON d   1     -41.741  18.960  -3.644  0.00  0.00     0.222 C 
ATOM      2  O2  NON d   1     -42.032  18.444  -2.564  0.00  0.00    -0.277 OA
ATOM      3  N2  NON d   1     -40.830  20.068  -3.679  0.00  0.00    -0.252 NA
ATOM      4  C16 NON d   1     -39.901  20.123  -2.538  0.00  0.00     0.101 C 
ATOM      5  C17 NON d   1     -39.057  21.430  -2.374  0.00  0.00     0.060 C 
ATOM      6  C18 NON d   1     -39.030  22.303  -3.642  0.00  0.00     0.171 C 
ATOM      7  C19 NON d   1     -40.699  22.543  -3.489  0.00  0.00     0.060 C 
ATOM      8  C20 NON d   1     -41.461  21.328  -4.004  0.00  0.00     0.101 C 
ATOM      9  N3  NON d   1     -38.486  23.662  -2.647  0.00  0.00    -0.060 N 
ATOM     10  C21 NON d   1     -37.198  24.298  -3.094  0.00  0.00     0.240 C 
ATOM     11  C22 NON d   1     -37.477  25.139  -4.325  0.00  0.00     0.089 C 
ATOM     12  C23 NON d   1     -38.336  24.352  -5.229  0.00  0.00     0.062 C 
ATOM     13  N4  NON d   1     -38.519  24.703  -6.529  0.00  0.00    -0.246 NA
ATOM     14  C24 NON d   1     -39.179  23.709  -7.068  0.00  0.00     0.207 C 
ATOM     15  N5  NON d   1     -39.429  22.728  -6.152  0.00  0.00    -0.350 N 
ATOM     16  C25 NON d   1     -39.002  23.177  -4.910  0.00  0.00     0.071 C 
ATOM     17  H29 NON d   1     -38.377  23.409  -1.658  0.00  0.00     0.278 HD
ATOM     18  H30 NON d   1     -39.237  24.367  -2.672  0.00  0.00     0.278 HD
ATOM     19  H36 NON d   1     -39.842  21.832  -6.379  0.00  0.00     0.166 HD
ENDROOT
BRANCH   1  20
ATOM     20  C4  NON d   1     -42.188  18.293  -5.002  0.00  0.00     0.171 C 
BRANCH  20  21
ATOM     21  C3  NON d   1     -43.183  17.122  -4.996  0.00  0.00     0.044 C 
BRANCH  21  22
ATOM     22  C2  NON d   1     -44.629  17.320  -4.514  0.00  0.00     0.076 C 
BRANCH  22  23
ATOM     23  S1  NON d   1     -45.969  16.505  -5.435  0.00  0.00    -0.173 SA
ATOM     24  C1  NON d   1     -47.173  16.269  -4.093  0.00  0.00     0.089 C 
ENDBRANCH  22  23
ENDBRANCH  21  22
ENDBRANCH  20  21
BRANCH  20  25
ATOM     25  N1  NON d   1     -41.042  17.971  -5.868  0.00  0.00    -0.348 N 
ATOM     26  C5  NON d   1     -40.515  18.896  -6.747  0.00  0.00     0.218 C 
ATOM     27  O1  NON d   1     -40.845  20.079  -6.725  0.00  0.00    -0.274 OA
ATOM     28  H9  NON d   1     -40.787  16.996  -5.968  0.00  0.00     0.163 HD
BRANCH  26  29
ATOM     29  C6  NON d   1     -39.480  18.368  -7.727  0.00  0.00     0.103 C 
BRANCH  29  30
ATOM     30  C7  NON d   1     -38.197  19.201  -7.880  0.00  0.00     0.014 C 
BRANCH  30  31
ATOM     31  C8  NON d   1     -37.878  20.194  -6.745  0.00  0.00     0.039 C 
BRANCH  31  32
ATOM     32  C9  NON d   1     -37.430  19.664  -5.397  0.00  0.00    -0.058 A 
ATOM     33  C10 NON d   1     -37.822  18.424  -4.891  0.00  0.00     0.007 A 
ATOM     34  C11 NON d   1     -37.393  17.982  -3.636  0.00  0.00     0.001 A 
ATOM     35  C12 NON d   1     -36.574  18.789  -2.855  0.00  0.00     0.000 A 
ATOM     36  C13 NON d   1     -36.194  20.042  -3.327  0.00  0.00     0.001 A 
ATOM     37  C14 NON d   1     -36.623  20.478  -4.585  0.00  0.00     0.007 A 
ENDBRANCH  31  32
ENDBRANCH  30  31
ENDBRANCH  29  30
ENDBRANCH  26  29
ENDBRANCH  20  25
ENDBRANCH   1  20
TORSDOF 9
ENDMDL
