MODEL 1
REMARK VINA RESULT:   -28.693      0.000      0.000
REMARK INTER + INTRA:         -31.602
REMARK INTER:                 -30.184
REMARK INTRA:                  -1.417
REMARK CONF_INDEPENDENT:        1.492
REMARK UNBOUND:                -1.417
REMARK  5 active torsions:
REMARK  status: ('A' for Active; 'I' for Inactive)
REMARK    1  A    between atoms: O1_2  and  C2_3 
REMARK    2  A    between atoms: C5_6  and  N1_7 
REMARK       I    between atoms: N1_7  and  C6_8 
REMARK    3  A    between atoms: C6_8  and  C7_10 
REMARK    4  A    between atoms: C13_16  and  N2_17 
REMARK       I    between atoms: N2_17  and  C14_18 
REMARK    5  A    between atoms: C14_18  and  C15_20 
ROOT
ATOM      1  C7  NON d   1     -42.101  18.385  -3.440  0.00  0.00     0.059 A 
ATOM      2  C8  NON d   1     -42.119  18.006  -2.083  0.00  0.00     0.019 A 
ATOM      3  C9  NON d   1     -41.092  18.362  -1.221  0.00  0.00     0.002 A 
ATOM      4  C10 NON d   1     -40.001  19.052  -1.723  0.00  0.00     0.009 A 
ATOM      5  C11 NON d   1     -39.930  19.418  -3.082  0.00  0.00    -0.034 A 
ATOM      6  C12 NON d   1     -38.602  19.985  -3.525  0.00  0.00     0.050 C 
ATOM      7  C13 NON d   1     -41.029  19.158  -3.947  0.00  0.00     0.056 A 
ENDROOT
BRANCH   1   8
ATOM      8  C6  NON d   1     -43.270  17.873  -4.211  0.00  0.00     0.258 C 
ATOM      9  N1  NON d   1     -44.435  17.578  -3.525  0.00  0.00    -0.322 N 
ATOM     10  H6  NON d   1     -44.469  17.788  -2.536  0.00  0.00     0.169 HD
ATOM     11  O2  NON d   1     -43.132  17.745  -5.425  0.00  0.00    -0.267 OA
BRANCH   9  12
ATOM     12  C5  NON d   1     -45.575  16.960  -4.111  0.00  0.00     0.052 A 
ATOM     13  C4  NON d   1     -46.362  16.132  -3.315  0.00  0.00     0.035 A 
ATOM     14  C3  NON d   1     -47.509  15.546  -3.857  0.00  0.00     0.060 A 
ATOM     15  C2  NON d   1     -47.811  15.748  -5.198  0.00  0.00     0.163 A 
ATOM     16  N4  NON d   1     -47.065  16.505  -6.017  0.00  0.00    -0.235 NA
ATOM     17  C20 NON d   1     -45.974  17.104  -5.448  0.00  0.00     0.149 A 
BRANCH  15  18
ATOM     18  O1  NON d   1     -48.994  15.199  -5.632  0.00  0.00    -0.339 OA
ATOM     19  C1  NON d   1     -49.868  14.593  -4.519  0.00  0.00     0.211 C 
ENDBRANCH  15  18
ENDBRANCH   9  12
ENDBRANCH   1   8
BRANCH   7  20
ATOM     20  N2  NON d   1     -41.024  19.583  -5.306  0.00  0.00    -0.322 N 
ATOM     21  C14 NON d   1     -40.659  20.860  -5.705  0.00  0.00     0.256 C 
ATOM     22  O3  NON d   1     -40.467  21.816  -4.961  0.00  0.00    -0.267 OA
ATOM     23  H13 NON d   1     -41.385  18.932  -5.993  0.00  0.00     0.169 HD
BRANCH  21  24
ATOM     24  C15 NON d   1     -40.508  21.102  -7.159  0.00  0.00     0.035 A 
ATOM     25  C16 NON d   1     -40.089  22.326  -7.667  0.00  0.00     0.036 A 
ATOM     26  C17 NON d   1     -39.908  22.421  -9.036  0.00  0.00     0.117 A 
ATOM     27  N3  NON d   1     -40.127  21.405  -9.898  0.00  0.00    -0.273 NA
ATOM     28  C18 NON d   1     -40.530  20.227  -9.376  0.00  0.00     0.117 A 
ATOM     29  C19 NON d   1     -40.728  20.025  -8.024  0.00  0.00     0.036 A 
ENDBRANCH  21  24
ENDBRANCH   7  20
TORSDOF 5
ENDMDL
MODEL 2
REMARK VINA RESULT:   -26.340      1.977      7.777
REMARK INTER + INTRA:         -29.042
REMARK INTER:                 -27.832
REMARK INTRA:                  -1.210
REMARK CONF_INDEPENDENT:        1.492
REMARK UNBOUND:                -1.210
REMARK  5 active torsions:
REMARK  status: ('A' for Active; 'I' for Inactive)
REMARK    1  A    between atoms: O1_2  and  C2_3 
REMARK    2  A    between atoms: C5_6  and  N1_7 
REMARK       I    between atoms: N1_7  and  C6_8 
REMARK    3  A    between atoms: C6_8  and  C7_10 
REMARK    4  A    between atoms: C13_16  and  N2_17 
REMARK       I    between atoms: N2_17  and  C14_18 
REMARK    5  A    between atoms: C14_18  and  C15_20 
ROOT
ATOM      1  C7  NON d   1     -40.396  19.697  -4.767  0.00  0.00     0.059 A 
ATOM      2  C8  NON d   1     -39.152  20.026  -4.193  0.00  0.00     0.019 A 
ATOM      3  C9  NON d   1     -38.864  19.722  -2.871  0.00  0.00     0.002 A 
ATOM      4  C10 NON d   1     -39.845  19.136  -2.086  0.00  0.00     0.009 A 
ATOM      5  C11 NON d   1     -41.114  18.824  -2.614  0.00  0.00    -0.034 A 
ATOM      6  C12 NON d   1     -42.139  18.378  -1.598  0.00  0.00     0.050 C 
ATOM      7  C13 NON d   1     -41.378  19.028  -3.997  0.00  0.00     0.056 A 
ENDROOT
BRANCH   1   8
ATOM      8  C6  NON d   1     -40.529  20.142  -6.184  0.00  0.00     0.258 C 
ATOM      9  N1  NON d   1     -39.511  20.898  -6.736  0.00  0.00    -0.322 N 
ATOM     10  H6  NON d   1     -38.682  21.059  -6.178  0.00  0.00     0.169 HD
ATOM     11  O2  NON d   1     -41.546  19.806  -6.786  0.00  0.00    -0.267 OA
BRANCH   9  12
ATOM     12  C5  NON d   1     -39.568  21.499  -8.025  0.00  0.00     0.052 A 
ATOM     13  C4  NON d   1     -39.749  22.876  -8.106  0.00  0.00     0.035 A 
ATOM     14  C3  NON d   1     -39.768  23.495  -9.359  0.00  0.00     0.060 A 
ATOM     15  C2  NON d   1     -39.668  22.717 -10.506  0.00  0.00     0.163 A 
ATOM     16  N4  NON d   1     -39.530  21.383 -10.484  0.00  0.00    -0.235 NA
ATOM     17  C20 NON d   1     -39.468  20.810  -9.242  0.00  0.00     0.149 A 
BRANCH  15  18
ATOM     18  O1  NON d   1     -39.619  23.409 -11.693  0.00  0.00    -0.339 OA
ATOM     19  C1  NON d   1     -40.693  24.501 -11.844  0.00  0.00     0.211 C 
ENDBRANCH  15  18
ENDBRANCH   9  12
ENDBRANCH   1   8
BRANCH   7  20
ATOM     20  N2  NON d   1     -42.622  18.652  -4.581  0.00  0.00    -0.322 N 
ATOM     21  C14 NON d   1     -43.325  17.515  -4.211  0.00  0.00     0.256 C 
ATOM     22  O3  NON d   1     -42.908  16.618  -3.486  0.00  0.00    -0.267 OA
ATOM     23  H13 NON d   1     -42.952  19.210  -5.358  0.00  0.00     0.169 HD
BRANCH  21  24
ATOM     24  C15 NON d   1     -44.693  17.355  -4.756  0.00  0.00     0.035 A 
ATOM     25  C16 NON d   1     -45.215  18.216  -5.714  0.00  0.00     0.036 A 
ATOM     26  C17 NON d   1     -46.475  17.931  -6.211  0.00  0.00     0.117 A 
ATOM     27  N3  NON d   1     -47.224  16.880  -5.810  0.00  0.00    -0.273 NA
ATOM     28  C18 NON d   1     -46.690  16.059  -4.881  0.00  0.00     0.117 A 
ATOM     29  C19 NON d   1     -45.437  16.249  -4.333  0.00  0.00     0.036 A 
ENDBRANCH  21  24
ENDBRANCH   7  20
TORSDOF 5
ENDMDL
