MODEL 1
REMARK VINA RESULT:   -27.027      0.000      0.000
REMARK INTER + INTRA:         -30.967
REMARK INTER:                 -29.712
REMARK INTRA:                  -1.255
REMARK CONF_INDEPENDENT:        2.685
REMARK UNBOUND:                -1.255
REMARK  9 active torsions:
REMARK  status: ('A' for Active; 'I' for Inactive)
REMARK    1  A    between atoms: C2_2  and  C3_3 
REMARK    2  A    between atoms: C2_2  and  N9_31 
REMARK    3  A    between atoms: C4_6  and  S1_7 
REMARK    4  A    between atoms: S1_7  and  C5_8 
REMARK    5  A    between atoms: C5_8  and  C6_9 
REMARK    6  A    between atoms: C7_11  and  N4_12 
REMARK    7  A    between atoms: C8_14  and  N6_15 
REMARK    8  A    between atoms: N6_15  and  C9_16 
REMARK    9  A    between atoms: N8_23  and  C15_24 
ROOT
ATOM      1  S1  NON d   1     -42.464  17.395  -4.412  0.00  0.00    -0.082 SA
ENDROOT
BRANCH   1   2
ATOM      2  C4  NON d   1     -41.100  18.085  -3.587  0.00  0.00     0.196 C 
ATOM      3  N2  NON d   1     -40.808  17.989  -2.308  0.00  0.00    -0.122 NA
ATOM      4  N1  NON d   1     -39.532  18.489  -2.109  0.00  0.00    -0.131 NA
ATOM      5  C3  NON d   1     -39.046  18.903  -3.274  0.00  0.00     0.158 C 
ATOM      6  N8  NON d   1     -40.161  18.908  -4.193  0.00  0.00    -0.274 N 
BRANCH   5   7
ATOM      7  C2  NON d   1     -37.406  18.797  -3.741  0.00  0.00     0.146 C 
ATOM      8  C1  NON d   1     -36.795  17.433  -4.115  0.00  0.00     0.040 C 
BRANCH   7   9
ATOM      9  N9  NON d   1     -37.035  20.054  -4.548  0.00  0.00    -0.410 N 
ATOM     10  C21 NON d   1     -36.440  19.930  -5.848  0.00  0.00     0.143 C 
ATOM     11  C22 NON d   1     -37.415  21.358  -4.079  0.00  0.00     0.143 C 
ENDBRANCH   7   9
ENDBRANCH   5   7
BRANCH   6  12
ATOM     12  C15 NON d   1     -40.246  19.550  -5.484  0.00  0.00     0.043 A 
ATOM     13  C16 NON d   1     -40.057  18.833  -6.680  0.00  0.00     0.033 A 
ATOM     14  C17 NON d   1     -39.980  19.511  -7.905  0.00  0.00     0.044 A 
ATOM     15  C18 NON d   1     -40.075  20.894  -7.932  0.00  0.00     0.116 A 
ATOM     16  F1  NON d   1     -39.956  21.541  -9.097  0.00  0.00    -0.206 F 
ATOM     17  C19 NON d   1     -40.261  21.620  -6.759  0.00  0.00     0.044 A 
ATOM     18  C20 NON d   1     -40.352  20.951  -5.533  0.00  0.00     0.033 A 
ENDBRANCH   6  12
ENDBRANCH   1   2
BRANCH   1  19
ATOM     19  C5  NON d   1     -43.941  18.127  -3.685  0.00  0.00     0.163 C 
BRANCH  19  20
ATOM     20  C6  NON d   1     -45.231  17.344  -3.741  0.00  0.00     0.158 A 
ATOM     21  N3  NON d   1     -45.680  16.974  -4.942  0.00  0.00    -0.201 NA
ATOM     22  C7  NON d   1     -46.920  16.508  -4.960  0.00  0.00     0.219 A 
ATOM     23  N5  NON d   1     -47.733  16.454  -3.917  0.00  0.00    -0.031 NA
ATOM     24  C8  NON d   1     -47.207  16.844  -2.762  0.00  0.00     0.731 A 
ATOM     25  N7  NON d   1     -45.953  17.250  -2.632  0.00  0.00    -0.046 NA
BRANCH  22  26
ATOM     26  N4  NON d   1     -47.439  16.131  -6.184  0.00  0.00    -0.270 NA
ATOM     27  H7  NON d   1     -48.425  15.928  -6.086  0.00  0.00     0.127 HD
ATOM     28  H8  NON d   1     -47.175  16.792  -6.900  0.00  0.00     0.127 HD
ENDBRANCH  22  26
BRANCH  24  29
ATOM     29  N6  NON d   1     -47.937  16.900  -1.577  0.00  0.00    -0.188 N 
ATOM     30  H9  NON d   1     -47.295  17.227  -0.861  0.00  0.00     0.184 HD
BRANCH  29  31
ATOM     31  C9  NON d   1     -49.288  17.146  -1.305  0.00  0.00     0.049 A 
ATOM     32  C10 NON d   1     -49.753  17.840  -0.187  0.00  0.00     0.030 A 
ATOM     33  C11 NON d   1     -51.120  18.067   0.004  0.00  0.00     0.002 A 
ATOM     34  C12 NON d   1     -52.047  17.621  -0.935  0.00  0.00     0.000 A 
ATOM     35  C13 NON d   1     -51.604  16.960  -2.073  0.00  0.00     0.002 A 
ATOM     36  C14 NON d   1     -50.239  16.737  -2.256  0.00  0.00     0.030 A 
ENDBRANCH  29  31
ENDBRANCH  24  29
ENDBRANCH  19  20
ENDBRANCH   1  19
TORSDOF 9
ENDMDL
MODEL 2
REMARK VINA RESULT:   -26.677      2.197      3.303
REMARK INTER + INTRA:         -30.529
REMARK INTER:                 -29.361
REMARK INTRA:                  -1.168
REMARK CONF_INDEPENDENT:        2.685
REMARK UNBOUND:                -1.168
REMARK  9 active torsions:
REMARK  status: ('A' for Active; 'I' for Inactive)
REMARK    1  A    between atoms: C2_2  and  C3_3 
REMARK    2  A    between atoms: C2_2  and  N9_31 
REMARK    3  A    between atoms: C4_6  and  S1_7 
REMARK    4  A    between atoms: S1_7  and  C5_8 
REMARK    5  A    between atoms: C5_8  and  C6_9 
REMARK    6  A    between atoms: C7_11  and  N4_12 
REMARK    7  A    between atoms: C8_14  and  N6_15 
REMARK    8  A    between atoms: N6_15  and  C9_16 
REMARK    9  A    between atoms: N8_23  and  C15_24 
ROOT
ATOM      1  S1  NON d   1     -43.488  19.168  -5.045  0.00  0.00    -0.082 SA
ENDROOT
BRANCH   1   2
ATOM      2  C4  NON d   1     -41.837  18.852  -5.484  0.00  0.00     0.196 C 
ATOM      3  N2  NON d   1     -41.376  17.839  -6.184  0.00  0.00    -0.122 NA
ATOM      4  N1  NON d   1     -40.049  18.084  -6.493  0.00  0.00    -0.131 NA
ATOM      5  C3  NON d   1     -39.694  19.252  -5.969  0.00  0.00     0.158 C 
ATOM      6  N8  NON d   1     -40.762  19.627  -5.071  0.00  0.00    -0.274 N 
BRANCH   5   7
ATOM      7  C2  NON d   1     -38.597  20.349  -6.683  0.00  0.00     0.146 C 
ATOM      8  C1  NON d   1     -37.102  20.298  -6.314  0.00  0.00     0.040 C 
BRANCH   7   9
ATOM      9  N9  NON d   1     -39.021  20.600  -8.141  0.00  0.00    -0.410 N 
ATOM     10  C21 NON d   1     -40.350  21.048  -8.442  0.00  0.00     0.143 C 
ATOM     11  C22 NON d   1     -38.053  20.534  -9.202  0.00  0.00     0.143 C 
ENDBRANCH   7   9
ENDBRANCH   5   7
BRANCH   6  12
ATOM     12  C15 NON d   1     -40.742  20.638  -4.039  0.00  0.00     0.043 A 
ATOM     13  C16 NON d   1     -41.214  21.943  -4.274  0.00  0.00     0.033 A 
ATOM     14  C17 NON d   1     -41.029  22.945  -3.311  0.00  0.00     0.044 A 
ATOM     15  C18 NON d   1     -40.364  22.648  -2.130  0.00  0.00     0.116 A 
ATOM     16  F1  NON d   1     -40.149  23.617  -1.232  0.00  0.00    -0.206 F 
ATOM     17  C19 NON d   1     -39.889  21.364  -1.882  0.00  0.00     0.044 A 
ATOM     18  C20 NON d   1     -40.080  20.355  -2.832  0.00  0.00     0.033 A 
ENDBRANCH   6  12
ENDBRANCH   1   2
BRANCH   1  19
ATOM     19  C5  NON d   1     -43.891  18.054  -3.688  0.00  0.00     0.163 C 
BRANCH  19  20
ATOM     20  C6  NON d   1     -45.197  17.299  -3.743  0.00  0.00     0.158 A 
ATOM     21  N3  NON d   1     -45.659  16.946  -4.945  0.00  0.00    -0.201 NA
ATOM     22  C7  NON d   1     -46.908  16.506  -4.960  0.00  0.00     0.219 A 
ATOM     23  N5  NON d   1     -47.718  16.462  -3.915  0.00  0.00    -0.031 NA
ATOM     24  C8  NON d   1     -47.179  16.833  -2.760  0.00  0.00     0.731 A 
ATOM     25  N7  NON d   1     -45.916  17.212  -2.632  0.00  0.00    -0.046 NA
BRANCH  22  26
ATOM     26  N4  NON d   1     -47.440  16.148  -6.185  0.00  0.00    -0.270 NA
ATOM     27  H7  NON d   1     -48.136  15.426  -6.054  0.00  0.00     0.127 HD
ATOM     28  H8  NON d   1     -47.720  16.968  -6.704  0.00  0.00     0.127 HD
ENDBRANCH  22  26
BRANCH  24  29
ATOM     29  N6  NON d   1     -47.902  16.897  -1.571  0.00  0.00    -0.188 N 
ATOM     30  H9  NON d   1     -47.234  17.123  -0.840  0.00  0.00     0.184 HD
BRANCH  29  31
ATOM     31  C9  NON d   1     -49.225  17.256  -1.283  0.00  0.00     0.049 A 
ATOM     32  C10 NON d   1     -50.330  16.861  -2.039  0.00  0.00     0.030 A 
ATOM     33  C11 NON d   1     -51.626  17.241  -1.675  0.00  0.00     0.002 A 
ATOM     34  C12 NON d   1     -51.841  18.007  -0.532  0.00  0.00     0.000 A 
ATOM     35  C13 NON d   1     -50.760  18.380   0.256  0.00  0.00     0.002 A 
ATOM     36  C14 NON d   1     -49.470  17.997  -0.115  0.00  0.00     0.030 A 
ENDBRANCH  29  31
ENDBRANCH  24  29
ENDBRANCH  19  20
ENDBRANCH   1  19
TORSDOF 9
ENDMDL
MODEL 3
REMARK VINA RESULT:   -25.680      1.422      2.007
REMARK INTER + INTRA:         -29.486
REMARK INTER:                 -28.365
REMARK INTRA:                  -1.121
REMARK CONF_INDEPENDENT:        2.685
REMARK UNBOUND:                -1.121
REMARK  9 active torsions:
REMARK  status: ('A' for Active; 'I' for Inactive)
REMARK    1  A    between atoms: C2_2  and  C3_3 
REMARK    2  A    between atoms: C2_2  and  N9_31 
REMARK    3  A    between atoms: C4_6  and  S1_7 
REMARK    4  A    between atoms: S1_7  and  C5_8 
REMARK    5  A    between atoms: C5_8  and  C6_9 
REMARK    6  A    between atoms: C7_11  and  N4_12 
REMARK    7  A    between atoms: C8_14  and  N6_15 
REMARK    8  A    between atoms: N6_15  and  C9_16 
REMARK    9  A    between atoms: N8_23  and  C15_24 
ROOT
ATOM      1  S1  NON d   1     -42.405  17.625  -4.583  0.00  0.00    -0.082 SA
ENDROOT
BRANCH   1   2
ATOM      2  C4  NON d   1     -41.162  17.851  -3.392  0.00  0.00     0.196 C 
ATOM      3  N2  NON d   1     -40.926  17.109  -2.333  0.00  0.00    -0.122 NA
ATOM      4  N1  NON d   1     -39.720  17.503  -1.778  0.00  0.00    -0.131 NA
ATOM      5  C3  NON d   1     -39.221  18.501  -2.499  0.00  0.00     0.158 C 
ATOM      6  N8  NON d   1     -40.284  18.926  -3.381  0.00  0.00    -0.274 N 
BRANCH   5   7
ATOM      7  C2  NON d   1     -37.557  18.759  -2.790  0.00  0.00     0.146 C 
ATOM      8  C1  NON d   1     -36.925  20.132  -2.493  0.00  0.00     0.040 C 
BRANCH   7   9
ATOM      9  N9  NON d   1     -36.787  17.468  -2.458  0.00  0.00    -0.410 N 
ATOM     10  C21 NON d   1     -36.742  16.978  -1.110  0.00  0.00     0.143 C 
ATOM     11  C22 NON d   1     -36.233  16.661  -3.510  0.00  0.00     0.143 C 
ENDBRANCH   7   9
ENDBRANCH   5   7
BRANCH   6  12
ATOM     12  C15 NON d   1     -40.370  20.150  -4.143  0.00  0.00     0.043 A 
ATOM     13  C16 NON d   1     -39.696  20.306  -5.368  0.00  0.00     0.033 A 
ATOM     14  C17 NON d   1     -39.662  21.557  -6.001  0.00  0.00     0.044 A 
ATOM     15  C18 NON d   1     -40.283  22.645  -5.406  0.00  0.00     0.116 A 
ATOM     16  F1  NON d   1     -40.211  23.847  -5.990  0.00  0.00    -0.206 F 
ATOM     17  C19 NON d   1     -40.954  22.509  -4.194  0.00  0.00     0.044 A 
ATOM     18  C20 NON d   1     -41.003  21.262  -3.562  0.00  0.00     0.033 A 
ENDBRANCH   6  12
ENDBRANCH   1   2
BRANCH   1  19
ATOM     19  C5  NON d   1     -43.916  18.334  -3.906  0.00  0.00     0.163 C 
BRANCH  19  20
ATOM     20  C6  NON d   1     -45.162  17.480  -3.882  0.00  0.00     0.158 A 
ATOM     21  N3  NON d   1     -45.660  17.079  -5.053  0.00  0.00    -0.201 NA
ATOM     22  C7  NON d   1     -46.871  16.544  -4.995  0.00  0.00     0.219 A 
ATOM     23  N5  NON d   1     -47.615  16.451  -3.905  0.00  0.00    -0.031 NA
ATOM     24  C8  NON d   1     -47.044  16.876  -2.786  0.00  0.00     0.731 A 
ATOM     25  N7  NON d   1     -45.809  17.353  -2.732  0.00  0.00    -0.046 NA
BRANCH  22  26
ATOM     26  N4  NON d   1     -47.440  16.132  -6.185  0.00  0.00    -0.270 NA
ATOM     27  H7  NON d   1     -48.351  16.559  -6.292  0.00  0.00     0.127 HD
ATOM     28  H8  NON d   1     -46.788  16.242  -6.948  0.00  0.00     0.127 HD
ENDBRANCH  22  26
BRANCH  24  29
ATOM     29  N6  NON d   1     -47.703  16.899  -1.558  0.00  0.00    -0.188 N 
ATOM     30  H9  NON d   1     -47.000  17.120  -0.859  0.00  0.00     0.184 HD
BRANCH  29  31
ATOM     31  C9  NON d   1     -49.014  17.227  -1.192  0.00  0.00     0.049 A 
ATOM     32  C10 NON d   1     -49.350  18.002  -0.081  0.00  0.00     0.030 A 
ATOM     33  C11 NON d   1     -50.684  18.308   0.209  0.00  0.00     0.002 A 
ATOM     34  C12 NON d   1     -51.706  17.861  -0.624  0.00  0.00     0.000 A 
ATOM     35  C13 NON d   1     -51.392  17.120  -1.756  0.00  0.00     0.002 A 
ATOM     36  C14 NON d   1     -50.060  16.818  -2.036  0.00  0.00     0.030 A 
ENDBRANCH  29  31
ENDBRANCH  24  29
ENDBRANCH  19  20
ENDBRANCH   1  19
TORSDOF 9
ENDMDL
