MODEL 1
REMARK VINA RESULT:   -14.544      0.000      0.000
REMARK INTER + INTRA:         -17.143
REMARK INTER:                 -16.334
REMARK INTRA:                  -0.810
REMARK CONF_INDEPENDENT:        1.790
REMARK UNBOUND:                -0.810
REMARK  6 active torsions:
REMARK  status: ('A' for Active; 'I' for Inactive)
REMARK    1  A    between atoms: C2_2  and  O1_3 
REMARK    2  A    between atoms: O1_3  and  C3_4 
REMARK    3  A    between atoms: C3_4  and  C4_6 
REMARK    4  A    between atoms: C7_9  and  C8_10 
REMARK    5  A    between atoms: C8_10  and  N1_11 
REMARK       I    between atoms: N1_11  and  C9_12 
REMARK    6  A    between atoms: C9_12  and  C10_14 
ROOT
ATOM      1  C8  NON d   1     -41.391  19.063  -3.876  0.00  0.00     0.161 C 
ENDROOT
BRANCH   1   2
ATOM      2  C7  NON d   1     -42.665  18.379  -4.318  0.00  0.00    -0.040 A 
ATOM      3  C6  NON d   1     -43.593  19.178  -5.005  0.00  0.00     0.010 A 
ATOM      4  C5  NON d   1     -44.814  18.659  -5.435  0.00  0.00     0.018 A 
ATOM      5  C4  NON d   1     -45.148  17.322  -5.186  0.00  0.00     0.039 A 
ATOM      6  C15 NON d   1     -44.233  16.511  -4.508  0.00  0.00     0.018 A 
ATOM      7  C14 NON d   1     -43.000  17.037  -4.079  0.00  0.00     0.010 A 
BRANCH   5   8
ATOM      8  C3  NON d   1     -46.477  16.858  -5.662  0.00  0.00     0.293 C 
ATOM      9  O2  NON d   1     -47.272  17.629  -6.186  0.00  0.00    -0.259 OA
BRANCH   8  10
ATOM     10  O1  NON d   1     -46.707  15.530  -5.439  0.00  0.00    -0.318 OA
BRANCH  10  11
ATOM     11  C2  NON d   1     -47.838  15.353  -4.577  0.00  0.00     0.174 C 
ATOM     12  C1  NON d   1     -47.712  16.085  -3.227  0.00  0.00     0.034 C 
ENDBRANCH  10  11
ENDBRANCH   8  10
ENDBRANCH   5   8
ENDBRANCH   1   2
BRANCH   1  13
ATOM     13  N1  NON d   1     -40.660  19.809  -4.869  0.00  0.00    -0.353 N 
ATOM     14  C9  NON d   1     -40.425  19.228  -6.098  0.00  0.00     0.254 C 
ATOM     15  O3  NON d   1     -40.723  18.057  -6.327  0.00  0.00    -0.268 OA
ATOM     16  H10 NON d   1     -40.600  20.814  -4.793  0.00  0.00     0.163 HD
BRANCH  14  17
ATOM     17  C10 NON d   1     -39.838  20.064  -7.147  0.00  0.00     0.062 A 
ATOM     18  C11 NON d   1     -40.358  21.381  -7.459  0.00  0.00     0.050 A 
ATOM     19  C12 NON d   1     -39.670  21.987  -8.476  0.00  0.00     0.077 A 
ATOM     20 Cl1  NON d   1     -39.973  23.541  -9.138  0.00  0.00    -0.076 Cl
ATOM     21  S1  NON d   1     -38.413  21.039  -9.083  0.00  0.00    -0.065 SA
ATOM     22  C13 NON d   1     -38.774  19.790  -7.983  0.00  0.00     0.091 A 
ATOM     23 Cl2  NON d   1     -37.783  18.381  -8.064  0.00  0.00    -0.075 Cl
ENDBRANCH  14  17
ENDBRANCH   1  13
TORSDOF 6
ENDMDL
MODEL 2
REMARK VINA RESULT:   -14.140      1.093      2.150
REMARK INTER + INTRA:         -16.776
REMARK INTER:                 -15.929
REMARK INTRA:                  -0.846
REMARK CONF_INDEPENDENT:        1.790
REMARK UNBOUND:                -0.846
REMARK  6 active torsions:
REMARK  status: ('A' for Active; 'I' for Inactive)
REMARK    1  A    between atoms: C2_2  and  O1_3 
REMARK    2  A    between atoms: O1_3  and  C3_4 
REMARK    3  A    between atoms: C3_4  and  C4_6 
REMARK    4  A    between atoms: C7_9  and  C8_10 
REMARK    5  A    between atoms: C8_10  and  N1_11 
REMARK       I    between atoms: N1_11  and  C9_12 
REMARK    6  A    between atoms: C9_12  and  C10_14 
ROOT
ATOM      1  C8  NON d   1     -41.329  18.480  -3.633  0.00  0.00     0.161 C 
ENDROOT
BRANCH   1   2
ATOM      2  C7  NON d   1     -42.704  18.184  -4.186  0.00  0.00    -0.040 A 
ATOM      3  C6  NON d   1     -43.210  16.897  -3.938  0.00  0.00     0.010 A 
ATOM      4  C5  NON d   1     -44.456  16.505  -4.425  0.00  0.00     0.018 A 
ATOM      5  C4  NON d   1     -45.236  17.387  -5.183  0.00  0.00     0.039 A 
ATOM      6  C15 NON d   1     -44.750  18.674  -5.435  0.00  0.00     0.018 A 
ATOM      7  C14 NON d   1     -43.493  19.068  -4.938  0.00  0.00     0.010 A 
BRANCH   5   8
ATOM      8  C3  NON d   1     -46.542  16.880  -5.678  0.00  0.00     0.293 C 
ATOM      9  O2  NON d   1     -47.367  17.630  -6.185  0.00  0.00    -0.259 OA
BRANCH   8  10
ATOM     10  O1  NON d   1     -46.716  15.538  -5.491  0.00  0.00    -0.318 OA
BRANCH  10  11
ATOM     11  C2  NON d   1     -47.826  15.291  -4.619  0.00  0.00     0.174 C 
ATOM     12  C1  NON d   1     -47.887  16.238  -3.406  0.00  0.00     0.034 C 
ENDBRANCH  10  11
ENDBRANCH   8  10
ENDBRANCH   5   8
ENDBRANCH   1   2
BRANCH   1  13
ATOM     13  N1  NON d   1     -40.381  19.111  -4.517  0.00  0.00    -0.353 N 
ATOM     14  C9  NON d   1     -40.258  18.639  -5.807  0.00  0.00     0.254 C 
ATOM     15  O3  NON d   1     -40.850  17.631  -6.186  0.00  0.00    -0.268 OA
ATOM     16  H10 NON d   1     -40.055  20.045  -4.313  0.00  0.00     0.163 HD
BRANCH  14  17
ATOM     17  C10 NON d   1     -39.422  19.403  -6.736  0.00  0.00     0.062 A 
ATOM     18  C11 NON d   1     -38.463  18.758  -7.611  0.00  0.00     0.050 A 
ATOM     19  C12 NON d   1     -37.780  19.654  -8.389  0.00  0.00     0.077 A 
ATOM     20 Cl1  NON d   1     -36.567  19.294  -9.548  0.00  0.00    -0.076 Cl
ATOM     21  S1  NON d   1     -38.241  21.254  -8.116  0.00  0.00    -0.065 SA
ATOM     22  C13 NON d   1     -39.372  20.767  -6.940  0.00  0.00     0.091 A 
ATOM     23 Cl2  NON d   1     -40.282  22.020  -6.179  0.00  0.00    -0.075 Cl
ENDBRANCH  14  17
ENDBRANCH   1  13
TORSDOF 6
ENDMDL
MODEL 3
REMARK VINA RESULT:   -13.840      1.307      1.640
REMARK INTER + INTRA:         -16.442
REMARK INTER:                 -15.630
REMARK INTRA:                  -0.812
REMARK CONF_INDEPENDENT:        1.790
REMARK UNBOUND:                -0.812
REMARK  6 active torsions:
REMARK  status: ('A' for Active; 'I' for Inactive)
REMARK    1  A    between atoms: C2_2  and  O1_3 
REMARK    2  A    between atoms: O1_3  and  C3_4 
REMARK    3  A    between atoms: C3_4  and  C4_6 
REMARK    4  A    between atoms: C7_9  and  C8_10 
REMARK    5  A    between atoms: C8_10  and  N1_11 
REMARK       I    between atoms: N1_11  and  C9_12 
REMARK    6  A    between atoms: C9_12  and  C10_14 
ROOT
ATOM      1  C8  NON d   1     -41.450  19.027  -3.775  0.00  0.00     0.161 C 
ENDROOT
BRANCH   1   2
ATOM      2  C7  NON d   1     -42.722  18.353  -4.236  0.00  0.00    -0.040 A 
ATOM      3  C6  NON d   1     -43.608  19.145  -4.986  0.00  0.00     0.010 A 
ATOM      4  C5  NON d   1     -44.824  18.635  -5.439  0.00  0.00     0.018 A 
ATOM      5  C4  NON d   1     -45.196  17.316  -5.151  0.00  0.00     0.039 A 
ATOM      6  C15 NON d   1     -44.324  16.512  -4.411  0.00  0.00     0.018 A 
ATOM      7  C14 NON d   1     -43.095  17.029  -3.959  0.00  0.00     0.010 A 
BRANCH   5   8
ATOM      8  C3  NON d   1     -46.518  16.862  -5.657  0.00  0.00     0.293 C 
ATOM      9  O2  NON d   1     -47.296  17.639  -6.196  0.00  0.00    -0.259 OA
BRANCH   8  10
ATOM     10  O1  NON d   1     -46.762  15.535  -5.441  0.00  0.00    -0.318 OA
BRANCH  10  11
ATOM     11  C2  NON d   1     -48.038  15.353  -4.816  0.00  0.00     0.174 C 
ATOM     12  C1  NON d   1     -48.170  16.061  -3.454  0.00  0.00     0.034 C 
ENDBRANCH  10  11
ENDBRANCH   8  10
ENDBRANCH   5   8
ENDBRANCH   1   2
BRANCH   1  13
ATOM     13  N1  NON d   1     -40.917  20.079  -4.605  0.00  0.00    -0.353 N 
ATOM     14  C9  NON d   1     -40.317  19.742  -5.801  0.00  0.00     0.254 C 
ATOM     15  O3  NON d   1     -40.124  18.571  -6.120  0.00  0.00    -0.268 OA
ATOM     16  H10 NON d   1     -41.246  21.026  -4.482  0.00  0.00     0.163 HD
BRANCH  14  17
ATOM     17  C10 NON d   1     -39.943  20.831  -6.706  0.00  0.00     0.062 A 
ATOM     18  C11 NON d   1     -39.796  20.625  -8.133  0.00  0.00     0.050 A 
ATOM     19  C12 NON d   1     -39.433  21.769  -8.792  0.00  0.00     0.077 A 
ATOM     20 Cl1  NON d   1     -39.160  21.942 -10.476  0.00  0.00    -0.076 Cl
ATOM     21  S1  NON d   1     -39.256  23.097  -7.766  0.00  0.00    -0.065 SA
ATOM     22  C13 NON d   1     -39.668  22.151  -6.410  0.00  0.00     0.091 A 
ATOM     23 Cl2  NON d   1     -39.682  22.955  -4.884  0.00  0.00    -0.075 Cl
ENDBRANCH  14  17
ENDBRANCH   1  13
TORSDOF 6
ENDMDL
MODEL 4
REMARK VINA RESULT:   -13.750      1.446      1.534
REMARK INTER + INTRA:         -16.364
REMARK INTER:                 -15.539
REMARK INTRA:                  -0.824
REMARK CONF_INDEPENDENT:        1.790
REMARK UNBOUND:                -0.824
REMARK  6 active torsions:
REMARK  status: ('A' for Active; 'I' for Inactive)
REMARK    1  A    between atoms: C2_2  and  O1_3 
REMARK    2  A    between atoms: O1_3  and  C3_4 
REMARK    3  A    between atoms: C3_4  and  C4_6 
REMARK    4  A    between atoms: C7_9  and  C8_10 
REMARK    5  A    between atoms: C8_10  and  N1_11 
REMARK       I    between atoms: N1_11  and  C9_12 
REMARK    6  A    between atoms: C9_12  and  C10_14 
ROOT
ATOM      1  C8  NON d   1     -41.395  18.834  -3.520  0.00  0.00     0.161 C 
ENDROOT
BRANCH   1   2
ATOM      2  C7  NON d   1     -42.680  18.223  -4.029  0.00  0.00    -0.040 A 
ATOM      3  C6  NON d   1     -43.435  19.009  -4.916  0.00  0.00     0.010 A 
ATOM      4  C5  NON d   1     -44.651  18.557  -5.426  0.00  0.00     0.018 A 
ATOM      5  C4  NON d   1     -45.156  17.303  -5.060  0.00  0.00     0.039 A 
ATOM      6  C15 NON d   1     -44.415  16.505  -4.183  0.00  0.00     0.018 A 
ATOM      7  C14 NON d   1     -43.186  16.963  -3.674  0.00  0.00     0.010 A 
BRANCH   5   8
ATOM      8  C3  NON d   1     -46.468  16.910  -5.637  0.00  0.00     0.293 C 
ATOM      9  O2  NON d   1     -47.194  17.728  -6.186  0.00  0.00    -0.259 OA
BRANCH   8  10
ATOM     10  O1  NON d   1     -46.765  15.586  -5.471  0.00  0.00    -0.318 OA
BRANCH  10  11
ATOM     11  C2  NON d   1     -47.881  15.428  -4.585  0.00  0.00     0.174 C 
ATOM     12  C1  NON d   1     -47.771  16.260  -3.293  0.00  0.00     0.034 C 
ENDBRANCH  10  11
ENDBRANCH   8  10
ENDBRANCH   5   8
ENDBRANCH   1   2
BRANCH   1  13
ATOM     13  N1  NON d   1     -40.900  20.003  -4.204  0.00  0.00    -0.353 N 
ATOM     14  C9  NON d   1     -40.365  19.858  -5.467  0.00  0.00     0.254 C 
ATOM     15  O3  NON d   1     -40.197  18.751  -5.974  0.00  0.00    -0.268 OA
ATOM     16  H10 NON d   1     -41.216  20.919  -3.918  0.00  0.00     0.163 HD
BRANCH  14  17
ATOM     17  C10 NON d   1     -40.032  21.074  -6.211  0.00  0.00     0.062 A 
ATOM     18  C11 NON d   1     -39.532  22.264  -5.550  0.00  0.00     0.050 A 
ATOM     19  C12 NON d   1     -39.294  23.288  -6.428  0.00  0.00     0.077 A 
ATOM     20 Cl1  NON d   1     -38.702  24.852  -6.046  0.00  0.00    -0.076 Cl
ATOM     21  S1  NON d   1     -39.644  22.884  -8.028  0.00  0.00    -0.065 SA
ATOM     22  C13 NON d   1     -40.126  21.317  -7.567  0.00  0.00     0.091 A 
ATOM     23 Cl2  NON d   1     -40.658  20.270  -8.830  0.00  0.00    -0.075 Cl
ENDBRANCH  14  17
ENDBRANCH   1  13
TORSDOF 6
ENDMDL
MODEL 5
REMARK VINA RESULT:   -13.631      3.778      4.635
REMARK INTER + INTRA:         -16.118
REMARK INTER:                 -15.420
REMARK INTRA:                  -0.697
REMARK CONF_INDEPENDENT:        1.790
REMARK UNBOUND:                -0.697
REMARK  6 active torsions:
REMARK  status: ('A' for Active; 'I' for Inactive)
REMARK    1  A    between atoms: C2_2  and  O1_3 
REMARK    2  A    between atoms: O1_3  and  C3_4 
REMARK    3  A    between atoms: C3_4  and  C4_6 
REMARK    4  A    between atoms: C7_9  and  C8_10 
REMARK    5  A    between atoms: C8_10  and  N1_11 
REMARK       I    between atoms: N1_11  and  C9_12 
REMARK    6  A    between atoms: C9_12  and  C10_14 
ROOT
ATOM      1  C8  NON d   1     -40.835  18.195  -3.024  0.00  0.00     0.161 C 
ENDROOT
BRANCH   1   2
ATOM      2  C7  NON d   1     -42.167  18.049  -3.722  0.00  0.00    -0.040 A 
ATOM      3  C6  NON d   1     -42.863  16.851  -3.490  0.00  0.00     0.010 A 
ATOM      4  C5  NON d   1     -44.088  16.597  -4.105  0.00  0.00     0.018 A 
ATOM      5  C4  NON d   1     -44.656  17.533  -4.977  0.00  0.00     0.039 A 
ATOM      6  C15 NON d   1     -43.981  18.734  -5.215  0.00  0.00     0.018 A 
ATOM      7  C14 NON d   1     -42.745  18.988  -4.590  0.00  0.00     0.010 A 
BRANCH   5   8
ATOM      8  C3  NON d   1     -45.955  17.172  -5.602  0.00  0.00     0.293 C 
ATOM      9  O2  NON d   1     -46.634  18.005  -6.190  0.00  0.00    -0.259 OA
BRANCH   8  10
ATOM     10  O1  NON d   1     -46.300  15.861  -5.435  0.00  0.00    -0.318 OA
BRANCH  10  11
ATOM     11  C2  NON d   1     -47.722  15.723  -5.326  0.00  0.00     0.174 C 
ATOM     12  C1  NON d   1     -48.190  15.157  -3.973  0.00  0.00     0.034 C 
ENDBRANCH  10  11
ENDBRANCH   8  10
ENDBRANCH   5   8
ENDBRANCH   1   2
BRANCH   1  13
ATOM     13  N1  NON d   1     -40.600  19.414  -2.291  0.00  0.00    -0.353 N 
ATOM     14  C9  NON d   1     -40.344  20.573  -2.993  0.00  0.00     0.254 C 
ATOM     15  O3  NON d   1     -40.200  20.571  -4.214  0.00  0.00    -0.268 OA
ATOM     16  H10 NON d   1     -40.919  19.491  -1.337  0.00  0.00     0.163 HD
BRANCH  14  17
ATOM     17  C10 NON d   1     -40.283  21.828  -2.240  0.00  0.00     0.062 A 
ATOM     18  C11 NON d   1     -40.212  21.850  -0.792  0.00  0.00     0.050 A 
ATOM     19  C12 NON d   1     -40.172  23.123  -0.291  0.00  0.00     0.077 A 
ATOM     20 Cl1  NON d   1     -40.087  23.574   1.362  0.00  0.00    -0.076 Cl
ATOM     21  S1  NON d   1     -40.217  24.310  -1.490  0.00  0.00    -0.065 SA
ATOM     22  C13 NON d   1     -40.291  23.125  -2.711  0.00  0.00     0.091 A 
ATOM     23 Cl2  NON d   1     -40.368  23.697  -4.337  0.00  0.00    -0.075 Cl
ENDBRANCH  14  17
ENDBRANCH   1  13
TORSDOF 6
ENDMDL
MODEL 6
REMARK VINA RESULT:   -13.626      3.510      3.916
REMARK INTER + INTRA:         -16.169
REMARK INTER:                 -15.416
REMARK INTRA:                  -0.754
REMARK CONF_INDEPENDENT:        1.790
REMARK UNBOUND:                -0.754
REMARK  6 active torsions:
REMARK  status: ('A' for Active; 'I' for Inactive)
REMARK    1  A    between atoms: C2_2  and  O1_3 
REMARK    2  A    between atoms: O1_3  and  C3_4 
REMARK    3  A    between atoms: C3_4  and  C4_6 
REMARK    4  A    between atoms: C7_9  and  C8_10 
REMARK    5  A    between atoms: C8_10  and  N1_11 
REMARK       I    between atoms: N1_11  and  C9_12 
REMARK    6  A    between atoms: C9_12  and  C10_14 
ROOT
ATOM      1  C8  NON d   1     -41.191  18.353  -3.388  0.00  0.00     0.161 C 
ENDROOT
BRANCH   1   2
ATOM      2  C7  NON d   1     -42.548  18.106  -4.006  0.00  0.00    -0.040 A 
ATOM      3  C6  NON d   1     -43.132  16.855  -3.744  0.00  0.00     0.010 A 
ATOM      4  C5  NON d   1     -44.369  16.509  -4.286  0.00  0.00     0.018 A 
ATOM      5  C4  NON d   1     -45.060  17.401  -5.114  0.00  0.00     0.039 A 
ATOM      6  C15 NON d   1     -44.496  18.652  -5.381  0.00  0.00     0.018 A 
ATOM      7  C14 NON d   1     -43.249  19.000  -4.828  0.00  0.00     0.010 A 
BRANCH   5   8
ATOM      8  C3  NON d   1     -46.362  16.942  -5.664  0.00  0.00     0.293 C 
ATOM      9  O2  NON d   1     -47.145  17.725  -6.188  0.00  0.00    -0.259 OA
BRANCH   8  10
ATOM     10  O1  NON d   1     -46.584  15.603  -5.505  0.00  0.00    -0.318 OA
BRANCH  10  11
ATOM     11  C2  NON d   1     -47.739  15.378  -4.688  0.00  0.00     0.174 C 
ATOM     12  C1  NON d   1     -47.753  16.205  -3.389  0.00  0.00     0.034 C 
ENDBRANCH  10  11
ENDBRANCH   8  10
ENDBRANCH   5   8
ENDBRANCH   1   2
BRANCH   1  13
ATOM     13  N1  NON d   1     -40.938  19.664  -2.843  0.00  0.00    -0.353 N 
ATOM     14  C9  NON d   1     -40.732  20.715  -3.712  0.00  0.00     0.254 C 
ATOM     15  O3  NON d   1     -40.645  20.544  -4.926  0.00  0.00    -0.268 OA
ATOM     16  H10 NON d   1     -41.214  19.871  -1.895  0.00  0.00     0.163 HD
BRANCH  14  17
ATOM     17  C10 NON d   1     -40.653  22.063  -3.144  0.00  0.00     0.062 A 
ATOM     18  C11 NON d   1     -41.096  23.232  -3.879  0.00  0.00     0.050 A 
ATOM     19  C12 NON d   1     -40.925  24.390  -3.170  0.00  0.00     0.077 A 
ATOM     20 Cl1  NON d   1     -41.321  25.978  -3.685  0.00  0.00    -0.076 Cl
ATOM     21  S1  NON d   1     -40.250  24.140  -1.644  0.00  0.00    -0.065 SA
ATOM     22  C13 NON d   1     -40.174  22.460  -1.912  0.00  0.00     0.091 A 
ATOM     23 Cl2  NON d   1     -39.521  21.504  -0.633  0.00  0.00    -0.075 Cl
ENDBRANCH  14  17
ENDBRANCH   1  13
TORSDOF 6
ENDMDL
MODEL 7
REMARK VINA RESULT:   -13.144      2.377      2.639
REMARK INTER + INTRA:         -15.645
REMARK INTER:                 -14.934
REMARK INTRA:                  -0.711
REMARK CONF_INDEPENDENT:        1.790
REMARK UNBOUND:                -0.711
REMARK  6 active torsions:
REMARK  status: ('A' for Active; 'I' for Inactive)
REMARK    1  A    between atoms: C2_2  and  O1_3 
REMARK    2  A    between atoms: O1_3  and  C3_4 
REMARK    3  A    between atoms: C3_4  and  C4_6 
REMARK    4  A    between atoms: C7_9  and  C8_10 
REMARK    5  A    between atoms: C8_10  and  N1_11 
REMARK       I    between atoms: N1_11  and  C9_12 
REMARK    6  A    between atoms: C9_12  and  C10_14 
ROOT
ATOM      1  C8  NON d   1     -41.410  19.040  -3.718  0.00  0.00     0.161 C 
ENDROOT
BRANCH   1   2
ATOM      2  C7  NON d   1     -42.678  18.361  -4.181  0.00  0.00    -0.040 A 
ATOM      3  C6  NON d   1     -43.543  19.133  -4.975  0.00  0.00     0.010 A 
ATOM      4  C5  NON d   1     -44.754  18.618  -5.435  0.00  0.00     0.018 A 
ATOM      5  C4  NON d   1     -45.143  17.313  -5.110  0.00  0.00     0.039 A 
ATOM      6  C15 NON d   1     -44.293  16.528  -4.325  0.00  0.00     0.018 A 
ATOM      7  C14 NON d   1     -43.069  17.051  -3.866  0.00  0.00     0.010 A 
BRANCH   5   8
ATOM      8  C3  NON d   1     -46.459  16.853  -5.626  0.00  0.00     0.293 C 
ATOM      9  O2  NON d   1     -47.245  17.630  -6.151  0.00  0.00    -0.259 OA
BRANCH   8  10
ATOM     10  O1  NON d   1     -46.687  15.519  -5.435  0.00  0.00    -0.318 OA
BRANCH  10  11
ATOM     11  C2  NON d   1     -47.912  15.315  -4.721  0.00  0.00     0.174 C 
ATOM     12  C1  NON d   1     -48.069  16.220  -3.484  0.00  0.00     0.034 C 
ENDBRANCH  10  11
ENDBRANCH   8  10
ENDBRANCH   5   8
ENDBRANCH   1   2
BRANCH   1  13
ATOM     13  N1  NON d   1     -41.289  20.456  -3.960  0.00  0.00    -0.353 N 
ATOM     14  C9  NON d   1     -40.160  20.927  -4.597  0.00  0.00     0.254 C 
ATOM     15  O3  NON d   1     -39.211  20.192  -4.860  0.00  0.00    -0.268 OA
ATOM     16  H10 NON d   1     -42.116  21.035  -3.958  0.00  0.00     0.163 HD
BRANCH  14  17
ATOM     17  C10 NON d   1     -40.137  22.338  -4.989  0.00  0.00     0.062 A 
ATOM     18  C11 NON d   1     -40.432  23.400  -4.048  0.00  0.00     0.050 A 
ATOM     19  C12 NON d   1     -40.364  24.641  -4.622  0.00  0.00     0.077 A 
ATOM     20 Cl1  NON d   1     -40.645  26.147  -3.850  0.00  0.00    -0.076 Cl
ATOM     21  S1  NON d   1     -39.955  24.593  -6.258  0.00  0.00    -0.065 SA
ATOM     22  C13 NON d   1     -39.864  22.893  -6.224  0.00  0.00     0.091 A 
ATOM     23 Cl2  NON d   1     -39.454  22.112  -7.706  0.00  0.00    -0.075 Cl
ENDBRANCH  14  17
ENDBRANCH   1  13
TORSDOF 6
ENDMDL
