MODEL 1
REMARK VINA RESULT:   -17.102      0.000      0.000
REMARK INTER + INTRA:         -19.056
REMARK INTER:                 -18.295
REMARK INTRA:                  -0.761
REMARK CONF_INDEPENDENT:        1.193
REMARK UNBOUND:                -0.761
REMARK  4 active torsions:
REMARK  status: ('A' for Active; 'I' for Inactive)
REMARK    1  A    between atoms: C2_2  and  C3_4 
REMARK    2  A    between atoms: C6_7  and  C7_8 
REMARK       I    between atoms: C7_8  and  N1_10 
REMARK    3  A    between atoms: C8_11  and  N1_10 
REMARK    4  A    between atoms: C8_11  and  C10_13 
ROOT
ATOM      1  C7  NON d   1     -43.468  18.884  -5.136  0.00  0.00     0.259 C 
ATOM      2  O2  NON d   1     -43.490  19.522  -6.186  0.00  0.00    -0.267 OA
ATOM      3  N1  NON d   1     -42.376  18.929  -4.288  0.00  0.00    -0.348 N 
ATOM      4  H6  NON d   1     -42.336  18.267  -3.524  0.00  0.00     0.163 HD
ENDROOT
BRANCH   3   5
ATOM      5  C8  NON d   1     -41.220  19.782  -4.566  0.00  0.00     0.114 C 
ATOM      6  C9  NON d   1     -41.575  21.249  -4.272  0.00  0.00     0.037 C 
BRANCH   5   7
ATOM      7  C10 NON d   1     -40.653  19.576  -5.977  0.00  0.00    -0.035 A 
ATOM      8  C11 NON d   1     -40.422  18.283  -6.488  0.00  0.00     0.009 A 
ATOM      9  C12 NON d   1     -39.932  18.080  -7.782  0.00  0.00     0.002 A 
ATOM     10  C13 NON d   1     -39.674  19.169  -8.607  0.00  0.00     0.019 A 
ATOM     11  C14 NON d   1     -39.926  20.452  -8.136  0.00  0.00     0.011 A 
ATOM     12 Br1  NON d   1     -39.593  21.937  -9.261  0.00  0.00    -0.051 Br
ATOM     13  C15 NON d   1     -40.424  20.660  -6.843  0.00  0.00     0.028 A 
ENDBRANCH   5   7
ENDBRANCH   3   5
BRANCH   1  14
ATOM     14  C6  NON d   1     -44.580  18.031  -4.735  0.00  0.00     0.073 A 
ATOM     15  C5  NON d   1     -44.739  17.387  -3.520  0.00  0.00     0.026 A 
ATOM     16  C4  NON d   1     -45.864  16.505  -3.497  0.00  0.00     0.024 A 
ATOM     17  C3  NON d   1     -46.526  16.480  -4.708  0.00  0.00     0.051 A 
ATOM     18  S1  NON d   1     -45.840  17.615  -5.809  0.00  0.00    -0.081 SA
BRANCH  17  19
ATOM     19  C2  NON d   1     -47.661  15.682  -5.152  0.00  0.00     0.162 C 
ATOM     20  C1  NON d   1     -48.958  15.710  -4.324  0.00  0.00     0.097 C 
ATOM     21  O1  NON d   1     -47.632  15.005  -6.186  0.00  0.00    -0.292 OA
ENDBRANCH  17  19
ENDBRANCH   1  14
TORSDOF 4
ENDMDL
MODEL 2
REMARK VINA RESULT:   -16.926      2.130      3.476
REMARK INTER + INTRA:         -18.755
REMARK INTER:                 -18.119
REMARK INTRA:                  -0.636
REMARK CONF_INDEPENDENT:        1.193
REMARK UNBOUND:                -0.636
REMARK  4 active torsions:
REMARK  status: ('A' for Active; 'I' for Inactive)
REMARK    1  A    between atoms: C2_2  and  C3_4 
REMARK    2  A    between atoms: C6_7  and  C7_8 
REMARK       I    between atoms: C7_8  and  N1_10 
REMARK    3  A    between atoms: C8_11  and  N1_10 
REMARK    4  A    between atoms: C8_11  and  C10_13 
ROOT
ATOM      1  C7  NON d   1     -43.545  18.836  -5.196  0.00  0.00     0.259 C 
ATOM      2  O2  NON d   1     -43.630  19.566  -6.181  0.00  0.00    -0.267 OA
ATOM      3  N1  NON d   1     -42.378  18.759  -4.456  0.00  0.00    -0.348 N 
ATOM      4  H6  NON d   1     -42.302  18.030  -3.758  0.00  0.00     0.163 HD
ENDROOT
BRANCH   3   5
ATOM      5  C8  NON d   1     -41.211  19.584  -4.770  0.00  0.00     0.114 C 
ATOM      6  C9  NON d   1     -40.065  18.691  -5.276  0.00  0.00     0.037 C 
BRANCH   5   7
ATOM      7  C10 NON d   1     -40.792  20.492  -3.607  0.00  0.00    -0.035 A 
ATOM      8  C11 NON d   1     -40.214  19.959  -2.438  0.00  0.00     0.009 A 
ATOM      9  C12 NON d   1     -39.801  20.778  -1.382  0.00  0.00     0.002 A 
ATOM     10  C13 NON d   1     -39.942  22.158  -1.475  0.00  0.00     0.019 A 
ATOM     11  C14 NON d   1     -40.480  22.709  -2.633  0.00  0.00     0.011 A 
ATOM     12 Br1  NON d   1     -40.659  24.587  -2.772  0.00  0.00    -0.051 Br
ATOM     13  C15 NON d   1     -40.887  21.892  -3.697  0.00  0.00     0.028 A 
ENDBRANCH   5   7
ENDBRANCH   3   5
BRANCH   1  14
ATOM     14  C6  NON d   1     -44.657  18.000  -4.764  0.00  0.00     0.073 A 
ATOM     15  C5  NON d   1     -44.800  17.373  -3.538  0.00  0.00     0.026 A 
ATOM     16  C4  NON d   1     -45.932  16.501  -3.484  0.00  0.00     0.024 A 
ATOM     17  C3  NON d   1     -46.617  16.468  -4.682  0.00  0.00     0.051 A 
ATOM     18  S1  NON d   1     -45.940  17.582  -5.810  0.00  0.00    -0.081 SA
BRANCH  17  19
ATOM     19  C2  NON d   1     -47.767  15.675  -5.095  0.00  0.00     0.162 C 
ATOM     20  C1  NON d   1     -48.983  15.585  -4.156  0.00  0.00     0.097 C 
ATOM     21  O1  NON d   1     -47.815  15.094  -6.185  0.00  0.00    -0.292 OA
ENDBRANCH  17  19
ENDBRANCH   1  14
TORSDOF 4
ENDMDL
MODEL 3
REMARK VINA RESULT:   -16.774      1.491      1.699
REMARK INTER + INTRA:         -18.693
REMARK INTER:                 -17.967
REMARK INTRA:                  -0.726
REMARK CONF_INDEPENDENT:        1.193
REMARK UNBOUND:                -0.726
REMARK  4 active torsions:
REMARK  status: ('A' for Active; 'I' for Inactive)
REMARK    1  A    between atoms: C2_2  and  C3_4 
REMARK    2  A    between atoms: C6_7  and  C7_8 
REMARK       I    between atoms: C7_8  and  N1_10 
REMARK    3  A    between atoms: C8_11  and  N1_10 
REMARK    4  A    between atoms: C8_11  and  C10_13 
ROOT
ATOM      1  C7  NON d   1     -43.075  17.426  -4.720  0.00  0.00     0.259 C 
ATOM      2  O2  NON d   1     -42.495  16.767  -5.581  0.00  0.00    -0.267 OA
ATOM      3  N1  NON d   1     -42.406  18.375  -3.967  0.00  0.00    -0.348 N 
ATOM      4  H6  NON d   1     -42.881  18.772  -3.167  0.00  0.00     0.163 HD
ENDROOT
BRANCH   3   5
ATOM      5  C8  NON d   1     -40.995  18.685  -4.197  0.00  0.00     0.114 C 
ATOM      6  C9  NON d   1     -40.519  19.731  -3.174  0.00  0.00     0.037 C 
BRANCH   5   7
ATOM      7  C10 NON d   1     -40.702  19.091  -5.647  0.00  0.00    -0.035 A 
ATOM      8  C11 NON d   1     -41.605  19.891  -6.376  0.00  0.00     0.009 A 
ATOM      9  C12 NON d   1     -41.338  20.293  -7.689  0.00  0.00     0.002 A 
ATOM     10  C13 NON d   1     -40.149  19.916  -8.304  0.00  0.00     0.019 A 
ATOM     11  C14 NON d   1     -39.229  19.154  -7.593  0.00  0.00     0.011 A 
ATOM     12 Br1  NON d   1     -37.602  18.652  -8.419  0.00  0.00    -0.051 Br
ATOM     13  C15 NON d   1     -39.489  18.757  -6.274  0.00  0.00     0.028 A 
ENDBRANCH   5   7
ENDBRANCH   3   5
BRANCH   1  14
ATOM     14  C6  NON d   1     -44.490  17.231  -4.431  0.00  0.00     0.073 A 
ATOM     15  C5  NON d   1     -45.097  17.255  -3.187  0.00  0.00     0.026 A 
ATOM     16  C4  NON d   1     -46.475  16.878  -3.229  0.00  0.00     0.024 A 
ATOM     17  C3  NON d   1     -46.884  16.554  -4.507  0.00  0.00     0.051 A 
ATOM     18  S1  NON d   1     -45.618  16.825  -5.646  0.00  0.00    -0.081 SA
BRANCH  17  19
ATOM     19  C2  NON d   1     -48.161  16.053  -4.996  0.00  0.00     0.162 C 
ATOM     20  C1  NON d   1     -49.152  15.440  -3.991  0.00  0.00     0.097 C 
ATOM     21  O1  NON d   1     -48.492  16.127  -6.185  0.00  0.00    -0.292 OA
ENDBRANCH  17  19
ENDBRANCH   1  14
TORSDOF 4
ENDMDL
MODEL 4
REMARK VINA RESULT:   -16.705      2.589      3.479
REMARK INTER + INTRA:         -18.497
REMARK INTER:                 -17.898
REMARK INTRA:                  -0.598
REMARK CONF_INDEPENDENT:        1.193
REMARK UNBOUND:                -0.598
REMARK  4 active torsions:
REMARK  status: ('A' for Active; 'I' for Inactive)
REMARK    1  A    between atoms: C2_2  and  C3_4 
REMARK    2  A    between atoms: C6_7  and  C7_8 
REMARK       I    between atoms: C7_8  and  N1_10 
REMARK    3  A    between atoms: C8_11  and  N1_10 
REMARK    4  A    between atoms: C8_11  and  C10_13 
ROOT
ATOM      1  C7  NON d   1     -43.534  18.889  -5.250  0.00  0.00     0.259 C 
ATOM      2  O2  NON d   1     -43.667  19.659  -6.200  0.00  0.00    -0.267 OA
ATOM      3  N1  NON d   1     -42.333  18.785  -4.571  0.00  0.00    -0.348 N 
ATOM      4  H6  NON d   1     -42.223  18.029  -3.909  0.00  0.00     0.163 HD
ENDROOT
BRANCH   3   5
ATOM      5  C8  NON d   1     -41.183  19.626  -4.907  0.00  0.00     0.114 C 
ATOM      6  C9  NON d   1     -40.551  19.139  -6.222  0.00  0.00     0.037 C 
BRANCH   5   7
ATOM      7  C10 NON d   1     -40.169  19.735  -3.761  0.00  0.00    -0.035 A 
ATOM      8  C11 NON d   1     -39.039  18.894  -3.705  0.00  0.00     0.009 A 
ATOM      9  C12 NON d   1     -38.091  19.002  -2.682  0.00  0.00     0.002 A 
ATOM     10  C13 NON d   1     -38.243  19.966  -1.692  0.00  0.00     0.019 A 
ATOM     11  C14 NON d   1     -39.333  20.828  -1.745  0.00  0.00     0.011 A 
ATOM     12 Br1  NON d   1     -39.534  22.154  -0.410  0.00  0.00    -0.051 Br
ATOM     13  C15 NON d   1     -40.280  20.729  -2.773  0.00  0.00     0.028 A 
ENDBRANCH   5   7
ENDBRANCH   3   5
BRANCH   1  14
ATOM     14  C6  NON d   1     -44.624  18.032  -4.801  0.00  0.00     0.073 A 
ATOM     15  C5  NON d   1     -44.717  17.373  -3.587  0.00  0.00     0.026 A 
ATOM     16  C4  NON d   1     -45.840  16.491  -3.514  0.00  0.00     0.024 A 
ATOM     17  C3  NON d   1     -46.567  16.482  -4.687  0.00  0.00     0.051 A 
ATOM     18  S1  NON d   1     -45.940  17.630  -5.810  0.00  0.00    -0.081 SA
BRANCH  17  19
ATOM     19  C2  NON d   1     -47.725  15.690  -5.079  0.00  0.00     0.162 C 
ATOM     20  C1  NON d   1     -48.900  15.554  -4.094  0.00  0.00     0.097 C 
ATOM     21  O1  NON d   1     -47.813  15.145  -6.185  0.00  0.00    -0.292 OA
ENDBRANCH  17  19
ENDBRANCH   1  14
TORSDOF 4
ENDMDL
MODEL 5
REMARK VINA RESULT:   -16.417      1.460      2.193
REMARK INTER + INTRA:         -18.327
REMARK INTER:                 -17.611
REMARK INTRA:                  -0.716
REMARK CONF_INDEPENDENT:        1.193
REMARK UNBOUND:                -0.716
REMARK  4 active torsions:
REMARK  status: ('A' for Active; 'I' for Inactive)
REMARK    1  A    between atoms: C2_2  and  C3_4 
REMARK    2  A    between atoms: C6_7  and  C7_8 
REMARK       I    between atoms: C7_8  and  N1_10 
REMARK    3  A    between atoms: C8_11  and  N1_10 
REMARK    4  A    between atoms: C8_11  and  C10_13 
ROOT
ATOM      1  C7  NON d   1     -43.085  17.256  -4.581  0.00  0.00     0.259 C 
ATOM      2  O2  NON d   1     -42.541  16.869  -5.613  0.00  0.00    -0.267 OA
ATOM      3  N1  NON d   1     -42.359  17.845  -3.560  0.00  0.00    -0.348 N 
ATOM      4  H6  NON d   1     -42.818  17.998  -2.673  0.00  0.00     0.163 HD
ENDROOT
BRANCH   3   5
ATOM      5  C8  NON d   1     -40.921  18.091  -3.682  0.00  0.00     0.114 C 
ATOM      6  C9  NON d   1     -40.282  18.135  -2.284  0.00  0.00     0.037 C 
BRANCH   5   7
ATOM      7  C10 NON d   1     -40.598  19.330  -4.527  0.00  0.00    -0.035 A 
ATOM      8  C11 NON d   1     -40.279  20.563  -3.921  0.00  0.00     0.009 A 
ATOM      9  C12 NON d   1     -39.954  21.693  -4.678  0.00  0.00     0.002 A 
ATOM     10  C13 NON d   1     -39.925  21.616  -6.066  0.00  0.00     0.019 A 
ATOM     11  C14 NON d   1     -40.203  20.402  -6.684  0.00  0.00     0.011 A 
ATOM     12 Br1  NON d   1     -40.148  20.287  -8.572  0.00  0.00    -0.051 Br
ATOM     13  C15 NON d   1     -40.521  19.265  -5.929  0.00  0.00     0.028 A 
ENDBRANCH   5   7
ENDBRANCH   3   5
BRANCH   1  14
ATOM     14  C6  NON d   1     -44.518  17.100  -4.366  0.00  0.00     0.073 A 
ATOM     15  C5  NON d   1     -45.202  17.255  -3.172  0.00  0.00     0.026 A 
ATOM     16  C4  NON d   1     -46.580  16.884  -3.264  0.00  0.00     0.024 A 
ATOM     17  C3  NON d   1     -46.910  16.432  -4.526  0.00  0.00     0.051 A 
ATOM     18  S1  NON d   1     -45.571  16.578  -5.603  0.00  0.00    -0.081 SA
BRANCH  17  19
ATOM     19  C2  NON d   1     -48.160  15.891  -5.043  0.00  0.00     0.162 C 
ATOM     20  C1  NON d   1     -49.027  15.016  -4.120  0.00  0.00     0.097 C 
ATOM     21  O1  NON d   1     -48.565  16.130  -6.185  0.00  0.00    -0.292 OA
ENDBRANCH  17  19
ENDBRANCH   1  14
TORSDOF 4
ENDMDL
MODEL 6
REMARK VINA RESULT:   -16.378      2.067      2.729
REMARK INTER + INTRA:         -18.340
REMARK INTER:                 -17.572
REMARK INTRA:                  -0.768
REMARK CONF_INDEPENDENT:        1.193
REMARK UNBOUND:                -0.768
REMARK  4 active torsions:
REMARK  status: ('A' for Active; 'I' for Inactive)
REMARK    1  A    between atoms: C2_2  and  C3_4 
REMARK    2  A    between atoms: C6_7  and  C7_8 
REMARK       I    between atoms: C7_8  and  N1_10 
REMARK    3  A    between atoms: C8_11  and  N1_10 
REMARK    4  A    between atoms: C8_11  and  C10_13 
ROOT
ATOM      1  C7  NON d   1     -43.094  18.059  -5.095  0.00  0.00     0.259 C 
ATOM      2  O2  NON d   1     -42.219  17.282  -5.472  0.00  0.00    -0.267 OA
ATOM      3  N1  NON d   1     -42.868  19.423  -5.033  0.00  0.00    -0.348 N 
ATOM      4  H6  NON d   1     -43.555  20.000  -4.567  0.00  0.00     0.163 HD
ENDROOT
BRANCH   3   5
ATOM      5  C8  NON d   1     -41.602  20.013  -5.469  0.00  0.00     0.114 C 
ATOM      6  C9  NON d   1     -41.481  19.913  -6.999  0.00  0.00     0.037 C 
BRANCH   5   7
ATOM      7  C10 NON d   1     -40.388  19.431  -4.734  0.00  0.00    -0.035 A 
ATOM      8  C11 NON d   1     -40.483  19.002  -3.395  0.00  0.00     0.009 A 
ATOM      9  C12 NON d   1     -39.392  18.442  -2.722  0.00  0.00     0.002 A 
ATOM     10  C13 NON d   1     -38.177  18.283  -3.378  0.00  0.00     0.019 A 
ATOM     11  C14 NON d   1     -38.069  18.668  -4.709  0.00  0.00     0.011 A 
ATOM     12 Br1  NON d   1     -36.422  18.437  -5.612  0.00  0.00    -0.051 Br
ATOM     13  C15 NON d   1     -39.162  19.221  -5.390  0.00  0.00     0.028 A 
ENDBRANCH   5   7
ENDBRANCH   3   5
BRANCH   1  14
ATOM     14  C6  NON d   1     -44.408  17.587  -4.675  0.00  0.00     0.073 A 
ATOM     15  C5  NON d   1     -44.805  17.268  -3.388  0.00  0.00     0.026 A 
ATOM     16  C4  NON d   1     -46.112  16.691  -3.332  0.00  0.00     0.024 A 
ATOM     17  C3  NON d   1     -46.674  16.564  -4.586  0.00  0.00     0.051 A 
ATOM     18  S1  NON d   1     -45.653  17.254  -5.793  0.00  0.00    -0.081 SA
BRANCH  17  19
ATOM     19  C2  NON d   1     -47.938  15.972  -5.004  0.00  0.00     0.162 C 
ATOM     20  C1  NON d   1     -49.014  15.692  -3.939  0.00  0.00     0.097 C 
ATOM     21  O1  NON d   1     -48.190  15.710  -6.185  0.00  0.00    -0.292 OA
ENDBRANCH  17  19
ENDBRANCH   1  14
TORSDOF 4
ENDMDL
MODEL 7
REMARK VINA RESULT:   -15.526      1.700      2.783
REMARK INTER + INTRA:         -16.972
REMARK INTER:                 -16.719
REMARK INTRA:                  -0.253
REMARK CONF_INDEPENDENT:        1.193
REMARK UNBOUND:                -0.253
REMARK  4 active torsions:
REMARK  status: ('A' for Active; 'I' for Inactive)
REMARK    1  A    between atoms: C2_2  and  C3_4 
REMARK    2  A    between atoms: C6_7  and  C7_8 
REMARK       I    between atoms: C7_8  and  N1_10 
REMARK    3  A    between atoms: C8_11  and  N1_10 
REMARK    4  A    between atoms: C8_11  and  C10_13 
ROOT
ATOM      1  C7  NON d   1     -42.949  17.818  -5.122  0.00  0.00     0.259 C 
ATOM      2  O2  NON d   1     -42.122  16.952  -5.403  0.00  0.00    -0.267 OA
ATOM      3  N1  NON d   1     -42.630  19.163  -5.181  0.00  0.00    -0.348 N 
ATOM      4  H6  NON d   1     -43.284  19.827  -4.788  0.00  0.00     0.163 HD
ENDROOT
BRANCH   3   5
ATOM      5  C8  NON d   1     -41.317  19.624  -5.636  0.00  0.00     0.114 C 
ATOM      6  C9  NON d   1     -40.232  18.636  -5.176  0.00  0.00     0.037 C 
BRANCH   5   7
ATOM      7  C10 NON d   1     -41.019  21.072  -5.226  0.00  0.00    -0.035 A 
ATOM      8  C11 NON d   1     -41.369  21.555  -3.949  0.00  0.00     0.009 A 
ATOM      9  C12 NON d   1     -41.078  22.864  -3.551  0.00  0.00     0.002 A 
ATOM     10  C13 NON d   1     -40.412  23.722  -4.419  0.00  0.00     0.019 A 
ATOM     11  C14 NON d   1     -40.027  23.258  -5.671  0.00  0.00     0.011 A 
ATOM     12 Br1  NON d   1     -39.106  24.417  -6.849  0.00  0.00    -0.051 Br
ATOM     13  C15 NON d   1     -40.310  21.945  -6.070  0.00  0.00     0.028 A 
ENDBRANCH   5   7
ENDBRANCH   3   5
BRANCH   1  14
ATOM     14  C6  NON d   1     -44.300  17.477  -4.696  0.00  0.00     0.073 A 
ATOM     15  C5  NON d   1     -44.728  17.236  -3.402  0.00  0.00     0.026 A 
ATOM     16  C4  NON d   1     -46.081  16.779  -3.336  0.00  0.00     0.024 A 
ATOM     17  C3  NON d   1     -46.648  16.660  -4.588  0.00  0.00     0.051 A 
ATOM     18  S1  NON d   1     -45.566  17.217  -5.810  0.00  0.00    -0.081 SA
BRANCH  17  19
ATOM     19  C2  NON d   1     -47.957  16.167  -4.994  0.00  0.00     0.162 C 
ATOM     20  C1  NON d   1     -49.102  16.167  -3.965  0.00  0.00     0.097 C 
ATOM     21  O1  NON d   1     -48.192  15.774  -6.142  0.00  0.00    -0.292 OA
ENDBRANCH  17  19
ENDBRANCH   1  14
TORSDOF 4
ENDMDL
MODEL 8
REMARK VINA RESULT:   -14.512      2.476      3.508
REMARK INTER + INTRA:         -16.336
REMARK INTER:                 -15.705
REMARK INTRA:                  -0.631
REMARK CONF_INDEPENDENT:        1.193
REMARK UNBOUND:                -0.631
REMARK  4 active torsions:
REMARK  status: ('A' for Active; 'I' for Inactive)
REMARK    1  A    between atoms: C2_2  and  C3_4 
REMARK    2  A    between atoms: C6_7  and  C7_8 
REMARK       I    between atoms: C7_8  and  N1_10 
REMARK    3  A    between atoms: C8_11  and  N1_10 
REMARK    4  A    between atoms: C8_11  and  C10_13 
ROOT
ATOM      1  C7  NON d   1     -45.072  17.836  -5.099  0.00  0.00     0.259 C 
ATOM      2  O2  NON d   1     -45.190  18.573  -6.076  0.00  0.00    -0.267 OA
ATOM      3  N1  NON d   1     -43.837  17.599  -4.522  0.00  0.00    -0.348 N 
ATOM      4  H6  NON d   1     -43.767  16.866  -3.829  0.00  0.00     0.163 HD
ENDROOT
BRANCH   3   5
ATOM      5  C8  NON d   1     -42.622  18.256  -5.005  0.00  0.00     0.114 C 
ATOM      6  C9  NON d   1     -41.776  17.255  -5.810  0.00  0.00     0.037 C 
BRANCH   5   7
ATOM      7  C10 NON d   1     -41.831  18.944  -3.886  0.00  0.00    -0.035 A 
ATOM      8  C11 NON d   1     -41.495  18.256  -2.702  0.00  0.00     0.009 A 
ATOM      9  C12 NON d   1     -40.750  18.862  -1.685  0.00  0.00     0.002 A 
ATOM     10  C13 NON d   1     -40.305  20.171  -1.834  0.00  0.00     0.019 A 
ATOM     11  C14 NON d   1     -40.595  20.857  -3.007  0.00  0.00     0.011 A 
ATOM     12 Br1  NON d   1     -39.978  22.633  -3.222  0.00  0.00    -0.051 Br
ATOM     13  C15 NON d   1     -41.335  20.252  -4.032  0.00  0.00     0.028 A 
ENDBRANCH   5   7
ENDBRANCH   3   5
BRANCH   1  14
ATOM     14  C6  NON d   1     -46.219  17.160  -4.507  0.00  0.00     0.073 A 
ATOM     15  C5  NON d   1     -46.419  16.880  -3.166  0.00  0.00     0.026 A 
ATOM     16  C4  NON d   1     -47.574  16.071  -2.929  0.00  0.00     0.024 A 
ATOM     17  C3  NON d   1     -48.218  15.734  -4.102  0.00  0.00     0.051 A 
ATOM     18  S1  NON d   1     -47.476  16.502  -5.455  0.00  0.00    -0.081 SA
BRANCH  17  19
ATOM     19  C2  NON d   1     -49.373  14.878  -4.337  0.00  0.00     0.162 C 
ATOM     20  C1  NON d   1     -50.367  14.639  -3.187  0.00  0.00     0.097 C 
ATOM     21  O1  NON d   1     -49.600  14.357  -5.435  0.00  0.00    -0.292 OA
ENDBRANCH  17  19
ENDBRANCH   1  14
TORSDOF 4
ENDMDL
