MODEL 1
REMARK VINA RESULT:   -14.911      0.000      0.000
REMARK INTER + INTRA:         -21.165
REMARK INTER:                 -17.894
REMARK INTRA:                  -3.271
REMARK CONF_INDEPENDENT:        2.983
REMARK UNBOUND:                -3.271
REMARK  10 active torsions:
REMARK  status: ('A' for Active; 'I' for Inactive)
REMARK    1  A    between atoms: O1_2  and  C2_3 
REMARK    2  A    between atoms: C7_9  and  N1_10 
REMARK       I    between atoms: N1_10  and  C8_11 
REMARK    3  A    between atoms: C8_11  and  C9_13 
REMARK    4  A    between atoms: C9_13  and  O3_14 
REMARK    5  A    between atoms: O3_14  and  C10_15 
REMARK    6  A    between atoms: C15_20  and  C16_21 
REMARK       I    between atoms: C16_21  and  N2_23 
REMARK    7  A    between atoms: N2_23  and  N3_24 
REMARK    8  A    between atoms: C17_25  and  C18_26 
REMARK    9  A    between atoms: C22_30  and  O5_31 
REMARK   10  A    between atoms: C23_32  and  O6_33 
ROOT
ATOM      1  C10 NON d   1     -40.483  18.671  -4.550  0.00  0.00     0.085 A 
ATOM      2  C11 NON d   1     -39.207  18.947  -5.074  0.00  0.00     0.038 A 
ATOM      3  C12 NON d   1     -39.049  19.566  -6.314  0.00  0.00     0.003 A 
ATOM      4  C13 NON d   1     -40.163  19.911  -7.061  0.00  0.00     0.001 A 
ATOM      5  C14 NON d   1     -41.440  19.605  -6.584  0.00  0.00     0.020 A 
ATOM      6  C15 NON d   1     -41.629  18.976  -5.332  0.00  0.00     0.067 A 
ENDROOT
BRANCH   6   7
ATOM      7  C16 NON d   1     -43.024  18.598  -4.872  0.00  0.00     0.274 C 
ATOM      8  O4  NON d   1     -44.016  19.189  -5.288  0.00  0.00    -0.266 OA
ATOM      9  N2  NON d   1     -43.127  17.576  -3.921  0.00  0.00    -0.243 N 
ATOM     10  H14 NON d   1     -42.325  17.078  -3.569  0.00  0.00     0.192 HD
BRANCH   9  11
ATOM     11  N3  NON d   1     -44.363  17.197  -3.473  0.00  0.00    -0.183 NA
ATOM     12  C17 NON d   1     -45.224  16.880  -4.386  0.00  0.00     0.153 C 
BRANCH  12  13
ATOM     13  C18 NON d   1     -46.603  16.492  -4.027  0.00  0.00     0.019 A 
ATOM     14  C19 NON d   1     -47.101  16.891  -2.777  0.00  0.00     0.016 A 
ATOM     15  C20 NON d   1     -48.395  16.528  -2.389  0.00  0.00     0.004 A 
ATOM     16  C21 NON d   1     -49.195  15.767  -3.242  0.00  0.00     0.039 A 
ATOM     17  C22 NON d   1     -48.695  15.379  -4.480  0.00  0.00     0.099 A 
ATOM     18  C23 NON d   1     -47.407  15.735  -4.883  0.00  0.00     0.110 A 
BRANCH  17  19
ATOM     19  O5  NON d   1     -49.486  14.632  -5.304  0.00  0.00    -0.358 OA
ATOM     20  H19 NON d   1     -49.063  14.717  -6.185  0.00  0.00     0.217 HD
ENDBRANCH  17  19
BRANCH  18  21
ATOM     21  O6  NON d   1     -47.012  15.300  -6.122  0.00  0.00    -0.357 OA
ATOM     22  H20 NON d   1     -47.810  14.972  -6.604  0.00  0.00     0.217 HD
ENDBRANCH  18  21
ENDBRANCH  12  13
ENDBRANCH   9  11
ENDBRANCH   6   7
BRANCH   1  23
ATOM     23  O3  NON d   1     -40.664  18.140  -3.296  0.00  0.00    -0.341 OA
BRANCH  23  24
ATOM     24  C9  NON d   1     -40.015  18.743  -2.181  0.00  0.00     0.278 C 
BRANCH  24  25
ATOM     25  C8  NON d   1     -40.300  20.253  -2.037  0.00  0.00     0.246 C 
ATOM     26  N1  NON d   1     -39.862  20.763  -0.811  0.00  0.00    -0.323 N 
ATOM     27  H7  NON d   1     -39.145  20.227  -0.343  0.00  0.00     0.169 HD
ATOM     28  O2  NON d   1     -40.742  20.915  -2.971  0.00  0.00    -0.271 OA
BRANCH  26  29
ATOM     29  C7  NON d   1     -40.120  22.059  -0.278  0.00  0.00     0.068 A 
ATOM     30  C6  NON d   1     -40.916  22.905  -1.061  0.00  0.00     0.034 A 
ATOM     31  C5  NON d   1     -41.203  24.200  -0.627  0.00  0.00     0.026 A 
ATOM     32  C4  NON d   1     -40.677  24.663   0.580  0.00  0.00     0.036 A 
ATOM     33  C3  NON d   1     -39.852  23.852   1.358  0.00  0.00     0.062 A 
ATOM     34 Cl1  NON d   1     -41.028  26.267   1.094  0.00  0.00    -0.084 Cl
ATOM     35  C2  NON d   1     -39.565  22.562   0.925  0.00  0.00     0.096 A 
BRANCH  35  36
ATOM     36  O1  NON d   1     -38.687  21.752   1.540  0.00  0.00    -0.354 OA
ATOM     37  C1  NON d   1     -37.160  21.801   1.347  0.00  0.00     0.210 C 
ENDBRANCH  35  36
ENDBRANCH  26  29
ENDBRANCH  24  25
ENDBRANCH  23  24
ENDBRANCH   1  23
TORSDOF 10
ENDMDL
MODEL 2
REMARK VINA RESULT:   -14.576      1.601      2.302
REMARK INTER + INTRA:         -21.168
REMARK INTER:                 -17.559
REMARK INTRA:                  -3.608
REMARK CONF_INDEPENDENT:        2.983
REMARK UNBOUND:                -3.608
REMARK  10 active torsions:
REMARK  status: ('A' for Active; 'I' for Inactive)
REMARK    1  A    between atoms: O1_2  and  C2_3 
REMARK    2  A    between atoms: C7_9  and  N1_10 
REMARK       I    between atoms: N1_10  and  C8_11 
REMARK    3  A    between atoms: C8_11  and  C9_13 
REMARK    4  A    between atoms: C9_13  and  O3_14 
REMARK    5  A    between atoms: O3_14  and  C10_15 
REMARK    6  A    between atoms: C15_20  and  C16_21 
REMARK       I    between atoms: C16_21  and  N2_23 
REMARK    7  A    between atoms: N2_23  and  N3_24 
REMARK    8  A    between atoms: C17_25  and  C18_26 
REMARK    9  A    between atoms: C22_30  and  O5_31 
REMARK   10  A    between atoms: C23_32  and  O6_33 
ROOT
ATOM      1  C10 NON d   1     -40.210  20.362  -3.482  0.00  0.00     0.085 A 
ATOM      2  C11 NON d   1     -38.946  20.659  -2.939  0.00  0.00     0.038 A 
ATOM      3  C12 NON d   1     -38.013  19.656  -2.679  0.00  0.00     0.003 A 
ATOM      4  C13 NON d   1     -38.329  18.333  -2.945  0.00  0.00     0.001 A 
ATOM      5  C14 NON d   1     -39.594  18.008  -3.439  0.00  0.00     0.020 A 
ATOM      6  C15 NON d   1     -40.560  19.004  -3.709  0.00  0.00     0.067 A 
ENDROOT
BRANCH   6   7
ATOM      7  C16 NON d   1     -41.947  18.613  -4.182  0.00  0.00     0.274 C 
ATOM      8  O4  NON d   1     -42.585  19.328  -4.950  0.00  0.00    -0.266 OA
ATOM      9  N2  NON d   1     -42.484  17.426  -3.672  0.00  0.00    -0.243 N 
ATOM     10  H14 NON d   1     -41.976  16.825  -3.042  0.00  0.00     0.192 HD
BRANCH   9  11
ATOM     11  N3  NON d   1     -43.733  17.029  -4.066  0.00  0.00    -0.183 NA
ATOM     12  C17 NON d   1     -44.701  17.315  -3.256  0.00  0.00     0.153 C 
BRANCH  12  13
ATOM     13  C18 NON d   1     -46.088  16.905  -3.555  0.00  0.00     0.019 A 
ATOM     14  C19 NON d   1     -47.062  17.086  -2.561  0.00  0.00     0.016 A 
ATOM     15  C20 NON d   1     -48.384  16.693  -2.795  0.00  0.00     0.004 A 
ATOM     16  C21 NON d   1     -48.739  16.119  -4.016  0.00  0.00     0.039 A 
ATOM     17  C22 NON d   1     -47.768  15.947  -4.995  0.00  0.00     0.099 A 
ATOM     18  C23 NON d   1     -46.445  16.335  -4.779  0.00  0.00     0.110 A 
BRANCH  17  19
ATOM     19  O5  NON d   1     -48.127  15.380  -6.185  0.00  0.00    -0.358 OA
ATOM     20  H19 NON d   1     -47.343  15.509  -6.759  0.00  0.00     0.217 HD
ENDBRANCH  17  19
BRANCH  18  21
ATOM     21  O6  NON d   1     -45.568  16.119  -5.810  0.00  0.00    -0.357 OA
ATOM     22  H20 NON d   1     -44.648  16.163  -5.448  0.00  0.00     0.217 HD
ENDBRANCH  18  21
ENDBRANCH  12  13
ENDBRANCH   9  11
ENDBRANCH   6   7
BRANCH   1  23
ATOM     23  O3  NON d   1     -41.112  21.341  -3.825  0.00  0.00    -0.341 OA
BRANCH  23  24
ATOM     24  C9  NON d   1     -40.637  22.634  -4.184  0.00  0.00     0.278 C 
BRANCH  24  25
ATOM     25  C8  NON d   1     -40.511  23.604  -2.990  0.00  0.00     0.246 C 
ATOM     26  N1  NON d   1     -40.693  22.964  -1.761  0.00  0.00    -0.323 N 
ATOM     27  H7  NON d   1     -40.538  21.966  -1.758  0.00  0.00     0.169 HD
ATOM     28  O2  NON d   1     -40.159  24.770  -3.145  0.00  0.00    -0.271 OA
BRANCH  26  29
ATOM     29  C7  NON d   1     -40.820  23.579  -0.482  0.00  0.00     0.068 A 
ATOM     30  C6  NON d   1     -41.259  24.910  -0.474  0.00  0.00     0.034 A 
ATOM     31  C5  NON d   1     -41.391  25.599   0.732  0.00  0.00     0.026 A 
ATOM     32  C4  NON d   1     -41.065  24.969   1.934  0.00  0.00     0.036 A 
ATOM     33  C3  NON d   1     -40.592  23.658   1.948  0.00  0.00     0.062 A 
ATOM     34 Cl1  NON d   1     -41.221  25.836   3.412  0.00  0.00    -0.084 Cl
ATOM     35  C2  NON d   1     -40.458  22.972   0.745  0.00  0.00     0.096 A 
BRANCH  35  36
ATOM     36  O1  NON d   1     -39.897  21.755   0.645  0.00  0.00    -0.354 OA
ATOM     37  C1  NON d   1     -38.397  21.459   0.828  0.00  0.00     0.210 C 
ENDBRANCH  35  36
ENDBRANCH  26  29
ENDBRANCH  24  25
ENDBRANCH  23  24
ENDBRANCH   1  23
TORSDOF 10
ENDMDL
MODEL 3
REMARK VINA RESULT:   -14.379      1.999      2.901
REMARK INTER + INTRA:         -20.443
REMARK INTER:                 -17.362
REMARK INTRA:                  -3.081
REMARK CONF_INDEPENDENT:        2.983
REMARK UNBOUND:                -3.081
REMARK  10 active torsions:
REMARK  status: ('A' for Active; 'I' for Inactive)
REMARK    1  A    between atoms: O1_2  and  C2_3 
REMARK    2  A    between atoms: C7_9  and  N1_10 
REMARK       I    between atoms: N1_10  and  C8_11 
REMARK    3  A    between atoms: C8_11  and  C9_13 
REMARK    4  A    between atoms: C9_13  and  O3_14 
REMARK    5  A    between atoms: O3_14  and  C10_15 
REMARK    6  A    between atoms: C15_20  and  C16_21 
REMARK       I    between atoms: C16_21  and  N2_23 
REMARK    7  A    between atoms: N2_23  and  N3_24 
REMARK    8  A    between atoms: C17_25  and  C18_26 
REMARK    9  A    between atoms: C22_30  and  O5_31 
REMARK   10  A    between atoms: C23_32  and  O6_33 
ROOT
ATOM      1  C10 NON d   1     -40.248  20.358  -3.338  0.00  0.00     0.085 A 
ATOM      2  C11 NON d   1     -38.994  20.729  -2.818  0.00  0.00     0.038 A 
ATOM      3  C12 NON d   1     -37.993  19.785  -2.592  0.00  0.00     0.003 A 
ATOM      4  C13 NON d   1     -38.228  18.448  -2.869  0.00  0.00     0.001 A 
ATOM      5  C14 NON d   1     -39.480  18.049  -3.342  0.00  0.00     0.020 A 
ATOM      6  C15 NON d   1     -40.514  18.984  -3.578  0.00  0.00     0.067 A 
ENDROOT
BRANCH   6   7
ATOM      7  C16 NON d   1     -41.883  18.510  -4.027  0.00  0.00     0.274 C 
ATOM      8  O4  NON d   1     -42.551  19.156  -4.829  0.00  0.00    -0.266 OA
ATOM      9  N2  NON d   1     -42.369  17.329  -3.455  0.00  0.00    -0.243 N 
ATOM     10  H14 NON d   1     -41.836  16.783  -2.797  0.00  0.00     0.192 HD
BRANCH   9  11
ATOM     11  N3  NON d   1     -43.600  16.859  -3.826  0.00  0.00    -0.183 NA
ATOM     12  C17 NON d   1     -44.618  17.470  -3.312  0.00  0.00     0.153 C 
BRANCH  12  13
ATOM     13  C18 NON d   1     -45.997  17.030  -3.608  0.00  0.00     0.019 A 
ATOM     14  C19 NON d   1     -46.987  17.254  -2.639  0.00  0.00     0.016 A 
ATOM     15  C20 NON d   1     -48.302  16.836  -2.870  0.00  0.00     0.004 A 
ATOM     16  C21 NON d   1     -48.633  16.193  -4.063  0.00  0.00     0.039 A 
ATOM     17  C22 NON d   1     -47.646  15.979  -5.018  0.00  0.00     0.099 A 
ATOM     18  C23 NON d   1     -46.331  16.392  -4.804  0.00  0.00     0.110 A 
BRANCH  17  19
ATOM     19  O5  NON d   1     -47.983  15.346  -6.181  0.00  0.00    -0.358 OA
ATOM     20  H19 NON d   1     -47.296  15.634  -6.819  0.00  0.00     0.217 HD
ENDBRANCH  17  19
BRANCH  18  21
ATOM     21  O6  NON d   1     -45.436  16.130  -5.810  0.00  0.00    -0.357 OA
ATOM     22  H20 NON d   1     -45.945  15.962  -6.641  0.00  0.00     0.217 HD
ENDBRANCH  18  21
ENDBRANCH  12  13
ENDBRANCH   9  11
ENDBRANCH   6   7
BRANCH   1  23
ATOM     23  O3  NON d   1     -41.217  21.281  -3.648  0.00  0.00    -0.341 OA
BRANCH  23  24
ATOM     24  C9  NON d   1     -40.834  22.601  -4.018  0.00  0.00     0.278 C 
BRANCH  24  25
ATOM     25  C8  NON d   1     -40.465  23.501  -2.820  0.00  0.00     0.246 C 
ATOM     26  N1  NON d   1     -40.992  23.028  -1.615  0.00  0.00    -0.323 N 
ATOM     27  H7  NON d   1     -41.228  22.046  -1.594  0.00  0.00     0.169 HD
ATOM     28  O2  NON d   1     -39.685  24.441  -2.940  0.00  0.00    -0.271 OA
BRANCH  26  29
ATOM     29  C7  NON d   1     -40.999  23.698  -0.358  0.00  0.00     0.068 A 
ATOM     30  C6  NON d   1     -40.913  22.885   0.780  0.00  0.00     0.034 A 
ATOM     31  C5  NON d   1     -40.935  23.454   2.054  0.00  0.00     0.026 A 
ATOM     32  C4  NON d   1     -41.065  24.836   2.197  0.00  0.00     0.036 A 
ATOM     33  C3  NON d   1     -41.189  25.662   1.082  0.00  0.00     0.062 A 
ATOM     34 Cl1  NON d   1     -41.104  25.521   3.775  0.00  0.00    -0.084 Cl
ATOM     35  C2  NON d   1     -41.168  25.095  -0.188  0.00  0.00     0.096 A 
BRANCH  35  36
ATOM     36  O1  NON d   1     -41.403  25.790  -1.314  0.00  0.00    -0.354 OA
ATOM     37  C1  NON d   1     -40.840  27.191  -1.617  0.00  0.00     0.210 C 
ENDBRANCH  35  36
ENDBRANCH  26  29
ENDBRANCH  24  25
ENDBRANCH  23  24
ENDBRANCH   1  23
TORSDOF 10
ENDMDL
MODEL 4
REMARK VINA RESULT:   -14.313      1.269      1.863
REMARK INTER + INTRA:         -20.979
REMARK INTER:                 -17.296
REMARK INTRA:                  -3.684
REMARK CONF_INDEPENDENT:        2.983
REMARK UNBOUND:                -3.684
REMARK  10 active torsions:
REMARK  status: ('A' for Active; 'I' for Inactive)
REMARK    1  A    between atoms: O1_2  and  C2_3 
REMARK    2  A    between atoms: C7_9  and  N1_10 
REMARK       I    between atoms: N1_10  and  C8_11 
REMARK    3  A    between atoms: C8_11  and  C9_13 
REMARK    4  A    between atoms: C9_13  and  O3_14 
REMARK    5  A    between atoms: O3_14  and  C10_15 
REMARK    6  A    between atoms: C15_20  and  C16_21 
REMARK       I    between atoms: C16_21  and  N2_23 
REMARK    7  A    between atoms: N2_23  and  N3_24 
REMARK    8  A    between atoms: C17_25  and  C18_26 
REMARK    9  A    between atoms: C22_30  and  O5_31 
REMARK   10  A    between atoms: C23_32  and  O6_33 
ROOT
ATOM      1  C10 NON d   1     -40.560  18.460  -5.028  0.00  0.00     0.085 A 
ATOM      2  C11 NON d   1     -39.334  18.761  -5.650  0.00  0.00     0.038 A 
ATOM      3  C12 NON d   1     -39.267  19.626  -6.742  0.00  0.00     0.003 A 
ATOM      4  C13 NON d   1     -40.425  20.199  -7.242  0.00  0.00     0.001 A 
ATOM      5  C14 NON d   1     -41.659  19.880  -6.670  0.00  0.00     0.020 A 
ATOM      6  C15 NON d   1     -41.757  19.004  -5.565  0.00  0.00     0.067 A 
ENDROOT
BRANCH   6   7
ATOM      7  C16 NON d   1     -43.117  18.626  -5.010  0.00  0.00     0.274 C 
ATOM      8  O4  NON d   1     -44.113  19.305  -5.240  0.00  0.00    -0.266 OA
ATOM      9  N2  NON d   1     -43.178  17.494  -4.189  0.00  0.00    -0.243 N 
ATOM     10  H14 NON d   1     -42.373  16.922  -3.989  0.00  0.00     0.192 HD
BRANCH   9  11
ATOM     11  N3  NON d   1     -44.382  17.110  -3.662  0.00  0.00    -0.183 NA
ATOM     12  C17 NON d   1     -45.331  16.895  -4.515  0.00  0.00     0.153 C 
BRANCH  12  13
ATOM     13  C18 NON d   1     -46.684  16.513  -4.065  0.00  0.00     0.019 A 
ATOM     14  C19 NON d   1     -47.104  16.935  -2.794  0.00  0.00     0.016 A 
ATOM     15  C20 NON d   1     -48.372  16.579  -2.320  0.00  0.00     0.004 A 
ATOM     16  C21 NON d   1     -49.222  15.802  -3.108  0.00  0.00     0.039 A 
ATOM     17  C22 NON d   1     -48.798  15.392  -4.367  0.00  0.00     0.099 A 
ATOM     18  C23 NON d   1     -47.539  15.741  -4.855  0.00  0.00     0.110 A 
BRANCH  17  19
ATOM     19  O5  NON d   1     -49.638  14.630  -5.127  0.00  0.00    -0.358 OA
ATOM     20  H19 NON d   1     -49.254  14.674  -6.028  0.00  0.00     0.217 HD
ENDBRANCH  17  19
BRANCH  18  21
ATOM     21  O6  NON d   1     -47.220  15.283  -6.108  0.00  0.00    -0.357 OA
ATOM     22  H20 NON d   1     -48.056  15.011  -6.560  0.00  0.00     0.217 HD
ENDBRANCH  18  21
ENDBRANCH  12  13
ENDBRANCH   9  11
ENDBRANCH   6   7
BRANCH   1  23
ATOM     23  O3  NON d   1     -40.639  17.679  -3.900  0.00  0.00    -0.341 OA
BRANCH  23  24
ATOM     24  C9  NON d   1     -39.836  17.999  -2.769  0.00  0.00     0.278 C 
BRANCH  24  25
ATOM     25  C8  NON d   1     -40.479  19.034  -1.822  0.00  0.00     0.246 C 
ATOM     26  N1  NON d   1     -39.958  20.319  -2.004  0.00  0.00    -0.323 N 
ATOM     27  H7  NON d   1     -39.522  20.494  -2.898  0.00  0.00     0.169 HD
ATOM     28  O2  NON d   1     -41.429  18.743  -1.102  0.00  0.00    -0.271 OA
BRANCH  26  29
ATOM     29  C7  NON d   1     -40.190  21.463  -1.188  0.00  0.00     0.068 A 
ATOM     30  C6  NON d   1     -40.315  21.231   0.187  0.00  0.00     0.034 A 
ATOM     31  C5  NON d   1     -40.565  22.291   1.060  0.00  0.00     0.026 A 
ATOM     32  C4  NON d   1     -40.714  23.585   0.558  0.00  0.00     0.036 A 
ATOM     33  C3  NON d   1     -40.631  23.835  -0.810  0.00  0.00     0.062 A 
ATOM     34 Cl1  NON d   1     -41.036  24.879   1.646  0.00  0.00    -0.084 Cl
ATOM     35  C2  NON d   1     -40.383  22.778  -1.680  0.00  0.00     0.096 A 
BRANCH  35  36
ATOM     36  O1  NON d   1     -40.407  22.898  -3.018  0.00  0.00    -0.354 OA
ATOM     37  C1  NON d   1     -41.304  22.073  -3.959  0.00  0.00     0.210 C 
ENDBRANCH  35  36
ENDBRANCH  26  29
ENDBRANCH  24  25
ENDBRANCH  23  24
ENDBRANCH   1  23
TORSDOF 10
ENDMDL
MODEL 5
REMARK VINA RESULT:   -14.198      3.452      5.596
REMARK INTER + INTRA:         -21.706
REMARK INTER:                 -17.181
REMARK INTRA:                  -4.525
REMARK CONF_INDEPENDENT:        2.983
REMARK UNBOUND:                -4.525
REMARK  10 active torsions:
REMARK  status: ('A' for Active; 'I' for Inactive)
REMARK    1  A    between atoms: O1_2  and  C2_3 
REMARK    2  A    between atoms: C7_9  and  N1_10 
REMARK       I    between atoms: N1_10  and  C8_11 
REMARK    3  A    between atoms: C8_11  and  C9_13 
REMARK    4  A    between atoms: C9_13  and  O3_14 
REMARK    5  A    between atoms: O3_14  and  C10_15 
REMARK    6  A    between atoms: C15_20  and  C16_21 
REMARK       I    between atoms: C16_21  and  N2_23 
REMARK    7  A    between atoms: N2_23  and  N3_24 
REMARK    8  A    between atoms: C17_25  and  C18_26 
REMARK    9  A    between atoms: C22_30  and  O5_31 
REMARK   10  A    between atoms: C23_32  and  O6_33 
ROOT
ATOM      1  C10 NON d   1     -40.031  20.245  -3.366  0.00  0.00     0.085 A 
ATOM      2  C11 NON d   1     -38.743  20.450  -2.840  0.00  0.00     0.038 A 
ATOM      3  C12 NON d   1     -37.749  19.478  -2.952  0.00  0.00     0.003 A 
ATOM      4  C13 NON d   1     -38.026  18.276  -3.582  0.00  0.00     0.001 A 
ATOM      5  C14 NON d   1     -39.311  18.030  -4.071  0.00  0.00     0.020 A 
ATOM      6  C15 NON d   1     -40.338  18.996  -3.969  0.00  0.00     0.067 A 
ENDROOT
BRANCH   6   7
ATOM      7  C16 NON d   1     -41.740  18.672  -4.450  0.00  0.00     0.274 C 
ATOM      8  O4  NON d   1     -42.274  19.323  -5.343  0.00  0.00    -0.266 OA
ATOM      9  N2  NON d   1     -42.412  17.631  -3.802  0.00  0.00    -0.243 N 
ATOM     10  H14 NON d   1     -41.990  17.084  -3.068  0.00  0.00     0.192 HD
BRANCH   9  11
ATOM     11  N3  NON d   1     -43.680  17.300  -4.198  0.00  0.00    -0.183 NA
ATOM     12  C17 NON d   1     -44.596  17.376  -3.287  0.00  0.00     0.153 C 
BRANCH  12  13
ATOM     13  C18 NON d   1     -45.995  17.008  -3.584  0.00  0.00     0.019 A 
ATOM     14  C19 NON d   1     -46.968  17.252  -2.603  0.00  0.00     0.016 A 
ATOM     15  C20 NON d   1     -48.302  16.901  -2.835  0.00  0.00     0.004 A 
ATOM     16  C21 NON d   1     -48.670  16.305  -4.042  0.00  0.00     0.039 A 
ATOM     17  C22 NON d   1     -47.700  16.071  -5.009  0.00  0.00     0.099 A 
ATOM     18  C23 NON d   1     -46.366  16.418  -4.794  0.00  0.00     0.110 A 
BRANCH  17  19
ATOM     19  O5  NON d   1     -48.072  15.484  -6.185  0.00  0.00    -0.358 OA
ATOM     20  H19 NON d   1     -47.371  15.747  -6.817  0.00  0.00     0.217 HD
ENDBRANCH  17  19
BRANCH  18  21
ATOM     21  O6  NON d   1     -45.490  16.140  -5.812  0.00  0.00    -0.357 OA
ATOM     22  H20 NON d   1     -44.596  16.475  -5.552  0.00  0.00     0.217 HD
ENDBRANCH  18  21
ENDBRANCH  12  13
ENDBRANCH   9  11
ENDBRANCH   6   7
BRANCH   1  23
ATOM     23  O3  NON d   1     -40.999  21.220  -3.343  0.00  0.00    -0.341 OA
BRANCH  23  24
ATOM     24  C9  NON d   1     -40.622  22.584  -3.495  0.00  0.00     0.278 C 
BRANCH  24  25
ATOM     25  C8  NON d   1     -40.461  23.024  -4.966  0.00  0.00     0.246 C 
ATOM     26  N1  NON d   1     -40.443  21.941  -5.848  0.00  0.00    -0.323 N 
ATOM     27  H7  NON d   1     -40.865  21.088  -5.506  0.00  0.00     0.169 HD
ATOM     28  O2  NON d   1     -40.483  24.209  -5.287  0.00  0.00    -0.271 OA
BRANCH  26  29
ATOM     29  C7  NON d   1     -40.135  21.969  -7.238  0.00  0.00     0.068 A 
ATOM     30  C6  NON d   1     -39.780  23.216  -7.770  0.00  0.00     0.034 A 
ATOM     31  C5  NON d   1     -39.482  23.342  -9.128  0.00  0.00     0.026 A 
ATOM     32  C4  NON d   1     -39.559  22.227  -9.965  0.00  0.00     0.036 A 
ATOM     33  C3  NON d   1     -39.946  20.985  -9.466  0.00  0.00     0.062 A 
ATOM     34 Cl1  NON d   1     -39.203  22.402 -11.639  0.00  0.00    -0.084 Cl
ATOM     35  C2  NON d   1     -40.244  20.859  -8.113  0.00  0.00     0.096 A 
BRANCH  35  36
ATOM     36  O1  NON d   1     -40.742  19.738  -7.564  0.00  0.00    -0.354 OA
ATOM     37  C1  NON d   1     -39.945  18.439  -7.341  0.00  0.00     0.210 C 
ENDBRANCH  35  36
ENDBRANCH  26  29
ENDBRANCH  24  25
ENDBRANCH  23  24
ENDBRANCH   1  23
TORSDOF 10
ENDMDL
MODEL 6
REMARK VINA RESULT:   -14.163      4.182      6.388
REMARK INTER + INTRA:         -20.506
REMARK INTER:                 -17.146
REMARK INTRA:                  -3.360
REMARK CONF_INDEPENDENT:        2.983
REMARK UNBOUND:                -3.360
REMARK  10 active torsions:
REMARK  status: ('A' for Active; 'I' for Inactive)
REMARK    1  A    between atoms: O1_2  and  C2_3 
REMARK    2  A    between atoms: C7_9  and  N1_10 
REMARK       I    between atoms: N1_10  and  C8_11 
REMARK    3  A    between atoms: C8_11  and  C9_13 
REMARK    4  A    between atoms: C9_13  and  O3_14 
REMARK    5  A    between atoms: O3_14  and  C10_15 
REMARK    6  A    between atoms: C15_20  and  C16_21 
REMARK       I    between atoms: C16_21  and  N2_23 
REMARK    7  A    between atoms: N2_23  and  N3_24 
REMARK    8  A    between atoms: C17_25  and  C18_26 
REMARK    9  A    between atoms: C22_30  and  O5_31 
REMARK   10  A    between atoms: C23_32  and  O6_33 
ROOT
ATOM      1  C10 NON d   1     -39.146  19.108  -5.134  0.00  0.00     0.085 A 
ATOM      2  C11 NON d   1     -37.855  19.377  -4.643  0.00  0.00     0.038 A 
ATOM      3  C12 NON d   1     -37.517  19.124  -3.314  0.00  0.00     0.003 A 
ATOM      4  C13 NON d   1     -38.466  18.609  -2.445  0.00  0.00     0.001 A 
ATOM      5  C14 NON d   1     -39.767  18.378  -2.898  0.00  0.00     0.020 A 
ATOM      6  C15 NON d   1     -40.138  18.627  -4.238  0.00  0.00     0.067 A 
ENDROOT
BRANCH   6   7
ATOM      7  C16 NON d   1     -41.575  18.429  -4.682  0.00  0.00     0.274 C 
ATOM      8  O4  NON d   1     -42.035  19.031  -5.647  0.00  0.00    -0.266 OA
ATOM      9  N2  NON d   1     -42.365  17.564  -3.916  0.00  0.00    -0.243 N 
ATOM     10  H14 NON d   1     -42.006  17.059  -3.121  0.00  0.00     0.192 HD
BRANCH   9  11
ATOM     11  N3  NON d   1     -43.669  17.352  -4.273  0.00  0.00    -0.183 NA
ATOM     12  C17 NON d   1     -44.511  17.230  -3.298  0.00  0.00     0.153 C 
BRANCH  12  13
ATOM     13  C18 NON d   1     -45.940  16.960  -3.557  0.00  0.00     0.019 A 
ATOM     14  C19 NON d   1     -46.865  17.256  -2.544  0.00  0.00     0.016 A 
ATOM     15  C20 NON d   1     -48.226  16.998  -2.741  0.00  0.00     0.004 A 
ATOM     16  C21 NON d   1     -48.668  16.445  -3.943  0.00  0.00     0.039 A 
ATOM     17  C22 NON d   1     -47.745  16.159  -4.941  0.00  0.00     0.099 A 
ATOM     18  C23 NON d   1     -46.384  16.413  -4.763  0.00  0.00     0.110 A 
BRANCH  17  19
ATOM     19  O5  NON d   1     -48.190  15.615  -6.112  0.00  0.00    -0.358 OA
ATOM     20  H19 NON d   1     -47.453  15.764  -6.742  0.00  0.00     0.217 HD
ENDBRANCH  17  19
BRANCH  18  21
ATOM     21  O6  NON d   1     -45.560  16.092  -5.810  0.00  0.00    -0.357 OA
ATOM     22  H20 NON d   1     -44.626  16.267  -5.534  0.00  0.00     0.217 HD
ENDBRANCH  18  21
ENDBRANCH  12  13
ENDBRANCH   9  11
ENDBRANCH   6   7
BRANCH   1  23
ATOM     23  O3  NON d   1     -39.477  19.269  -6.459  0.00  0.00    -0.341 OA
BRANCH  23  24
ATOM     24  C9  NON d   1     -38.539  18.899  -7.464  0.00  0.00     0.278 C 
BRANCH  24  25
ATOM     25  C8  NON d   1     -38.390  19.943  -8.590  0.00  0.00     0.246 C 
ATOM     26  N1  NON d   1     -39.308  20.991  -8.471  0.00  0.00    -0.323 N 
ATOM     27  H7  NON d   1     -39.692  21.136  -7.548  0.00  0.00     0.169 HD
ATOM     28  O2  NON d   1     -37.470  19.887  -9.400  0.00  0.00    -0.271 OA
BRANCH  26  29
ATOM     29  C7  NON d   1     -39.567  22.019  -9.423  0.00  0.00     0.068 A 
ATOM     30  C6  NON d   1     -39.175  21.757 -10.742  0.00  0.00     0.034 A 
ATOM     31  C5  NON d   1     -39.370  22.715 -11.737  0.00  0.00     0.026 A 
ATOM     32  C4  NON d   1     -39.938  23.949 -11.414  0.00  0.00     0.036 A 
ATOM     33  C3  NON d   1     -40.302  24.246 -10.103  0.00  0.00     0.062 A 
ATOM     34 Cl1  NON d   1     -40.159  25.125 -12.650  0.00  0.00    -0.084 Cl
ATOM     35  C2  NON d   1     -40.106  23.291  -9.110  0.00  0.00     0.096 A 
BRANCH  35  36
ATOM     36  O1  NON d   1     -40.310  23.528  -7.803  0.00  0.00    -0.354 OA
ATOM     37  C1  NON d   1     -39.840  24.788  -7.053  0.00  0.00     0.210 C 
ENDBRANCH  35  36
ENDBRANCH  26  29
ENDBRANCH  24  25
ENDBRANCH  23  24
ENDBRANCH   1  23
TORSDOF 10
ENDMDL
MODEL 7
REMARK VINA RESULT:   -13.947      4.136      6.584
REMARK INTER + INTRA:         -20.367
REMARK INTER:                 -16.930
REMARK INTRA:                  -3.436
REMARK CONF_INDEPENDENT:        2.983
REMARK UNBOUND:                -3.436
REMARK  10 active torsions:
REMARK  status: ('A' for Active; 'I' for Inactive)
REMARK    1  A    between atoms: O1_2  and  C2_3 
REMARK    2  A    between atoms: C7_9  and  N1_10 
REMARK       I    between atoms: N1_10  and  C8_11 
REMARK    3  A    between atoms: C8_11  and  C9_13 
REMARK    4  A    between atoms: C9_13  and  O3_14 
REMARK    5  A    between atoms: O3_14  and  C10_15 
REMARK    6  A    between atoms: C15_20  and  C16_21 
REMARK       I    between atoms: C16_21  and  N2_23 
REMARK    7  A    between atoms: N2_23  and  N3_24 
REMARK    8  A    between atoms: C17_25  and  C18_26 
REMARK    9  A    between atoms: C22_30  and  O5_31 
REMARK   10  A    between atoms: C23_32  and  O6_33 
ROOT
ATOM      1  C10 NON d   1     -39.997  19.091  -4.643  0.00  0.00     0.085 A 
ATOM      2  C11 NON d   1     -38.744  19.733  -4.667  0.00  0.00     0.038 A 
ATOM      3  C12 NON d   1     -37.918  19.754  -3.544  0.00  0.00     0.003 A 
ATOM      4  C13 NON d   1     -38.330  19.145  -2.370  0.00  0.00     0.001 A 
ATOM      5  C14 NON d   1     -39.589  18.542  -2.308  0.00  0.00     0.020 A 
ATOM      6  C15 NON d   1     -40.449  18.508  -3.429  0.00  0.00     0.067 A 
ENDROOT
BRANCH   6   7
ATOM      7  C16 NON d   1     -41.835  17.905  -3.310  0.00  0.00     0.274 C 
ATOM      8  O4  NON d   1     -42.481  17.990  -2.269  0.00  0.00    -0.266 OA
ATOM      9  N2  NON d   1     -42.327  17.211  -4.421  0.00  0.00    -0.243 N 
ATOM     10  H14 NON d   1     -41.813  17.131  -5.284  0.00  0.00     0.192 HD
BRANCH   9  11
ATOM     11  N3  NON d   1     -43.573  16.648  -4.364  0.00  0.00    -0.183 NA
ATOM     12  C17 NON d   1     -44.551  17.459  -4.119  0.00  0.00     0.153 C 
BRANCH  12  13
ATOM     13  C18 NON d   1     -45.937  16.963  -3.996  0.00  0.00     0.019 A 
ATOM     14  C19 NON d   1     -46.644  17.255  -2.819  0.00  0.00     0.016 A 
ATOM     15  C20 NON d   1     -47.952  16.788  -2.653  0.00  0.00     0.004 A 
ATOM     16  C21 NON d   1     -48.558  16.030  -3.655  0.00  0.00     0.039 A 
ATOM     17  C22 NON d   1     -47.851  15.749  -4.818  0.00  0.00     0.099 A 
ATOM     18  C23 NON d   1     -46.547  16.209  -5.001  0.00  0.00     0.110 A 
BRANCH  17  19
ATOM     19  O5  NON d   1     -48.455  15.003  -5.791  0.00  0.00    -0.358 OA
ATOM     20  H19 NON d   1     -48.061  15.333  -6.626  0.00  0.00     0.217 HD
ENDBRANCH  17  19
BRANCH  18  21
ATOM     21  O6  NON d   1     -45.940  15.874  -6.184  0.00  0.00    -0.357 OA
ATOM     22  H20 NON d   1     -46.638  15.566  -6.814  0.00  0.00     0.217 HD
ENDBRANCH  18  21
ENDBRANCH  12  13
ENDBRANCH   9  11
ENDBRANCH   6   7
BRANCH   1  23
ATOM     23  O3  NON d   1     -40.790  18.985  -5.760  0.00  0.00    -0.341 OA
BRANCH  23  24
ATOM     24  C9  NON d   1     -41.279  20.166  -6.386  0.00  0.00     0.278 C 
BRANCH  24  25
ATOM     25  C8  NON d   1     -40.853  20.311  -7.862  0.00  0.00     0.246 C 
ATOM     26  N1  NON d   1     -39.513  20.687  -7.997  0.00  0.00    -0.323 N 
ATOM     27  H7  NON d   1     -38.919  20.487  -7.204  0.00  0.00     0.169 HD
ATOM     28  O2  NON d   1     -41.602  19.992  -8.781  0.00  0.00    -0.271 OA
BRANCH  26  29
ATOM     29  C7  NON d   1     -38.847  21.078  -9.193  0.00  0.00     0.068 A 
ATOM     30  C6  NON d   1     -39.555  21.933 -10.047  0.00  0.00     0.034 A 
ATOM     31  C5  NON d   1     -38.987  22.351 -11.252  0.00  0.00     0.026 A 
ATOM     32  C4  NON d   1     -37.719  21.899 -11.619  0.00  0.00     0.036 A 
ATOM     33  C3  NON d   1     -37.011  21.019 -10.803  0.00  0.00     0.062 A 
ATOM     34 Cl1  NON d   1     -37.040  22.412 -13.114  0.00  0.00    -0.084 Cl
ATOM     35  C2  NON d   1     -37.577  20.601  -9.602  0.00  0.00     0.096 A 
BRANCH  35  36
ATOM     36  O1  NON d   1     -37.028  19.664  -8.811  0.00  0.00    -0.354 OA
ATOM     37  C1  NON d   1     -37.710  18.343  -8.409  0.00  0.00     0.210 C 
ENDBRANCH  35  36
ENDBRANCH  26  29
ENDBRANCH  24  25
ENDBRANCH  23  24
ENDBRANCH   1  23
TORSDOF 10
ENDMDL
MODEL 8
REMARK VINA RESULT:   -13.377      1.621      2.015
REMARK INTER + INTRA:         -20.487
REMARK INTER:                 -16.360
REMARK INTRA:                  -4.127
REMARK CONF_INDEPENDENT:        2.983
REMARK UNBOUND:                -4.127
REMARK  10 active torsions:
REMARK  status: ('A' for Active; 'I' for Inactive)
REMARK    1  A    between atoms: O1_2  and  C2_3 
REMARK    2  A    between atoms: C7_9  and  N1_10 
REMARK       I    between atoms: N1_10  and  C8_11 
REMARK    3  A    between atoms: C8_11  and  C9_13 
REMARK    4  A    between atoms: C9_13  and  O3_14 
REMARK    5  A    between atoms: O3_14  and  C10_15 
REMARK    6  A    between atoms: C15_20  and  C16_21 
REMARK       I    between atoms: C16_21  and  N2_23 
REMARK    7  A    between atoms: N2_23  and  N3_24 
REMARK    8  A    between atoms: C17_25  and  C18_26 
REMARK    9  A    between atoms: C22_30  and  O5_31 
REMARK   10  A    between atoms: C23_32  and  O6_33 
ROOT
ATOM      1  C10 NON d   1     -40.400  18.768  -4.779  0.00  0.00     0.085 A 
ATOM      2  C11 NON d   1     -39.148  19.038  -5.363  0.00  0.00     0.038 A 
ATOM      3  C12 NON d   1     -39.046  19.669  -6.602  0.00  0.00     0.003 A 
ATOM      4  C13 NON d   1     -40.193  20.032  -7.290  0.00  0.00     0.001 A 
ATOM      5  C14 NON d   1     -41.447  19.733  -6.753  0.00  0.00     0.020 A 
ATOM      6  C15 NON d   1     -41.580  19.092  -5.500  0.00  0.00     0.067 A 
ENDROOT
BRANCH   6   7
ATOM      7  C16 NON d   1     -42.954  18.721  -4.975  0.00  0.00     0.274 C 
ATOM      8  O4  NON d   1     -43.939  19.411  -5.219  0.00  0.00    -0.266 OA
ATOM      9  N2  NON d   1     -43.042  17.584  -4.164  0.00  0.00    -0.243 N 
ATOM     10  H14 NON d   1     -42.246  17.003  -3.953  0.00  0.00     0.192 HD
BRANCH   9  11
ATOM     11  N3  NON d   1     -44.259  17.206  -3.665  0.00  0.00    -0.183 NA
ATOM     12  C17 NON d   1     -45.161  16.900  -4.541  0.00  0.00     0.153 C 
BRANCH  12  13
ATOM     13  C18 NON d   1     -46.524  16.515  -4.125  0.00  0.00     0.019 A 
ATOM     14  C19 NON d   1     -46.976  16.932  -2.863  0.00  0.00     0.016 A 
ATOM     15  C20 NON d   1     -48.254  16.572  -2.422  0.00  0.00     0.004 A 
ATOM     16  C21 NON d   1     -49.083  15.797  -3.232  0.00  0.00     0.039 A 
ATOM     17  C22 NON d   1     -48.629  15.392  -4.482  0.00  0.00     0.099 A 
ATOM     18  C23 NON d   1     -47.358  15.744  -4.939  0.00  0.00     0.110 A 
BRANCH  17  19
ATOM     19  O5  NON d   1     -49.449  14.630  -5.265  0.00  0.00    -0.358 OA
ATOM     20  H19 NON d   1     -48.948  14.519  -6.100  0.00  0.00     0.217 HD
ENDBRANCH  17  19
BRANCH  18  21
ATOM     21  O6  NON d   1     -47.008  15.291  -6.185  0.00  0.00    -0.357 OA
ATOM     22  H20 NON d   1     -47.838  15.116  -6.695  0.00  0.00     0.217 HD
ENDBRANCH  18  21
ENDBRANCH  12  13
ENDBRANCH   9  11
ENDBRANCH   6   7
BRANCH   1  23
ATOM     23  O3  NON d   1     -40.523  18.225  -3.522  0.00  0.00    -0.341 OA
BRANCH  23  24
ATOM     24  C9  NON d   1     -39.602  18.601  -2.505  0.00  0.00     0.278 C 
BRANCH  24  25
ATOM     25  C8  NON d   1     -39.517  20.125  -2.274  0.00  0.00     0.246 C 
ATOM     26  N1  NON d   1     -40.559  20.818  -2.896  0.00  0.00    -0.323 N 
ATOM     27  H7  NON d   1     -41.385  20.275  -3.105  0.00  0.00     0.169 HD
ATOM     28  O2  NON d   1     -38.687  20.614  -1.513  0.00  0.00    -0.271 OA
BRANCH  26  29
ATOM     29  C7  NON d   1     -40.688  22.229  -3.039  0.00  0.00     0.068 A 
ATOM     30  C6  NON d   1     -40.442  22.750  -4.315  0.00  0.00     0.034 A 
ATOM     31  C5  NON d   1     -40.524  24.125  -4.542  0.00  0.00     0.026 A 
ATOM     32  C4  NON d   1     -40.831  24.987  -3.488  0.00  0.00     0.036 A 
ATOM     33  C3  NON d   1     -41.044  24.496  -2.202  0.00  0.00     0.062 A 
ATOM     34 Cl1  NON d   1     -40.915  26.680  -3.781  0.00  0.00    -0.084 Cl
ATOM     35  C2  NON d   1     -40.961  23.126  -1.976  0.00  0.00     0.096 A 
BRANCH  35  36
ATOM     36  O1  NON d   1     -41.028  22.571  -0.754  0.00  0.00    -0.354 OA
ATOM     37  C1  NON d   1     -39.880  22.560   0.272  0.00  0.00     0.210 C 
ENDBRANCH  35  36
ENDBRANCH  26  29
ENDBRANCH  24  25
ENDBRANCH  23  24
ENDBRANCH   1  23
TORSDOF 10
ENDMDL
MODEL 9
REMARK VINA RESULT:   -13.250      2.101      3.077
REMARK INTER + INTRA:         -20.271
REMARK INTER:                 -16.233
REMARK INTRA:                  -4.038
REMARK CONF_INDEPENDENT:        2.983
REMARK UNBOUND:                -4.038
REMARK  10 active torsions:
REMARK  status: ('A' for Active; 'I' for Inactive)
REMARK    1  A    between atoms: O1_2  and  C2_3 
REMARK    2  A    between atoms: C7_9  and  N1_10 
REMARK       I    between atoms: N1_10  and  C8_11 
REMARK    3  A    between atoms: C8_11  and  C9_13 
REMARK    4  A    between atoms: C9_13  and  O3_14 
REMARK    5  A    between atoms: O3_14  and  C10_15 
REMARK    6  A    between atoms: C15_20  and  C16_21 
REMARK       I    between atoms: C16_21  and  N2_23 
REMARK    7  A    between atoms: N2_23  and  N3_24 
REMARK    8  A    between atoms: C17_25  and  C18_26 
REMARK    9  A    between atoms: C22_30  and  O5_31 
REMARK   10  A    between atoms: C23_32  and  O6_33 
ROOT
ATOM      1  C10 NON d   1     -39.138  18.953  -5.003  0.00  0.00     0.085 A 
ATOM      2  C11 NON d   1     -37.838  19.195  -4.521  0.00  0.00     0.038 A 
ATOM      3  C12 NON d   1     -37.529  19.061  -3.168  0.00  0.00     0.003 A 
ATOM      4  C13 NON d   1     -38.514  18.693  -2.266  0.00  0.00     0.001 A 
ATOM      5  C14 NON d   1     -39.823  18.493  -2.713  0.00  0.00     0.020 A 
ATOM      6  C15 NON d   1     -40.166  18.625  -4.078  0.00  0.00     0.067 A 
ENDROOT
BRANCH   6   7
ATOM      7  C16 NON d   1     -41.608  18.467  -4.521  0.00  0.00     0.274 C 
ATOM      8  O4  NON d   1     -42.114  19.236  -5.333  0.00  0.00    -0.266 OA
ATOM      9  N2  NON d   1     -42.347  17.436  -3.931  0.00  0.00    -0.243 N 
ATOM     10  H14 NON d   1     -41.949  16.793  -3.264  0.00  0.00     0.192 HD
BRANCH   9  11
ATOM     11  N3  NON d   1     -43.653  17.251  -4.296  0.00  0.00    -0.183 NA
ATOM     12  C17 NON d   1     -44.502  17.140  -3.326  0.00  0.00     0.153 C 
BRANCH  12  13
ATOM     13  C18 NON d   1     -45.934  16.900  -3.594  0.00  0.00     0.019 A 
ATOM     14  C19 NON d   1     -46.863  17.255  -2.604  0.00  0.00     0.016 A 
ATOM     15  C20 NON d   1     -48.228  17.027  -2.808  0.00  0.00     0.004 A 
ATOM     16  C21 NON d   1     -48.671  16.444  -3.996  0.00  0.00     0.039 A 
ATOM     17  C22 NON d   1     -47.744  16.100  -4.972  0.00  0.00     0.099 A 
ATOM     18  C23 NON d   1     -46.379  16.323  -4.785  0.00  0.00     0.110 A 
BRANCH  17  19
ATOM     19  O5  NON d   1     -48.190  15.527  -6.129  0.00  0.00    -0.358 OA
ATOM     20  H19 NON d   1     -47.516  15.777  -6.796  0.00  0.00     0.217 HD
ENDBRANCH  17  19
BRANCH  18  21
ATOM     21  O6  NON d   1     -45.551  15.944  -5.810  0.00  0.00    -0.357 OA
ATOM     22  H20 NON d   1     -44.656  15.760  -5.433  0.00  0.00     0.217 HD
ENDBRANCH  18  21
ENDBRANCH  12  13
ENDBRANCH   9  11
ENDBRANCH   6   7
BRANCH   1  23
ATOM     23  O3  NON d   1     -39.446  18.997  -6.341  0.00  0.00    -0.341 OA
BRANCH  23  24
ATOM     24  C9  NON d   1     -39.800  20.240  -6.937  0.00  0.00     0.278 C 
BRANCH  24  25
ATOM     25  C8  NON d   1     -39.501  21.465  -6.048  0.00  0.00     0.246 C 
ATOM     26  N1  NON d   1     -40.546  21.751  -5.164  0.00  0.00    -0.323 N 
ATOM     27  H7  NON d   1     -41.172  20.984  -4.962  0.00  0.00     0.169 HD
ATOM     28  O2  NON d   1     -38.403  22.013  -6.058  0.00  0.00    -0.271 OA
BRANCH  26  29
ATOM     29  C7  NON d   1     -40.681  22.901  -4.336  0.00  0.00     0.068 A 
ATOM     30  C6  NON d   1     -40.620  24.143  -4.983  0.00  0.00     0.034 A 
ATOM     31  C5  NON d   1     -40.722  25.324  -4.248  0.00  0.00     0.026 A 
ATOM     32  C4  NON d   1     -40.861  25.272  -2.860  0.00  0.00     0.036 A 
ATOM     33  C3  NON d   1     -40.886  24.050  -2.191  0.00  0.00     0.062 A 
ATOM     34 Cl1  NON d   1     -40.970  26.738  -1.967  0.00  0.00    -0.084 Cl
ATOM     35  C2  NON d   1     -40.784  22.872  -2.924  0.00  0.00     0.096 A 
BRANCH  35  36
ATOM     36  O1  NON d   1     -40.676  21.656  -2.361  0.00  0.00    -0.354 OA
ATOM     37  C1  NON d   1     -39.798  21.327  -1.140  0.00  0.00     0.210 C 
ENDBRANCH  35  36
ENDBRANCH  26  29
ENDBRANCH  24  25
ENDBRANCH  23  24
ENDBRANCH   1  23
TORSDOF 10
ENDMDL
