MODEL 1
REMARK VINA RESULT:   -32.138      0.000      0.000
REMARK INTER + INTRA:         -35.105
REMARK INTER:                 -33.928
REMARK INTRA:                  -1.177
REMARK CONF_INDEPENDENT:        1.790
REMARK UNBOUND:                -1.177
REMARK  6 active torsions:
REMARK  status: ('A' for Active; 'I' for Inactive)
REMARK    1  A    between atoms: C2_2  and  C9_19 
REMARK    2  A    between atoms: N1_3  and  N2_4 
REMARK       I    between atoms: N2_4  and  C3_5 
REMARK    3  A    between atoms: C3_5  and  C4_7 
REMARK    4  A    between atoms: N5_12  and  C7_13 
REMARK    5  A    between atoms: C8_17  and  N8_18 
REMARK    6  A    between atoms: C12_22  and  O3_23 
ROOT
ATOM      1  N2  NON d   1     -41.432  19.192  -6.229  0.00  0.00    -0.241 N 
ATOM      2  C3  NON d   1     -42.726  19.075  -5.734  0.00  0.00     0.292 C 
ATOM      3  O1  NON d   1     -43.652  19.769  -6.151  0.00  0.00    -0.264 OA
ATOM      4  H4  NON d   1     -40.704  18.556  -5.940  0.00  0.00     0.192 HD
ENDROOT
BRANCH   2   5
ATOM      5  C4  NON d   1     -42.914  18.105  -4.690  0.00  0.00     0.157 C 
ATOM      6  C5  NON d   1     -42.039  17.689  -3.691  0.00  0.00     0.089 C 
ATOM      7  C6  NON d   1     -40.626  18.032  -3.411  0.00  0.00     0.075 C 
ATOM      8  N3  NON d   1     -42.693  16.893  -2.808  0.00  0.00    -0.134 NA
ATOM      9  N4  NON d   1     -43.951  16.811  -3.185  0.00  0.00    -0.058 NA
ATOM     10  N5  NON d   1     -44.119  17.453  -4.384  0.00  0.00    -0.184 N 
BRANCH  10  11
ATOM     11  C7  NON d   1     -45.358  17.326  -5.084  0.00  0.00     0.224 A 
ATOM     12  N6  NON d   1     -45.569  18.181  -6.094  0.00  0.00    -0.081 NA
ATOM     13  O2  NON d   1     -46.840  17.888  -6.558  0.00  0.00    -0.103 OA
ATOM     14  N7  NON d   1     -47.420  16.879  -5.810  0.00  0.00    -0.089 NA
ATOM     15  C8  NON d   1     -46.507  16.528  -4.904  0.00  0.00     0.181 A 
BRANCH  15  16
ATOM     16  N8  NON d   1     -46.762  15.588  -3.968  0.00  0.00    -0.282 NA
ATOM     17  H8  NON d   1     -46.175  15.631  -3.127  0.00  0.00     0.126 HD
ATOM     18  H9  NON d   1     -46.717  14.634  -4.321  0.00  0.00     0.126 HD
ENDBRANCH  15  16
ENDBRANCH  10  11
ENDBRANCH   2   5
BRANCH   1  19
ATOM     19  N1  NON d   1     -41.194  19.961  -7.333  0.00  0.00    -0.176 NA
ATOM     20  C2  NON d   1     -40.477  21.044  -7.207  0.00  0.00     0.061 C 
ATOM     21  C1  NON d   1     -40.026  21.585  -5.861  0.00  0.00     0.073 C 
BRANCH  20  22
ATOM     22  C9  NON d   1     -40.087  21.794  -8.453  0.00  0.00    -0.010 A 
ATOM     23  C10 NON d   1     -39.574  21.077  -9.547  0.00  0.00     0.016 A 
ATOM     24  C11 NON d   1     -39.182  21.740 -10.714  0.00  0.00     0.037 A 
ATOM     25  C12 NON d   1     -39.303  23.120 -10.799  0.00  0.00     0.065 A 
ATOM     26  C13 NON d   1     -39.802  23.851  -9.727  0.00  0.00     0.037 A 
ATOM     27  C14 NON d   1     -40.185  23.190  -8.553  0.00  0.00     0.016 A 
BRANCH  25  28
ATOM     28  O3  NON d   1     -38.916  23.725 -11.957  0.00  0.00    -0.361 OA
ATOM     29  H12 NON d   1     -39.642  23.677 -12.600  0.00  0.00     0.217 HD
ENDBRANCH  25  28
ENDBRANCH  20  22
ENDBRANCH   1  19
TORSDOF 6
ENDMDL
MODEL 2
REMARK VINA RESULT:   -29.509      1.331      1.872
REMARK INTER + INTRA:         -32.005
REMARK INTER:                 -31.299
REMARK INTRA:                  -0.706
REMARK CONF_INDEPENDENT:        1.790
REMARK UNBOUND:                -0.706
REMARK  6 active torsions:
REMARK  status: ('A' for Active; 'I' for Inactive)
REMARK    1  A    between atoms: C2_2  and  C9_19 
REMARK    2  A    between atoms: N1_3  and  N2_4 
REMARK       I    between atoms: N2_4  and  C3_5 
REMARK    3  A    between atoms: C3_5  and  C4_7 
REMARK    4  A    between atoms: N5_12  and  C7_13 
REMARK    5  A    between atoms: C8_17  and  N8_18 
REMARK    6  A    between atoms: C12_22  and  O3_23 
ROOT
ATOM      1  N2  NON d   1     -41.755  20.017  -4.807  0.00  0.00    -0.241 N 
ATOM      2  C3  NON d   1     -42.789  19.165  -5.178  0.00  0.00     0.292 C 
ATOM      3  O1  NON d   1     -43.541  19.419  -6.116  0.00  0.00    -0.264 OA
ATOM      4  H4  NON d   1     -41.093  19.752  -4.092  0.00  0.00     0.192 HD
ENDROOT
BRANCH   2   5
ATOM      5  C4  NON d   1     -42.938  17.975  -4.384  0.00  0.00     0.157 C 
ATOM      6  C5  NON d   1     -42.054  17.385  -3.486  0.00  0.00     0.089 C 
ATOM      7  C6  NON d   1     -40.663  17.721  -3.105  0.00  0.00     0.075 C 
ATOM      8  N3  NON d   1     -42.676  16.379  -2.821  0.00  0.00    -0.134 NA
ATOM      9  N4  NON d   1     -43.924  16.326  -3.235  0.00  0.00    -0.058 NA
ATOM     10  N5  NON d   1     -44.112  17.215  -4.260  0.00  0.00    -0.184 N 
BRANCH  10  11
ATOM     11  C7  NON d   1     -45.335  17.192  -4.997  0.00  0.00     0.224 A 
ATOM     12  N6  NON d   1     -45.495  18.143  -5.928  0.00  0.00    -0.081 NA
ATOM     13  O2  NON d   1     -46.761  17.934  -6.447  0.00  0.00    -0.103 OA
ATOM     14  N7  NON d   1     -47.390  16.879  -5.810  0.00  0.00    -0.089 NA
ATOM     15  C8  NON d   1     -46.511  16.417  -4.919  0.00  0.00     0.181 A 
BRANCH  15  16
ATOM     16  N8  NON d   1     -46.819  15.404  -4.081  0.00  0.00    -0.282 NA
ATOM     17  H8  NON d   1     -46.549  15.545  -3.100  0.00  0.00     0.126 HD
ATOM     18  H9  NON d   1     -46.445  14.503  -4.372  0.00  0.00     0.126 HD
ENDBRANCH  15  16
ENDBRANCH  10  11
ENDBRANCH   2   5
BRANCH   1  19
ATOM     19  N1  NON d   1     -41.431  21.079  -5.601  0.00  0.00    -0.176 NA
ATOM     20  C2  NON d   1     -40.247  21.616  -5.489  0.00  0.00     0.061 C 
ATOM     21  C1  NON d   1     -39.260  21.221  -4.404  0.00  0.00     0.073 C 
BRANCH  20  22
ATOM     22  C9  NON d   1     -39.844  22.678  -6.478  0.00  0.00    -0.010 A 
ATOM     23  C10 NON d   1     -39.196  23.833  -6.011  0.00  0.00     0.016 A 
ATOM     24  C11 NON d   1     -38.824  24.850  -6.896  0.00  0.00     0.037 A 
ATOM     25  C12 NON d   1     -39.094  24.719  -8.251  0.00  0.00     0.065 A 
ATOM     26  C13 NON d   1     -39.740  23.588  -8.736  0.00  0.00     0.037 A 
ATOM     27  C14 NON d   1     -40.123  22.573  -7.850  0.00  0.00     0.016 A 
BRANCH  25  28
ATOM     28  O3  NON d   1     -38.708  25.731  -9.080  0.00  0.00    -0.361 OA
ATOM     29  H12 NON d   1     -38.592  25.381  -9.978  0.00  0.00     0.217 HD
ENDBRANCH  25  28
ENDBRANCH  20  22
ENDBRANCH   1  19
TORSDOF 6
ENDMDL
