MODEL 1
REMARK VINA RESULT:   -12.842      0.000      0.000
REMARK INTER + INTRA:         -16.793
REMARK INTER:                 -15.825
REMARK INTRA:                  -0.968
REMARK CONF_INDEPENDENT:        2.983
REMARK UNBOUND:                -0.968
REMARK  10 active torsions:
REMARK  status: ('A' for Active; 'I' for Inactive)
REMARK    1  A    between atoms: C4_4  and  C5_5 
REMARK    2  A    between atoms: C5_5  and  C6_6 
REMARK    3  A    between atoms: C7_8  and  C6_6 
REMARK    4  A    between atoms: C7_8  and  C9_10 
REMARK    5  A    between atoms: C9_10  and  C10_11 
REMARK    6  A    between atoms: C10_11  and  C11_12 
REMARK    7  A    between atoms: C13_14  and  C14_15 
REMARK    8  A    between atoms: C16_19  and  C17_20 
REMARK    9  A    between atoms: C17_20  and  C18_21 
REMARK   10  A    between atoms: C22_25  and  O4_26 
ROOT
ATOM      1  C11 NON d   1     -41.628  17.978  -3.934  0.00  0.00    -0.023 A 
ATOM      2  C12 NON d   1     -41.417  18.133  -5.307  0.00  0.00     0.028 A 
ATOM      3  C13 NON d   1     -40.525  19.106  -5.830  0.00  0.00     0.042 A 
ATOM      4  C15 NON d   1     -39.829  19.972  -4.949  0.00  0.00     0.028 A 
ATOM      5  C16 NON d   1     -39.976  19.906  -3.559  0.00  0.00    -0.020 A 
ATOM      6  C22 NON d   1     -40.889  18.879  -3.084  0.00  0.00     0.078 A 
ENDROOT
BRANCH   1   7
ATOM      7  C10 NON d   1     -42.620  16.891  -3.393  0.00  0.00     0.042 C 
BRANCH   7   8
ATOM      8  C9  NON d   1     -44.194  17.157  -3.391  0.00  0.00     0.016 C 
BRANCH   8   9
ATOM      9  C7  NON d   1     -44.905  17.386  -4.737  0.00  0.00     0.052 C 
ATOM     10  C8  NON d   1     -44.812  18.755  -5.434  0.00  0.00     0.018 C 
BRANCH   9  11
ATOM     11  C6  NON d   1     -46.352  16.558  -4.749  0.00  0.00     0.134 C 
ATOM     12  O1  NON d   1     -46.895  16.211  -5.804  0.00  0.00    -0.297 OA
BRANCH  11  13
ATOM     13  C5  NON d   1     -47.058  16.106  -3.279  0.00  0.00     0.106 C 
BRANCH  13  14
ATOM     14  C4  NON d   1     -48.393  16.520  -2.721  0.00  0.00    -0.017 C 
ATOM     15  C2  NON d   1     -49.593  16.020  -3.030  0.00  0.00    -0.091 C 
ATOM     16  C1  NON d   1     -50.886  16.505  -2.453  0.00  0.00     0.042 C 
ATOM     17  C3  NON d   1     -49.566  14.708  -3.835  0.00  0.00     0.042 C 
ENDBRANCH  13  14
ENDBRANCH  11  13
ENDBRANCH   9  11
ENDBRANCH   8   9
ENDBRANCH   7   8
ENDBRANCH   1   7
BRANCH   6  18
ATOM     18  O4  NON d   1     -41.093  18.711  -1.728  0.00  0.00    -0.360 OA
ATOM     19  H29 NON d   1     -40.304  18.295  -1.354  0.00  0.00     0.217 HD
ENDBRANCH   6  18
BRANCH   3  20
ATOM     20  C14 NON d   1     -40.312  19.221  -7.329  0.00  0.00     0.209 C 
ATOM     21  O2  NON d   1     -39.377  18.517  -7.844  0.00  0.00    -0.644 OA
ATOM     22  O3  NON d   1     -41.081  20.009  -7.974  0.00  0.00    -0.644 OA
ENDBRANCH   3  20
BRANCH   5  23
ATOM     23  C17 NON d   1     -39.184  20.878  -2.621  0.00  0.00     0.068 C 
BRANCH  23  24
ATOM     24  C18 NON d   1     -39.618  21.234  -1.146  0.00  0.00    -0.020 C 
ATOM     25  C19 NON d   1     -40.306  22.350  -0.713  0.00  0.00    -0.091 C 
ATOM     26  C20 NON d   1     -40.704  22.617   0.751  0.00  0.00     0.042 C 
ATOM     27  C21 NON d   1     -40.697  23.355  -1.812  0.00  0.00     0.042 C 
ENDBRANCH  23  24
ENDBRANCH   5  23
TORSDOF 10
ENDMDL
MODEL 2
REMARK VINA RESULT:   -12.317      0.969      1.241
REMARK INTER + INTRA:         -16.262
REMARK INTER:                 -15.300
REMARK INTRA:                  -0.962
REMARK CONF_INDEPENDENT:        2.983
REMARK UNBOUND:                -0.962
REMARK  10 active torsions:
REMARK  status: ('A' for Active; 'I' for Inactive)
REMARK    1  A    between atoms: C4_4  and  C5_5 
REMARK    2  A    between atoms: C5_5  and  C6_6 
REMARK    3  A    between atoms: C7_8  and  C6_6 
REMARK    4  A    between atoms: C7_8  and  C9_10 
REMARK    5  A    between atoms: C9_10  and  C10_11 
REMARK    6  A    between atoms: C10_11  and  C11_12 
REMARK    7  A    between atoms: C13_14  and  C14_15 
REMARK    8  A    between atoms: C16_19  and  C17_20 
REMARK    9  A    between atoms: C17_20  and  C18_21 
REMARK   10  A    between atoms: C22_25  and  O4_26 
ROOT
ATOM      1  C11 NON d   1     -41.343  18.197  -4.155  0.00  0.00    -0.023 A 
ATOM      2  C12 NON d   1     -41.107  18.152  -5.532  0.00  0.00     0.028 A 
ATOM      3  C13 NON d   1     -40.148  18.988  -6.163  0.00  0.00     0.042 A 
ATOM      4  C15 NON d   1     -39.408  19.920  -5.393  0.00  0.00     0.028 A 
ATOM      5  C16 NON d   1     -39.574  20.051  -4.010  0.00  0.00    -0.020 A 
ATOM      6  C22 NON d   1     -40.556  19.157  -3.419  0.00  0.00     0.078 A 
ENDROOT
BRANCH   1   7
ATOM      7  C10 NON d   1     -42.409  17.257  -3.493  0.00  0.00     0.042 C 
BRANCH   7   8
ATOM      8  C9  NON d   1     -43.493  16.503  -4.388  0.00  0.00     0.016 C 
BRANCH   8   9
ATOM      9  C7  NON d   1     -44.601  17.334  -5.060  0.00  0.00     0.052 C 
ATOM     10  C8  NON d   1     -44.508  18.871  -5.078  0.00  0.00     0.018 C 
BRANCH   9  11
ATOM     11  C6  NON d   1     -46.078  16.607  -4.799  0.00  0.00     0.134 C 
ATOM     12  O1  NON d   1     -46.745  16.136  -5.727  0.00  0.00    -0.297 OA
BRANCH  11  13
ATOM     13  C5  NON d   1     -46.645  16.432  -3.214  0.00  0.00     0.106 C 
BRANCH  13  14
ATOM     14  C4  NON d   1     -48.036  16.667  -2.691  0.00  0.00    -0.017 C 
ATOM     15  C2  NON d   1     -49.177  16.153  -3.159  0.00  0.00    -0.091 C 
ATOM     16  C1  NON d   1     -50.534  16.457  -2.603  0.00  0.00     0.042 C 
ATOM     17  C3  NON d   1     -49.009  14.994  -4.159  0.00  0.00     0.042 C 
ENDBRANCH  13  14
ENDBRANCH  11  13
ENDBRANCH   9  11
ENDBRANCH   8   9
ENDBRANCH   7   8
ENDBRANCH   1   7
BRANCH   6  18
ATOM     18  O4  NON d   1     -40.785  19.186  -2.057  0.00  0.00    -0.360 OA
ATOM     19  H29 NON d   1     -40.317  18.440  -1.657  0.00  0.00     0.217 HD
ENDBRANCH   6  18
BRANCH   3  20
ATOM     20  C14 NON d   1     -39.912  18.886  -7.660  0.00  0.00     0.209 C 
ATOM     21  O2  NON d   1     -40.575  19.680  -8.412  0.00  0.00    -0.644 OA
ATOM     22  O3  NON d   1     -39.069  18.019  -8.066  0.00  0.00    -0.644 OA
ENDBRANCH   3  20
BRANCH   5  23
ATOM     23  C17 NON d   1     -38.730  21.089  -3.194  0.00  0.00     0.068 C 
BRANCH  23  24
ATOM     24  C18 NON d   1     -39.351  22.288  -2.377  0.00  0.00    -0.020 C 
ATOM     25  C19 NON d   1     -40.461  23.046  -2.699  0.00  0.00    -0.091 C 
ATOM     26  C20 NON d   1     -41.012  24.196  -1.836  0.00  0.00     0.042 C 
ATOM     27  C21 NON d   1     -41.170  22.658  -4.010  0.00  0.00     0.042 C 
ENDBRANCH  23  24
ENDBRANCH   5  23
TORSDOF 10
ENDMDL
MODEL 3
REMARK VINA RESULT:   -11.428      2.203      4.542
REMARK INTER + INTRA:         -15.380
REMARK INTER:                 -14.411
REMARK INTRA:                  -0.969
REMARK CONF_INDEPENDENT:        2.983
REMARK UNBOUND:                -0.969
REMARK  10 active torsions:
REMARK  status: ('A' for Active; 'I' for Inactive)
REMARK    1  A    between atoms: C4_4  and  C5_5 
REMARK    2  A    between atoms: C5_5  and  C6_6 
REMARK    3  A    between atoms: C7_8  and  C6_6 
REMARK    4  A    between atoms: C7_8  and  C9_10 
REMARK    5  A    between atoms: C9_10  and  C10_11 
REMARK    6  A    between atoms: C10_11  and  C11_12 
REMARK    7  A    between atoms: C13_14  and  C14_15 
REMARK    8  A    between atoms: C16_19  and  C17_20 
REMARK    9  A    between atoms: C17_20  and  C18_21 
REMARK   10  A    between atoms: C22_25  and  O4_26 
ROOT
ATOM      1  C11 NON d   1     -41.442  18.966  -4.363  0.00  0.00    -0.023 A 
ATOM      2  C12 NON d   1     -41.307  20.280  -3.907  0.00  0.00     0.028 A 
ATOM      3  C13 NON d   1     -40.838  21.327  -4.744  0.00  0.00     0.042 A 
ATOM      4  C15 NON d   1     -40.471  21.048  -6.085  0.00  0.00     0.028 A 
ATOM      5  C16 NON d   1     -40.560  19.766  -6.637  0.00  0.00    -0.020 A 
ATOM      6  C22 NON d   1     -41.063  18.741  -5.737  0.00  0.00     0.078 A 
ENDROOT
BRANCH   1   7
ATOM      7  C10 NON d   1     -41.965  17.836  -3.410  0.00  0.00     0.042 C 
BRANCH   7   8
ATOM      8  C9  NON d   1     -43.479  17.339  -3.494  0.00  0.00     0.016 C 
BRANCH   8   9
ATOM      9  C7  NON d   1     -44.278  17.623  -4.779  0.00  0.00     0.052 C 
ATOM     10  C8  NON d   1     -44.440  19.070  -5.282  0.00  0.00     0.018 C 
BRANCH   9  11
ATOM     11  C6  NON d   1     -45.571  16.575  -4.873  0.00  0.00     0.134 C 
ATOM     12  O1  NON d   1     -45.697  15.779  -5.810  0.00  0.00    -0.297 OA
BRANCH  11  13
ATOM     13  C5  NON d   1     -46.700  16.540  -3.612  0.00  0.00     0.106 C 
BRANCH  13  14
ATOM     14  C4  NON d   1     -48.157  16.167  -3.677  0.00  0.00    -0.017 C 
ATOM     15  C2  NON d   1     -49.040  16.167  -2.675  0.00  0.00    -0.091 C 
ATOM     16  C1  NON d   1     -50.473  15.755  -2.810  0.00  0.00     0.042 C 
ATOM     17  C3  NON d   1     -48.573  16.880  -1.392  0.00  0.00     0.042 C 
ENDBRANCH  13  14
ENDBRANCH  11  13
ENDBRANCH   9  11
ENDBRANCH   8   9
ENDBRANCH   7   8
ENDBRANCH   1   7
BRANCH   6  18
ATOM     18  O4  NON d   1     -41.213  17.442  -6.184  0.00  0.00    -0.360 OA
ATOM     19  H29 NON d   1     -42.159  17.259  -6.265  0.00  0.00     0.217 HD
ENDBRANCH   6  18
BRANCH   3  20
ATOM     20  C14 NON d   1     -40.729  22.744  -4.208  0.00  0.00     0.209 C 
ATOM     21  O2  NON d   1     -39.749  23.453  -4.624  0.00  0.00    -0.644 OA
ATOM     22  O3  NON d   1     -41.620  23.132  -3.383  0.00  0.00    -0.644 OA
ENDBRANCH   3  20
BRANCH   5  23
ATOM     23  C17 NON d   1     -40.151  19.502  -8.125  0.00  0.00     0.068 C 
BRANCH  23  24
ATOM     24  C18 NON d   1     -38.864  20.107  -8.810  0.00  0.00    -0.020 C 
ATOM     25  C19 NON d   1     -37.566  19.643  -8.729  0.00  0.00    -0.091 C 
ATOM     26  C20 NON d   1     -36.362  20.287  -9.442  0.00  0.00     0.042 C 
ATOM     27  C21 NON d   1     -37.367  18.379  -7.871  0.00  0.00     0.042 C 
ENDBRANCH  23  24
ENDBRANCH   5  23
TORSDOF 10
ENDMDL
MODEL 4
REMARK VINA RESULT:   -11.206      2.619      4.051
REMARK INTER + INTRA:         -15.005
REMARK INTER:                 -14.189
REMARK INTRA:                  -0.816
REMARK CONF_INDEPENDENT:        2.983
REMARK UNBOUND:                -0.816
REMARK  10 active torsions:
REMARK  status: ('A' for Active; 'I' for Inactive)
REMARK    1  A    between atoms: C4_4  and  C5_5 
REMARK    2  A    between atoms: C5_5  and  C6_6 
REMARK    3  A    between atoms: C7_8  and  C6_6 
REMARK    4  A    between atoms: C7_8  and  C9_10 
REMARK    5  A    between atoms: C9_10  and  C10_11 
REMARK    6  A    between atoms: C10_11  and  C11_12 
REMARK    7  A    between atoms: C13_14  and  C14_15 
REMARK    8  A    between atoms: C16_19  and  C17_20 
REMARK    9  A    between atoms: C17_20  and  C18_21 
REMARK   10  A    between atoms: C22_25  and  O4_26 
ROOT
ATOM      1  C11 NON d   1     -41.293  19.694  -5.509  0.00  0.00    -0.023 A 
ATOM      2  C12 NON d   1     -40.755  18.839  -6.475  0.00  0.00     0.028 A 
ATOM      3  C13 NON d   1     -39.748  19.261  -7.382  0.00  0.00     0.042 A 
ATOM      4  C15 NON d   1     -39.271  20.596  -7.337  0.00  0.00     0.028 A 
ATOM      5  C16 NON d   1     -39.749  21.533  -6.414  0.00  0.00    -0.020 A 
ATOM      6  C22 NON d   1     -40.766  21.036  -5.501  0.00  0.00     0.078 A 
ENDROOT
BRANCH   1   7
ATOM      7  C10 NON d   1     -42.403  19.191  -4.522  0.00  0.00     0.042 C 
BRANCH   7   8
ATOM      8  C9  NON d   1     -43.857  18.814  -5.061  0.00  0.00     0.016 C 
BRANCH   8   9
ATOM      9  C7  NON d   1     -44.599  17.629  -4.416  0.00  0.00     0.052 C 
ATOM     10  C8  NON d   1     -43.803  16.510  -3.719  0.00  0.00     0.018 C 
BRANCH   9  11
ATOM     11  C6  NON d   1     -45.926  17.233  -5.343  0.00  0.00     0.134 C 
ATOM     12  O1  NON d   1     -46.314  17.956  -6.268  0.00  0.00    -0.297 OA
BRANCH  11  13
ATOM     13  C5  NON d   1     -46.716  15.761  -5.069  0.00  0.00     0.106 C 
BRANCH  13  14
ATOM     14  C4  NON d   1     -48.129  15.536  -4.600  0.00  0.00    -0.017 C 
ATOM     15  C2  NON d   1     -48.652  15.862  -3.414  0.00  0.00    -0.091 C 
ATOM     16  C1  NON d   1     -50.065  15.579  -3.006  0.00  0.00     0.042 C 
ATOM     17  C3  NON d   1     -47.788  16.804  -2.556  0.00  0.00     0.042 C 
ENDBRANCH  13  14
ENDBRANCH  11  13
ENDBRANCH   9  11
ENDBRANCH   8   9
ENDBRANCH   7   8
ENDBRANCH   1   7
BRANCH   6  18
ATOM     18  O4  NON d   1     -41.293  21.871  -4.534  0.00  0.00    -0.360 OA
ATOM     19  H29 NON d   1     -40.572  22.407  -4.174  0.00  0.00     0.217 HD
ENDBRANCH   6  18
BRANCH   3  20
ATOM     20  C14 NON d   1     -39.179  18.288  -8.400  0.00  0.00     0.209 C 
ATOM     21  O2  NON d   1     -39.922  17.309  -8.753  0.00  0.00    -0.644 OA
ATOM     22  O3  NON d   1     -38.002  18.513  -8.837  0.00  0.00    -0.644 OA
ENDBRANCH   3  20
BRANCH   5  23
ATOM     23  C17 NON d   1     -39.190  22.995  -6.393  0.00  0.00     0.068 C 
BRANCH  23  24
ATOM     24  C18 NON d   1     -39.735  24.165  -7.302  0.00  0.00    -0.020 C 
ATOM     25  C19 NON d   1     -39.750  24.226  -8.682  0.00  0.00    -0.091 C 
ATOM     26  C20 NON d   1     -40.316  25.405  -9.497  0.00  0.00     0.042 C 
ATOM     27  C21 NON d   1     -39.171  22.997  -9.406  0.00  0.00     0.042 C 
ENDBRANCH  23  24
ENDBRANCH   5  23
TORSDOF 10
ENDMDL
MODEL 5
REMARK VINA RESULT:   -10.794      1.723      2.270
REMARK INTER + INTRA:         -14.677
REMARK INTER:                 -13.777
REMARK INTRA:                  -0.899
REMARK CONF_INDEPENDENT:        2.983
REMARK UNBOUND:                -0.899
REMARK  10 active torsions:
REMARK  status: ('A' for Active; 'I' for Inactive)
REMARK    1  A    between atoms: C4_4  and  C5_5 
REMARK    2  A    between atoms: C5_5  and  C6_6 
REMARK    3  A    between atoms: C7_8  and  C6_6 
REMARK    4  A    between atoms: C7_8  and  C9_10 
REMARK    5  A    between atoms: C9_10  and  C10_11 
REMARK    6  A    between atoms: C10_11  and  C11_12 
REMARK    7  A    between atoms: C13_14  and  C14_15 
REMARK    8  A    between atoms: C16_19  and  C17_20 
REMARK    9  A    between atoms: C17_20  and  C18_21 
REMARK   10  A    between atoms: C22_25  and  O4_26 
ROOT
ATOM      1  C11 NON d   1     -41.158  19.199  -4.907  0.00  0.00    -0.023 A 
ATOM      2  C12 NON d   1     -40.947  19.147  -6.288  0.00  0.00     0.028 A 
ATOM      3  C13 NON d   1     -39.663  18.917  -6.849  0.00  0.00     0.042 A 
ATOM      4  C15 NON d   1     -38.540  18.753  -6.000  0.00  0.00     0.028 A 
ATOM      5  C16 NON d   1     -38.641  18.797  -4.605  0.00  0.00    -0.020 A 
ATOM      6  C22 NON d   1     -39.983  19.016  -4.090  0.00  0.00     0.078 A 
ENDROOT
BRANCH   1   7
ATOM      7  C10 NON d   1     -42.591  19.452  -4.324  0.00  0.00     0.042 C 
BRANCH   7   8
ATOM      8  C9  NON d   1     -43.881  18.865  -5.056  0.00  0.00     0.016 C 
BRANCH   8   9
ATOM      9  C7  NON d   1     -44.576  17.631  -4.451  0.00  0.00     0.052 C 
ATOM     10  C8  NON d   1     -43.735  16.505  -3.823  0.00  0.00     0.018 C 
BRANCH   9  11
ATOM     11  C6  NON d   1     -45.913  17.241  -5.367  0.00  0.00     0.134 C 
ATOM     12  O1  NON d   1     -46.318  17.976  -6.274  0.00  0.00    -0.297 OA
BRANCH  11  13
ATOM     13  C5  NON d   1     -46.689  15.759  -5.107  0.00  0.00     0.106 C 
BRANCH  13  14
ATOM     14  C4  NON d   1     -48.114  15.516  -4.689  0.00  0.00    -0.017 C 
ATOM     15  C2  NON d   1     -48.669  15.779  -3.502  0.00  0.00    -0.091 C 
ATOM     16  C1  NON d   1     -50.093  15.481  -3.149  0.00  0.00     0.042 C 
ATOM     17  C3  NON d   1     -47.825  16.668  -2.570  0.00  0.00     0.042 C 
ENDBRANCH  13  14
ENDBRANCH  11  13
ENDBRANCH   9  11
ENDBRANCH   8   9
ENDBRANCH   7   8
ENDBRANCH   1   7
BRANCH   6  18
ATOM     18  O4  NON d   1     -40.202  19.056  -2.726  0.00  0.00    -0.360 OA
ATOM     19  H29 NON d   1     -39.342  19.071  -2.284  0.00  0.00     0.217 HD
ENDBRANCH   6  18
BRANCH   3  20
ATOM     20  C14 NON d   1     -39.489  18.847  -8.356  0.00  0.00     0.209 C 
ATOM     21  O2  NON d   1     -38.601  18.045  -8.807  0.00  0.00    -0.644 OA
ATOM     22  O3  NON d   1     -40.239  19.591  -9.071  0.00  0.00    -0.644 OA
ENDBRANCH   3  20
BRANCH   5  23
ATOM     23  C17 NON d   1     -37.376  18.603  -3.702  0.00  0.00     0.068 C 
BRANCH  23  24
ATOM     24  C18 NON d   1     -37.209  19.235  -2.266  0.00  0.00    -0.020 C 
ATOM     25  C19 NON d   1     -37.422  20.547  -1.890  0.00  0.00    -0.091 C 
ATOM     26  C20 NON d   1     -37.248  21.084  -0.456  0.00  0.00     0.042 C 
ATOM     27  C21 NON d   1     -37.887  21.492  -3.014  0.00  0.00     0.042 C 
ENDBRANCH  23  24
ENDBRANCH   5  23
TORSDOF 10
ENDMDL
MODEL 6
REMARK VINA RESULT:   -10.787      2.128      2.999
REMARK INTER + INTRA:         -14.594
REMARK INTER:                 -13.770
REMARK INTRA:                  -0.824
REMARK CONF_INDEPENDENT:        2.983
REMARK UNBOUND:                -0.824
REMARK  10 active torsions:
REMARK  status: ('A' for Active; 'I' for Inactive)
REMARK    1  A    between atoms: C4_4  and  C5_5 
REMARK    2  A    between atoms: C5_5  and  C6_6 
REMARK    3  A    between atoms: C7_8  and  C6_6 
REMARK    4  A    between atoms: C7_8  and  C9_10 
REMARK    5  A    between atoms: C9_10  and  C10_11 
REMARK    6  A    between atoms: C10_11  and  C11_12 
REMARK    7  A    between atoms: C13_14  and  C14_15 
REMARK    8  A    between atoms: C16_19  and  C17_20 
REMARK    9  A    between atoms: C17_20  and  C18_21 
REMARK   10  A    between atoms: C22_25  and  O4_26 
ROOT
ATOM      1  C11 NON d   1     -41.299  19.904  -5.362  0.00  0.00    -0.023 A 
ATOM      2  C12 NON d   1     -40.763  19.196  -6.442  0.00  0.00     0.028 A 
ATOM      3  C13 NON d   1     -39.754  19.742  -7.279  0.00  0.00     0.042 A 
ATOM      4  C15 NON d   1     -39.275  21.056  -7.043  0.00  0.00     0.028 A 
ATOM      5  C16 NON d   1     -39.751  21.852  -5.995  0.00  0.00    -0.020 A 
ATOM      6  C22 NON d   1     -40.769  21.231  -5.163  0.00  0.00     0.078 A 
ENDROOT
BRANCH   1   7
ATOM      7  C10 NON d   1     -42.411  19.267  -4.459  0.00  0.00     0.042 C 
BRANCH   7   8
ATOM      8  C9  NON d   1     -43.786  18.768  -5.094  0.00  0.00     0.016 C 
BRANCH   8   9
ATOM      9  C7  NON d   1     -44.548  17.624  -4.400  0.00  0.00     0.052 C 
ATOM     10  C8  NON d   1     -43.770  16.506  -3.682  0.00  0.00     0.018 C 
BRANCH   9  11
ATOM     11  C6  NON d   1     -45.903  17.237  -5.291  0.00  0.00     0.134 C 
ATOM     12  O1  NON d   1     -46.314  17.966  -6.200  0.00  0.00    -0.297 OA
BRANCH  11  13
ATOM     13  C5  NON d   1     -46.689  15.766  -5.001  0.00  0.00     0.106 C 
BRANCH  13  14
ATOM     14  C4  NON d   1     -48.132  15.538  -4.637  0.00  0.00    -0.017 C 
ATOM     15  C2  NON d   1     -48.708  15.727  -3.446  0.00  0.00    -0.091 C 
ATOM     16  C1  NON d   1     -50.149  15.450  -3.150  0.00  0.00     0.042 C 
ATOM     17  C3  NON d   1     -47.862  16.514  -2.428  0.00  0.00     0.042 C 
ENDBRANCH  13  14
ENDBRANCH  11  13
ENDBRANCH   9  11
ENDBRANCH   8   9
ENDBRANCH   7   8
ENDBRANCH   1   7
BRANCH   6  18
ATOM     18  O4  NON d   1     -41.295  21.919  -4.086  0.00  0.00    -0.360 OA
ATOM     19  H29 NON d   1     -41.493  22.821  -4.373  0.00  0.00     0.217 HD
ENDBRANCH   6  18
BRANCH   3  20
ATOM     20  C14 NON d   1     -39.187  18.925  -8.426  0.00  0.00     0.209 C 
ATOM     21  O2  NON d   1     -39.717  17.782  -8.649  0.00  0.00    -0.644 OA
ATOM     22  O3  NON d   1     -38.224  19.432  -9.091  0.00  0.00    -0.644 OA
ENDBRANCH   3  20
BRANCH   5  23
ATOM     23  C17 NON d   1     -39.190  23.295  -5.764  0.00  0.00     0.068 C 
BRANCH  23  24
ATOM     24  C18 NON d   1     -40.080  24.597  -5.736  0.00  0.00    -0.020 C 
ATOM     25  C19 NON d   1     -40.612  25.235  -4.632  0.00  0.00    -0.091 C 
ATOM     26  C20 NON d   1     -41.465  26.516  -4.690  0.00  0.00     0.042 C 
ATOM     27  C21 NON d   1     -40.281  24.592  -3.272  0.00  0.00     0.042 C 
ENDBRANCH  23  24
ENDBRANCH   5  23
TORSDOF 10
ENDMDL
MODEL 7
REMARK VINA RESULT:   -10.645      2.844      4.943
REMARK INTER + INTRA:         -14.438
REMARK INTER:                 -13.628
REMARK INTRA:                  -0.810
REMARK CONF_INDEPENDENT:        2.983
REMARK UNBOUND:                -0.810
REMARK  10 active torsions:
REMARK  status: ('A' for Active; 'I' for Inactive)
REMARK    1  A    between atoms: C4_4  and  C5_5 
REMARK    2  A    between atoms: C5_5  and  C6_6 
REMARK    3  A    between atoms: C7_8  and  C6_6 
REMARK    4  A    between atoms: C7_8  and  C9_10 
REMARK    5  A    between atoms: C9_10  and  C10_11 
REMARK    6  A    between atoms: C10_11  and  C11_12 
REMARK    7  A    between atoms: C13_14  and  C14_15 
REMARK    8  A    between atoms: C16_19  and  C17_20 
REMARK    9  A    between atoms: C17_20  and  C18_21 
REMARK   10  A    between atoms: C22_25  and  O4_26 
ROOT
ATOM      1  C11 NON d   1     -41.412  19.947  -5.579  0.00  0.00    -0.023 A 
ATOM      2  C12 NON d   1     -41.361  20.966  -4.624  0.00  0.00     0.028 A 
ATOM      3  C13 NON d   1     -40.562  22.127  -4.798  0.00  0.00     0.042 A 
ATOM      4  C15 NON d   1     -39.765  22.267  -5.963  0.00  0.00     0.028 A 
ATOM      5  C16 NON d   1     -39.736  21.301  -6.974  0.00  0.00    -0.020 A 
ATOM      6  C22 NON d   1     -40.589  20.145  -6.747  0.00  0.00     0.078 A 
ENDROOT
BRANCH   1   7
ATOM      7  C10 NON d   1     -42.308  18.680  -5.353  0.00  0.00     0.042 C 
BRANCH   7   8
ATOM      8  C9  NON d   1     -43.869  18.832  -5.060  0.00  0.00     0.016 C 
BRANCH   8   9
ATOM      9  C7  NON d   1     -44.625  17.638  -4.450  0.00  0.00     0.052 C 
ATOM     10  C8  NON d   1     -43.846  16.511  -3.747  0.00  0.00     0.018 C 
BRANCH   9  11
ATOM     11  C6  NON d   1     -45.928  17.252  -5.416  0.00  0.00     0.134 C 
ATOM     12  O1  NON d   1     -46.315  18.005  -6.317  0.00  0.00    -0.297 OA
BRANCH  11  13
ATOM     13  C5  NON d   1     -46.690  15.755  -5.216  0.00  0.00     0.106 C 
BRANCH  13  14
ATOM     14  C4  NON d   1     -48.081  15.478  -4.712  0.00  0.00    -0.017 C 
ATOM     15  C2  NON d   1     -48.599  15.821  -3.529  0.00  0.00    -0.091 C 
ATOM     16  C1  NON d   1     -49.988  15.484  -3.083  0.00  0.00     0.042 C 
ATOM     17  C3  NON d   1     -47.767  16.834  -2.720  0.00  0.00     0.042 C 
ENDBRANCH  13  14
ENDBRANCH  11  13
ENDBRANCH   9  11
ENDBRANCH   8   9
ENDBRANCH   7   8
ENDBRANCH   1   7
BRANCH   6  18
ATOM     18  O4  NON d   1     -40.655  19.139  -7.692  0.00  0.00    -0.360 OA
ATOM     19  H29 NON d   1     -40.686  18.292  -7.228  0.00  0.00     0.217 HD
ENDBRANCH   6  18
BRANCH   3  20
ATOM     20  C14 NON d   1     -40.557  23.218  -3.742  0.00  0.00     0.209 C 
ATOM     21  O2  NON d   1     -41.440  23.143  -2.819  0.00  0.00    -0.644 OA
ATOM     22  O3  NON d   1     -39.675  24.133  -3.844  0.00  0.00    -0.644 OA
ENDBRANCH   3  20
BRANCH   5  23
ATOM     23  C17 NON d   1     -38.848  21.498  -8.248  0.00  0.00     0.068 C 
BRANCH  23  24
ATOM     24  C18 NON d   1     -39.348  22.186  -9.578  0.00  0.00    -0.020 C 
ATOM     25  C19 NON d   1     -39.859  23.460  -9.731  0.00  0.00    -0.091 C 
ATOM     26  C20 NON d   1     -40.315  24.063 -11.073  0.00  0.00     0.042 C 
ATOM     27  C21 NON d   1     -39.937  24.301  -8.444  0.00  0.00     0.042 C 
ENDBRANCH  23  24
ENDBRANCH   5  23
TORSDOF 10
ENDMDL
MODEL 8
REMARK VINA RESULT:   -10.552      1.586      2.167
REMARK INTER + INTRA:         -14.441
REMARK INTER:                 -13.535
REMARK INTRA:                  -0.907
REMARK CONF_INDEPENDENT:        2.983
REMARK UNBOUND:                -0.907
REMARK  10 active torsions:
REMARK  status: ('A' for Active; 'I' for Inactive)
REMARK    1  A    between atoms: C4_4  and  C5_5 
REMARK    2  A    between atoms: C5_5  and  C6_6 
REMARK    3  A    between atoms: C7_8  and  C6_6 
REMARK    4  A    between atoms: C7_8  and  C9_10 
REMARK    5  A    between atoms: C9_10  and  C10_11 
REMARK    6  A    between atoms: C10_11  and  C11_12 
REMARK    7  A    between atoms: C13_14  and  C14_15 
REMARK    8  A    between atoms: C16_19  and  C17_20 
REMARK    9  A    between atoms: C17_20  and  C18_21 
REMARK   10  A    between atoms: C22_25  and  O4_26 
ROOT
ATOM      1  C11 NON d   1     -41.154  19.480  -4.754  0.00  0.00    -0.023 A 
ATOM      2  C12 NON d   1     -40.714  20.428  -5.681  0.00  0.00     0.028 A 
ATOM      3  C13 NON d   1     -39.776  21.438  -5.343  0.00  0.00     0.042 A 
ATOM      4  C15 NON d   1     -39.272  21.520  -4.020  0.00  0.00     0.028 A 
ATOM      5  C16 NON d   1     -39.655  20.626  -3.014  0.00  0.00    -0.020 A 
ATOM      6  C22 NON d   1     -40.603  19.604  -3.426  0.00  0.00     0.078 A 
ENDROOT
BRANCH   1   7
ATOM      7  C10 NON d   1     -42.190  18.376  -5.165  0.00  0.00     0.042 C 
BRANCH   7   8
ATOM      8  C9  NON d   1     -43.757  18.657  -5.065  0.00  0.00     0.016 C 
BRANCH   8   9
ATOM      9  C7  NON d   1     -44.652  17.612  -4.374  0.00  0.00     0.052 C 
ATOM     10  C8  NON d   1     -44.017  16.505  -3.512  0.00  0.00     0.018 C 
BRANCH   9  11
ATOM     11  C6  NON d   1     -45.941  17.240  -5.364  0.00  0.00     0.134 C 
ATOM     12  O1  NON d   1     -46.315  18.005  -6.260  0.00  0.00    -0.297 OA
BRANCH  11  13
ATOM     13  C5  NON d   1     -46.706  15.741  -5.196  0.00  0.00     0.106 C 
BRANCH  13  14
ATOM     14  C4  NON d   1     -48.118  15.460  -4.755  0.00  0.00    -0.017 C 
ATOM     15  C2  NON d   1     -48.660  15.709  -3.559  0.00  0.00    -0.091 C 
ATOM     16  C1  NON d   1     -50.070  15.374  -3.182  0.00  0.00     0.042 C 
ATOM     17  C3  NON d   1     -47.824  16.618  -2.639  0.00  0.00     0.042 C 
ENDBRANCH  13  14
ENDBRANCH  11  13
ENDBRANCH   9  11
ENDBRANCH   8   9
ENDBRANCH   7   8
ENDBRANCH   1   7
BRANCH   6  18
ATOM     18  O4  NON d   1     -41.034  18.655  -2.519  0.00  0.00    -0.360 OA
ATOM     19  H29 NON d   1     -40.462  18.702  -1.740  0.00  0.00     0.217 HD
ENDBRANCH   6  18
BRANCH   3  20
ATOM     20  C14 NON d   1     -39.311  22.433  -6.393  0.00  0.00     0.209 C 
ATOM     21  O2  NON d   1     -39.094  23.633  -6.007  0.00  0.00    -0.644 OA
ATOM     22  O3  NON d   1     -39.166  22.005  -7.586  0.00  0.00    -0.644 OA
ENDBRANCH   3  20
BRANCH   5  23
ATOM     23  C17 NON d   1     -39.069  20.746  -1.567  0.00  0.00     0.068 C 
BRANCH  23  24
ATOM     24  C18 NON d   1     -39.906  21.197  -0.307  0.00  0.00    -0.020 C 
ATOM     25  C19 NON d   1     -40.227  22.484   0.079  0.00  0.00    -0.091 C 
ATOM     26  C20 NON d   1     -41.065  22.839   1.322  0.00  0.00     0.042 C 
ATOM     27  C21 NON d   1     -39.706  23.601  -0.843  0.00  0.00     0.042 C 
ENDBRANCH  23  24
ENDBRANCH   5  23
TORSDOF 10
ENDMDL
MODEL 9
REMARK VINA RESULT:   -10.029      2.468      4.490
REMARK INTER + INTRA:         -13.678
REMARK INTER:                 -13.012
REMARK INTRA:                  -0.666
REMARK CONF_INDEPENDENT:        2.983
REMARK UNBOUND:                -0.666
REMARK  10 active torsions:
REMARK  status: ('A' for Active; 'I' for Inactive)
REMARK    1  A    between atoms: C4_4  and  C5_5 
REMARK    2  A    between atoms: C5_5  and  C6_6 
REMARK    3  A    between atoms: C7_8  and  C6_6 
REMARK    4  A    between atoms: C7_8  and  C9_10 
REMARK    5  A    between atoms: C9_10  and  C10_11 
REMARK    6  A    between atoms: C10_11  and  C11_12 
REMARK    7  A    between atoms: C13_14  and  C14_15 
REMARK    8  A    between atoms: C16_19  and  C17_20 
REMARK    9  A    between atoms: C17_20  and  C18_21 
REMARK   10  A    between atoms: C22_25  and  O4_26 
ROOT
ATOM      1  C11 NON d   1     -40.952  17.829  -3.794  0.00  0.00    -0.023 A 
ATOM      2  C12 NON d   1     -39.820  17.806  -2.975  0.00  0.00     0.028 A 
ATOM      3  C13 NON d   1     -38.665  18.583  -3.258  0.00  0.00     0.042 A 
ATOM      4  C15 NON d   1     -38.631  19.400  -4.417  0.00  0.00     0.028 A 
ATOM      5  C16 NON d   1     -39.707  19.487  -5.307  0.00  0.00    -0.020 A 
ATOM      6  C22 NON d   1     -40.866  18.684  -4.953  0.00  0.00     0.078 A 
ENDROOT
BRANCH   1   7
ATOM      7  C10 NON d   1     -42.210  16.959  -3.448  0.00  0.00     0.042 C 
BRANCH   7   8
ATOM      8  C9  NON d   1     -43.670  17.602  -3.460  0.00  0.00     0.016 C 
BRANCH   8   9
ATOM      9  C7  NON d   1     -44.404  17.740  -4.806  0.00  0.00     0.052 C 
ATOM     10  C8  NON d   1     -44.604  19.131  -5.436  0.00  0.00     0.018 C 
BRANCH   9  11
ATOM     11  C6  NON d   1     -45.638  16.622  -4.884  0.00  0.00     0.134 C 
ATOM     12  O1  NON d   1     -45.722  15.808  -5.811  0.00  0.00    -0.297 OA
BRANCH  11  13
ATOM     13  C5  NON d   1     -46.761  16.541  -3.620  0.00  0.00     0.106 C 
BRANCH  13  14
ATOM     14  C4  NON d   1     -48.196  16.092  -3.677  0.00  0.00    -0.017 C 
ATOM     15  C2  NON d   1     -49.086  16.089  -2.680  0.00  0.00    -0.091 C 
ATOM     16  C1  NON d   1     -50.495  15.598  -2.805  0.00  0.00     0.042 C 
ATOM     17  C3  NON d   1     -48.667  16.879  -1.427  0.00  0.00     0.042 C 
ENDBRANCH  13  14
ENDBRANCH  11  13
ENDBRANCH   9  11
ENDBRANCH   8   9
ENDBRANCH   7   8
ENDBRANCH   1   7
BRANCH   6  18
ATOM     18  O4  NON d   1     -41.994  18.711  -5.750  0.00  0.00    -0.360 OA
ATOM     19  H29 NON d   1     -41.974  19.524  -6.274  0.00  0.00     0.217 HD
ENDBRANCH   6  18
BRANCH   3  20
ATOM     20  C14 NON d   1     -37.468  18.541  -2.326  0.00  0.00     0.209 C 
ATOM     21  O2  NON d   1     -36.920  17.403  -2.127  0.00  0.00    -0.644 OA
ATOM     22  O3  NON d   1     -37.088  19.642  -1.805  0.00  0.00    -0.644 OA
ENDBRANCH   3  20
BRANCH   5  23
ATOM     23  C17 NON d   1     -39.631  20.408  -6.571  0.00  0.00     0.068 C 
BRANCH  23  24
ATOM     24  C18 NON d   1     -38.404  20.450  -7.562  0.00  0.00    -0.020 C 
ATOM     25  C19 NON d   1     -37.986  19.464  -8.434  0.00  0.00    -0.091 C 
ATOM     26  C20 NON d   1     -36.779  19.590  -9.383  0.00  0.00     0.042 C 
ATOM     27  C21 NON d   1     -38.833  18.178  -8.434  0.00  0.00     0.042 C 
ENDBRANCH  23  24
ENDBRANCH   5  23
TORSDOF 10
ENDMDL
