MODEL 1
REMARK VINA RESULT:   -13.853      0.000      0.000
REMARK INTER + INTRA:         -15.056
REMARK INTER:                 -15.046
REMARK INTRA:                  -0.010
REMARK CONF_INDEPENDENT:        1.193
REMARK UNBOUND:                -0.010
REMARK  4 active torsions:
REMARK  status: ('A' for Active; 'I' for Inactive)
REMARK       I    between atoms: C1_2  and  N1_3 
REMARK    1  A    between atoms: C1_2  and  C9_12 
REMARK    2  A    between atoms: N1_3  and  O2_4 
REMARK    3  A    between atoms: O2_4  and  C2_5 
REMARK    4  A    between atoms: C2_5  and  C3_6 
ROOT
ATOM      1  O1  NON d   1     -45.895  18.004  -6.185  0.00  0.00    -0.265 OA
ATOM      2  C1  NON d   1     -45.574  17.216  -5.299  0.00  0.00     0.277 C 
ATOM      3  N1  NON d   1     -46.365  16.157  -4.899  0.00  0.00    -0.230 N 
ATOM      4  H1  NON d   1     -45.968  15.380  -4.388  0.00  0.00     0.197 HD
ENDROOT
BRANCH   2   5
ATOM      5  C9  NON d   1     -44.280  17.304  -4.611  0.00  0.00     0.061 A 
ATOM      6  C10 NON d   1     -43.815  16.505  -3.575  0.00  0.00     0.106 A 
ATOM      7  N2  NON d   1     -42.554  16.921  -3.233  0.00  0.00    -0.364 N 
ATOM      8  C11 NON d   1     -42.171  17.982  -4.017  0.00  0.00     0.043 A 
ATOM      9  H10 NON d   1     -41.979  16.515  -2.507  0.00  0.00     0.165 HD
ATOM     10  C12 NON d   1     -40.978  18.716  -4.020  0.00  0.00     0.030 A 
ATOM     11  C16 NON d   1     -43.229  18.249  -4.889  0.00  0.00     0.008 A 
ATOM     12  C13 NON d   1     -40.858  19.758  -4.942  0.00  0.00     0.002 A 
ATOM     13  C14 NON d   1     -41.893  20.055  -5.824  0.00  0.00     0.001 A 
ATOM     14  C15 NON d   1     -43.077  19.309  -5.811  0.00  0.00     0.015 A 
ENDBRANCH   2   5
BRANCH   3  15
ATOM     15  O2  NON d   1     -47.420  15.845  -5.797  0.00  0.00    -0.273 OA
BRANCH  15  16
ATOM     16  C2  NON d   1     -48.456  15.137  -5.112  0.00  0.00     0.240 C 
BRANCH  16  17
ATOM     17  C3  NON d   1     -48.804  15.747  -3.770  0.00  0.00    -0.032 A 
ATOM     18  C4  NON d   1     -47.831  16.118  -2.829  0.00  0.00     0.009 A 
ATOM     19  C5  NON d   1     -48.198  16.687  -1.608  0.00  0.00     0.001 A 
ATOM     20  C6  NON d   1     -49.543  16.880  -1.304  0.00  0.00     0.000 A 
ATOM     21  C7  NON d   1     -50.522  16.505  -2.220  0.00  0.00     0.001 A 
ATOM     22  C8  NON d   1     -50.156  15.946  -3.447  0.00  0.00     0.009 A 
ENDBRANCH  16  17
ENDBRANCH  15  16
ENDBRANCH   3  15
TORSDOF 4
ENDMDL
MODEL 2
REMARK VINA RESULT:   -13.754      0.031      1.078
REMARK INTER + INTRA:         -14.910
REMARK INTER:                 -14.948
REMARK INTRA:                   0.037
REMARK CONF_INDEPENDENT:        1.193
REMARK UNBOUND:                 0.037
REMARK  4 active torsions:
REMARK  status: ('A' for Active; 'I' for Inactive)
REMARK       I    between atoms: C1_2  and  N1_3 
REMARK    1  A    between atoms: C1_2  and  C9_12 
REMARK    2  A    between atoms: N1_3  and  O2_4 
REMARK    3  A    between atoms: O2_4  and  C2_5 
REMARK    4  A    between atoms: C2_5  and  C3_6 
ROOT
ATOM      1  O1  NON d   1     -45.895  17.997  -6.184  0.00  0.00    -0.265 OA
ATOM      2  C1  NON d   1     -45.569  17.215  -5.295  0.00  0.00     0.277 C 
ATOM      3  N1  NON d   1     -46.357  16.159  -4.882  0.00  0.00    -0.230 N 
ATOM      4  H1  NON d   1     -45.957  15.386  -4.368  0.00  0.00     0.197 HD
ENDROOT
BRANCH   2   5
ATOM      5  C9  NON d   1     -44.270  17.308  -4.616  0.00  0.00     0.061 A 
ATOM      6  C10 NON d   1     -43.792  16.505  -3.590  0.00  0.00     0.106 A 
ATOM      7  N2  NON d   1     -42.530  16.928  -3.254  0.00  0.00    -0.364 N 
ATOM      8  C11 NON d   1     -42.162  17.997  -4.034  0.00  0.00     0.043 A 
ATOM      9  H10 NON d   1     -41.948  16.520  -2.536  0.00  0.00     0.165 HD
ATOM     10  C12 NON d   1     -40.974  18.739  -4.040  0.00  0.00     0.030 A 
ATOM     11  C16 NON d   1     -43.228  18.262  -4.896  0.00  0.00     0.008 A 
ATOM     12  C13 NON d   1     -40.869  19.789  -4.956  0.00  0.00     0.002 A 
ATOM     13  C14 NON d   1     -41.913  20.084  -5.828  0.00  0.00     0.001 A 
ATOM     14  C15 NON d   1     -43.091  19.330  -5.811  0.00  0.00     0.015 A 
ENDBRANCH   2   5
BRANCH   3  15
ATOM     15  O2  NON d   1     -47.419  15.842  -5.771  0.00  0.00    -0.273 OA
BRANCH  15  16
ATOM     16  C2  NON d   1     -48.422  15.086  -5.088  0.00  0.00     0.240 C 
BRANCH  16  17
ATOM     17  C3  NON d   1     -48.845  15.712  -3.775  0.00  0.00    -0.032 A 
ATOM     18  C4  NON d   1     -50.189  15.934  -3.438  0.00  0.00     0.009 A 
ATOM     19  C5  NON d   1     -50.533  16.506  -2.211  0.00  0.00     0.001 A 
ATOM     20  C6  NON d   1     -49.539  16.876  -1.310  0.00  0.00     0.000 A 
ATOM     21  C7  NON d   1     -48.200  16.675  -1.634  0.00  0.00     0.001 A 
ATOM     22  C8  NON d   1     -47.855  16.093  -2.856  0.00  0.00     0.009 A 
ENDBRANCH  16  17
ENDBRANCH  15  16
ENDBRANCH   3  15
TORSDOF 4
ENDMDL
MODEL 3
REMARK VINA RESULT:   -13.595      0.951      1.023
REMARK INTER + INTRA:         -14.542
REMARK INTER:                 -14.788
REMARK INTRA:                   0.246
REMARK CONF_INDEPENDENT:        1.193
REMARK UNBOUND:                 0.246
REMARK  4 active torsions:
REMARK  status: ('A' for Active; 'I' for Inactive)
REMARK       I    between atoms: C1_2  and  N1_3 
REMARK    1  A    between atoms: C1_2  and  C9_12 
REMARK    2  A    between atoms: N1_3  and  O2_4 
REMARK    3  A    between atoms: O2_4  and  C2_5 
REMARK    4  A    between atoms: C2_5  and  C3_6 
ROOT
ATOM      1  O1  NON d   1     -45.336  15.756  -5.828  0.00  0.00    -0.265 OA
ATOM      2  C1  NON d   1     -45.111  16.893  -5.423  0.00  0.00     0.277 C 
ATOM      3  N1  NON d   1     -45.940  17.969  -5.676  0.00  0.00    -0.230 N 
ATOM      4  H1  NON d   1     -45.888  18.804  -5.110  0.00  0.00     0.197 HD
ENDROOT
BRANCH   2   5
ATOM      5  C9  NON d   1     -43.950  17.204  -4.580  0.00  0.00     0.061 A 
ATOM      6  C10 NON d   1     -43.556  16.565  -3.412  0.00  0.00     0.106 A 
ATOM      7  N2  NON d   1     -42.413  17.165  -2.948  0.00  0.00    -0.364 N 
ATOM      8  C11 NON d   1     -42.041  18.191  -3.781  0.00  0.00     0.043 A 
ATOM      9  H10 NON d   1     -41.910  16.900  -2.113  0.00  0.00     0.165 HD
ATOM     10  C12 NON d   1     -40.951  19.067  -3.699  0.00  0.00     0.030 A 
ATOM     11  C16 NON d   1     -42.982  18.245  -4.811  0.00  0.00     0.008 A 
ATOM     12  C13 NON d   1     -40.814  20.030  -4.702  0.00  0.00     0.002 A 
ATOM     13  C14 NON d   1     -41.734  20.115  -5.742  0.00  0.00     0.001 A 
ATOM     14  C15 NON d   1     -42.816  19.230  -5.810  0.00  0.00     0.015 A 
ENDBRANCH   2   5
BRANCH   3  15
ATOM     15  O2  NON d   1     -47.229  17.612  -6.155  0.00  0.00    -0.273 OA
BRANCH  15  16
ATOM     16  C2  NON d   1     -47.612  16.337  -5.633  0.00  0.00     0.240 C 
BRANCH  16  17
ATOM     17  C3  NON d   1     -48.107  16.407  -4.204  0.00  0.00    -0.032 A 
ATOM     18  C4  NON d   1     -47.317  16.887  -3.148  0.00  0.00     0.009 A 
ATOM     19  C5  NON d   1     -47.820  16.943  -1.847  0.00  0.00     0.001 A 
ATOM     20  C6  NON d   1     -49.114  16.506  -1.579  0.00  0.00     0.000 A 
ATOM     21  C7  NON d   1     -49.908  16.014  -2.612  0.00  0.00     0.001 A 
ATOM     22  C8  NON d   1     -49.410  15.969  -3.917  0.00  0.00     0.009 A 
ENDBRANCH  16  17
ENDBRANCH  15  16
ENDBRANCH   3  15
TORSDOF 4
ENDMDL
MODEL 4
REMARK VINA RESULT:   -12.292      1.323      6.845
REMARK INTER + INTRA:         -13.952
REMARK INTER:                 -13.485
REMARK INTRA:                  -0.467
REMARK CONF_INDEPENDENT:        1.193
REMARK UNBOUND:                -0.467
REMARK  4 active torsions:
REMARK  status: ('A' for Active; 'I' for Inactive)
REMARK       I    between atoms: C1_2  and  N1_3 
REMARK    1  A    between atoms: C1_2  and  C9_12 
REMARK    2  A    between atoms: N1_3  and  O2_4 
REMARK    3  A    between atoms: O2_4  and  C2_5 
REMARK    4  A    between atoms: C2_5  and  C3_6 
ROOT
ATOM      1  O1  NON d   1     -46.720  15.005  -6.379  0.00  0.00    -0.265 OA
ATOM      2  C1  NON d   1     -46.978  15.665  -5.375  0.00  0.00     0.277 C 
ATOM      3  N1  NON d   1     -46.159  16.666  -4.892  0.00  0.00    -0.230 N 
ATOM      4  H1  NON d   1     -46.518  17.365  -4.256  0.00  0.00     0.197 HD
ENDROOT
BRANCH   2   5
ATOM      5  C9  NON d   1     -48.223  15.477  -4.619  0.00  0.00     0.061 A 
ATOM      6  C10 NON d   1     -49.317  14.699  -4.969  0.00  0.00     0.106 A 
ATOM      7  N2  NON d   1     -50.260  14.797  -3.977  0.00  0.00    -0.364 N 
ATOM      8  C11 NON d   1     -49.816  15.627  -2.977  0.00  0.00     0.043 A 
ATOM      9  H10 NON d   1     -51.157  14.333  -3.974  0.00  0.00     0.165 HD
ATOM     10  C12 NON d   1     -50.439  16.011  -1.783  0.00  0.00     0.030 A 
ATOM     11  C16 NON d   1     -48.545  16.072  -3.347  0.00  0.00     0.008 A 
ATOM     12  C13 NON d   1     -49.744  16.879  -0.937  0.00  0.00     0.002 A 
ATOM     13  C14 NON d   1     -48.477  17.345  -1.275  0.00  0.00     0.001 A 
ATOM     14  C15 NON d   1     -47.868  16.948  -2.470  0.00  0.00     0.015 A 
ENDBRANCH   2   5
BRANCH   3  15
ATOM     15  O2  NON d   1     -45.166  17.102  -5.810  0.00  0.00    -0.273 OA
BRANCH  15  16
ATOM     16  C2  NON d   1     -44.670  18.387  -5.424  0.00  0.00     0.240 C 
BRANCH  16  17
ATOM     17  C3  NON d   1     -43.327  18.319  -4.729  0.00  0.00    -0.032 A 
ATOM     18  C4  NON d   1     -42.258  19.167  -5.058  0.00  0.00     0.009 A 
ATOM     19  C5  NON d   1     -41.039  19.075  -4.383  0.00  0.00     0.001 A 
ATOM     20  C6  NON d   1     -40.866  18.126  -3.380  0.00  0.00     0.000 A 
ATOM     21  C7  NON d   1     -41.912  17.267  -3.050  0.00  0.00     0.001 A 
ATOM     22  C8  NON d   1     -43.135  17.366  -3.716  0.00  0.00     0.009 A 
ENDBRANCH  16  17
ENDBRANCH  15  16
ENDBRANCH   3  15
TORSDOF 4
ENDMDL
MODEL 5
REMARK VINA RESULT:   -12.073      1.146      1.659
REMARK INTER + INTRA:         -13.767
REMARK INTER:                 -13.266
REMARK INTRA:                  -0.501
REMARK CONF_INDEPENDENT:        1.193
REMARK UNBOUND:                -0.501
REMARK  4 active torsions:
REMARK  status: ('A' for Active; 'I' for Inactive)
REMARK       I    between atoms: C1_2  and  N1_3 
REMARK    1  A    between atoms: C1_2  and  C9_12 
REMARK    2  A    between atoms: N1_3  and  O2_4 
REMARK    3  A    between atoms: O2_4  and  C2_5 
REMARK    4  A    between atoms: C2_5  and  C3_6 
ROOT
ATOM      1  O1  NON d   1     -45.067  18.594  -5.810  0.00  0.00    -0.265 OA
ATOM      2  C1  NON d   1     -44.552  17.771  -5.058  0.00  0.00     0.277 C 
ATOM      3  N1  NON d   1     -45.062  16.504  -4.852  0.00  0.00    -0.230 N 
ATOM      4  H1  NON d   1     -44.484  15.771  -4.467  0.00  0.00     0.197 HD
ENDROOT
BRANCH   2   5
ATOM      5  C9  NON d   1     -43.302  18.049  -4.339  0.00  0.00     0.061 A 
ATOM      6  C10 NON d   1     -42.947  17.629  -3.064  0.00  0.00     0.106 A 
ATOM      7  N2  NON d   1     -41.691  18.102  -2.782  0.00  0.00    -0.364 N 
ATOM      8  C11 NON d   1     -41.205  18.829  -3.840  0.00  0.00     0.043 A 
ATOM      9  H10 NON d   1     -41.186  17.946  -1.920  0.00  0.00     0.165 HD
ATOM     10  C12 NON d   1     -39.978  19.488  -3.992  0.00  0.00     0.030 A 
ATOM     11  C16 NON d   1     -42.189  18.818  -4.831  0.00  0.00     0.008 A 
ATOM     12  C13 NON d   1     -39.746  20.160  -5.195  0.00  0.00     0.002 A 
ATOM     13  C14 NON d   1     -40.704  20.172  -6.204  0.00  0.00     0.001 A 
ATOM     14  C15 NON d   1     -41.923  19.506  -6.037  0.00  0.00     0.015 A 
ENDBRANCH   2   5
BRANCH   3  15
ATOM     15  O2  NON d   1     -46.032  16.103  -5.810  0.00  0.00    -0.273 OA
BRANCH  15  16
ATOM     16  C2  NON d   1     -47.235  16.856  -5.636  0.00  0.00     0.240 C 
BRANCH  16  17
ATOM     17  C3  NON d   1     -48.118  16.316  -4.531  0.00  0.00    -0.032 A 
ATOM     18  C4  NON d   1     -48.940  15.191  -4.697  0.00  0.00     0.009 A 
ATOM     19  C5  NON d   1     -49.730  14.722  -3.645  0.00  0.00     0.001 A 
ATOM     20  C6  NON d   1     -49.721  15.379  -2.418  0.00  0.00     0.000 A 
ATOM     21  C7  NON d   1     -48.920  16.505  -2.240  0.00  0.00     0.001 A 
ATOM     22  C8  NON d   1     -48.121  16.968  -3.287  0.00  0.00     0.009 A 
ENDBRANCH  16  17
ENDBRANCH  15  16
ENDBRANCH   3  15
TORSDOF 4
ENDMDL
MODEL 6
REMARK VINA RESULT:   -11.617      1.638      2.597
REMARK INTER + INTRA:         -13.140
REMARK INTER:                 -12.810
REMARK INTRA:                  -0.330
REMARK CONF_INDEPENDENT:        1.193
REMARK UNBOUND:                -0.330
REMARK  4 active torsions:
REMARK  status: ('A' for Active; 'I' for Inactive)
REMARK       I    between atoms: C1_2  and  N1_3 
REMARK    1  A    between atoms: C1_2  and  C9_12 
REMARK    2  A    between atoms: N1_3  and  O2_4 
REMARK    3  A    between atoms: O2_4  and  C2_5 
REMARK    4  A    between atoms: C2_5  and  C3_6 
ROOT
ATOM      1  O1  NON d   1     -43.983  16.111  -4.793  0.00  0.00    -0.265 OA
ATOM      2  C1  NON d   1     -44.172  17.293  -5.067  0.00  0.00     0.277 C 
ATOM      3  N1  NON d   1     -45.366  17.777  -5.566  0.00  0.00    -0.230 N 
ATOM      4  H1  NON d   1     -45.586  18.762  -5.513  0.00  0.00     0.197 HD
ENDROOT
BRANCH   2   5
ATOM      5  C9  NON d   1     -43.147  18.319  -4.838  0.00  0.00     0.061 A 
ATOM      6  C10 NON d   1     -42.965  19.505  -5.535  0.00  0.00     0.106 A 
ATOM      7  N2  NON d   1     -41.899  20.175  -4.990  0.00  0.00    -0.364 N 
ATOM      8  C11 NON d   1     -41.367  19.457  -3.947  0.00  0.00     0.043 A 
ATOM      9  H10 NON d   1     -41.545  21.068  -5.304  0.00  0.00     0.165 HD
ATOM     10  C12 NON d   1     -40.284  19.754  -3.110  0.00  0.00     0.030 A 
ATOM     11  C16 NON d   1     -42.122  18.289  -3.826  0.00  0.00     0.008 A 
ATOM     12  C13 NON d   1     -39.959  18.829  -2.115  0.00  0.00     0.002 A 
ATOM     13  C14 NON d   1     -40.688  17.653  -1.966  0.00  0.00     0.001 A 
ATOM     14  C15 NON d   1     -41.769  17.373  -2.809  0.00  0.00     0.015 A 
ENDBRANCH   2   5
BRANCH   3  15
ATOM     15  O2  NON d   1     -46.459  16.880  -5.435  0.00  0.00    -0.273 OA
BRANCH  15  16
ATOM     16  C2  NON d   1     -46.534  16.389  -4.094  0.00  0.00     0.240 C 
BRANCH  16  17
ATOM     17  C3  NON d   1     -47.941  16.014  -3.677  0.00  0.00    -0.032 A 
ATOM     18  C4  NON d   1     -48.682  15.012  -4.321  0.00  0.00     0.009 A 
ATOM     19  C5  NON d   1     -49.973  14.693  -3.896  0.00  0.00     0.001 A 
ATOM     20  C6  NON d   1     -50.548  15.381  -2.831  0.00  0.00     0.000 A 
ATOM     21  C7  NON d   1     -49.832  16.389  -2.189  0.00  0.00     0.001 A 
ATOM     22  C8  NON d   1     -48.535  16.700  -2.606  0.00  0.00     0.009 A 
ENDBRANCH  16  17
ENDBRANCH  15  16
ENDBRANCH   3  15
TORSDOF 4
ENDMDL
MODEL 7
REMARK VINA RESULT:   -11.180      1.631      7.236
REMARK INTER + INTRA:         -12.821
REMARK INTER:                 -12.373
REMARK INTRA:                  -0.449
REMARK CONF_INDEPENDENT:        1.193
REMARK UNBOUND:                -0.449
REMARK  4 active torsions:
REMARK  status: ('A' for Active; 'I' for Inactive)
REMARK       I    between atoms: C1_2  and  N1_3 
REMARK    1  A    between atoms: C1_2  and  C9_12 
REMARK    2  A    between atoms: N1_3  and  O2_4 
REMARK    3  A    between atoms: O2_4  and  C2_5 
REMARK    4  A    between atoms: C2_5  and  C3_6 
ROOT
ATOM      1  O1  NON d   1     -46.059  16.108  -5.810  0.00  0.00    -0.265 OA
ATOM      2  C1  NON d   1     -45.847  16.504  -4.667  0.00  0.00     0.277 C 
ATOM      3  N1  NON d   1     -44.607  16.923  -4.224  0.00  0.00    -0.230 N 
ATOM      4  H1  NON d   1     -44.521  17.496  -3.397  0.00  0.00     0.197 HD
ENDROOT
BRANCH   2   5
ATOM      5  C9  NON d   1     -46.920  16.616  -3.670  0.00  0.00     0.061 A 
ATOM      6  C10 NON d   1     -46.931  17.397  -2.523  0.00  0.00     0.106 A 
ATOM      7  N2  NON d   1     -48.129  17.213  -1.880  0.00  0.00    -0.364 N 
ATOM      8  C11 NON d   1     -48.911  16.323  -2.573  0.00  0.00     0.043 A 
ATOM      9  H10 NON d   1     -48.405  17.660  -1.017  0.00  0.00     0.165 HD
ATOM     10  C12 NON d   1     -50.197  15.844  -2.291  0.00  0.00     0.030 A 
ATOM     11  C16 NON d   1     -48.184  15.928  -3.698  0.00  0.00     0.008 A 
ATOM     12  C13 NON d   1     -50.762  14.932  -3.186  0.00  0.00     0.002 A 
ATOM     13  C14 NON d   1     -50.066  14.513  -4.315  0.00  0.00     0.001 A 
ATOM     14  C15 NON d   1     -48.783  15.004  -4.584  0.00  0.00     0.015 A 
ENDBRANCH   2   5
BRANCH   3  15
ATOM     15  O2  NON d   1     -43.671  17.173  -5.263  0.00  0.00    -0.273 OA
BRANCH  15  16
ATOM     16  C2  NON d   1     -43.017  18.425  -5.044  0.00  0.00     0.240 C 
BRANCH  16  17
ATOM     17  C3  NON d   1     -41.787  18.306  -4.168  0.00  0.00    -0.032 A 
ATOM     18  C4  NON d   1     -40.485  18.484  -4.660  0.00  0.00     0.009 A 
ATOM     19  C5  NON d   1     -39.380  18.375  -3.812  0.00  0.00     0.001 A 
ATOM     20  C6  NON d   1     -39.560  18.071  -2.466  0.00  0.00     0.000 A 
ATOM     21  C7  NON d   1     -40.845  17.877  -1.964  0.00  0.00     0.001 A 
ATOM     22  C8  NON d   1     -41.951  17.998  -2.808  0.00  0.00     0.009 A 
ENDBRANCH  16  17
ENDBRANCH  15  16
ENDBRANCH   3  15
TORSDOF 4
ENDMDL
