MODEL 1
REMARK VINA RESULT:   -29.020      0.000      0.000
REMARK INTER + INTRA:         -33.464
REMARK INTER:                 -32.600
REMARK INTRA:                  -0.864
REMARK CONF_INDEPENDENT:        3.580
REMARK UNBOUND:                -0.864
REMARK  12 active torsions:
REMARK  status: ('A' for Active; 'I' for Inactive)
REMARK    1  A    between atoms: O1_2  and  C2_3 
REMARK    2  A    between atoms: C5_6  and  N1_7 
REMARK       I    between atoms: N1_7  and  C6_8 
REMARK    3  A    between atoms: C6_8  and  C7_10 
REMARK    4  A    between atoms: C7_10  and  S1_11 
REMARK    5  A    between atoms: S1_11  and  C8_12 
REMARK    6  A    between atoms: C10_15  and  C11_16 
REMARK    7  A    between atoms: C11_16  and  O3_17 
REMARK    8  A    between atoms: N3_18  and  C12_19 
REMARK    9  A    between atoms: C12_19  and  C13_20 
REMARK       I    between atoms: C13_20  and  N4_22 
REMARK   10  A    between atoms: N4_22  and  C14_23 
REMARK   11  A    between atoms: C14_23  and  C15_24 
REMARK   12  A    between atoms: C22_32  and  O5_33 
ROOT
ATOM      1  C8  NON d   1     -46.741  16.673  -4.672  0.00  0.00     0.169 A 
ATOM      2  N2  NON d   1     -47.085  16.131  -5.810  0.00  0.00    -0.235 NA
ATOM      3  C9  NON d   1     -48.259  15.487  -5.554  0.00  0.00     0.147 A 
ATOM      4  C10 NON d   1     -48.656  15.641  -4.235  0.00  0.00     0.055 A 
ATOM      5  N3  NON d   1     -47.649  16.398  -3.653  0.00  0.00    -0.318 N 
ENDROOT
BRANCH   1   6
ATOM      6  S1  NON d   1     -45.320  17.642  -4.447  0.00  0.00    -0.083 SA
BRANCH   6   7
ATOM      7  C7  NON d   1     -43.982  16.508  -4.960  0.00  0.00     0.185 C 
BRANCH   7   8
ATOM      8  C6  NON d   1     -42.645  17.253  -4.907  0.00  0.00     0.231 C 
ATOM      9  N1  NON d   1     -42.441  17.986  -3.740  0.00  0.00    -0.326 N 
ATOM     10  H6  NON d   1     -43.045  17.776  -2.951  0.00  0.00     0.169 HD
ATOM     11  O2  NON d   1     -41.815  17.151  -5.809  0.00  0.00    -0.272 OA
BRANCH   9  12
ATOM     12  C5  NON d   1     -41.378  18.893  -3.506  0.00  0.00     0.037 A 
ATOM     13  C4  NON d   1     -40.304  18.470  -2.714  0.00  0.00     0.032 A 
ATOM     14  C3  NON d   1     -39.238  19.338  -2.433  0.00  0.00     0.042 A 
ATOM     15  C2  NON d   1     -39.250  20.648  -2.916  0.00  0.00     0.101 A 
ATOM     16  C22 NON d   1     -40.300  21.069  -3.733  0.00  0.00     0.103 A 
ATOM     17  C21 NON d   1     -41.369  20.201  -4.001  0.00  0.00     0.069 A 
BRANCH  15  18
ATOM     18  O1  NON d   1     -38.184  21.438  -2.583  0.00  0.00    -0.353 OA
ATOM     19  C1  NON d   1     -37.760  21.206  -1.237  0.00  0.00     0.210 C 
ENDBRANCH  15  18
BRANCH  16  20
ATOM     20  O5  NON d   1     -40.399  22.328  -4.269  0.00  0.00    -0.353 OA
ATOM     21  C23 NON d   1     -41.331  23.147  -3.564  0.00  0.00     0.210 C 
ENDBRANCH  16  20
ENDBRANCH   9  12
ENDBRANCH   7   8
ENDBRANCH   6   7
ENDBRANCH   1   6
BRANCH   5  22
ATOM     22  C12 NON d   1     -47.528  16.981  -2.306  0.00  0.00     0.234 C 
BRANCH  22  23
ATOM     23  C13 NON d   1     -48.666  16.858  -1.311  0.00  0.00     0.236 C 
ATOM     24  O4  NON d   1     -49.307  15.829  -1.123  0.00  0.00    -0.272 OA
ATOM     25  N4  NON d   1     -48.899  18.005  -0.552  0.00  0.00    -0.355 N 
ATOM     26  H15 NON d   1     -48.464  18.876  -0.826  0.00  0.00     0.162 HD
BRANCH  25  27
ATOM     27  C14 NON d   1     -50.093  18.078   0.270  0.00  0.00     0.161 C 
BRANCH  27  28
ATOM     28  C15 NON d   1     -51.432  17.982  -0.428  0.00  0.00    -0.040 A 
ATOM     29  C16 NON d   1     -51.473  17.255  -1.637  0.00  0.00     0.010 A 
ATOM     30  C17 NON d   1     -52.665  17.077  -2.341  0.00  0.00     0.024 A 
ATOM     31  C18 NON d   1     -53.840  17.629  -1.848  0.00  0.00     0.034 A 
ATOM     32 Cl1  NON d   1     -55.315  17.409  -2.708  0.00  0.00    -0.084 Cl
ATOM     33  C19 NON d   1     -53.828  18.353  -0.657  0.00  0.00     0.024 A 
ATOM     34  C20 NON d   1     -52.630  18.525   0.055  0.00  0.00     0.010 A 
ENDBRANCH  27  28
ENDBRANCH  25  27
ENDBRANCH  22  23
ENDBRANCH   5  22
BRANCH   4  35
ATOM     35  C11 NON d   1     -49.861  15.083  -3.570  0.00  0.00     0.222 C 
BRANCH  35  36
ATOM     36  O3  NON d   1     -49.734  13.664  -3.561  0.00  0.00    -0.395 OA
ATOM     37  H12 NON d   1     -50.602  13.314  -3.826  0.00  0.00     0.209 HD
ENDBRANCH  35  36
ENDBRANCH   4  35
TORSDOF 12
ENDMDL
MODEL 2
REMARK VINA RESULT:   -28.812      1.911      2.642
REMARK INTER + INTRA:         -33.469
REMARK INTER:                 -32.392
REMARK INTRA:                  -1.077
REMARK CONF_INDEPENDENT:        3.580
REMARK UNBOUND:                -1.077
REMARK  12 active torsions:
REMARK  status: ('A' for Active; 'I' for Inactive)
REMARK    1  A    between atoms: O1_2  and  C2_3 
REMARK    2  A    between atoms: C5_6  and  N1_7 
REMARK       I    between atoms: N1_7  and  C6_8 
REMARK    3  A    between atoms: C6_8  and  C7_10 
REMARK    4  A    between atoms: C7_10  and  S1_11 
REMARK    5  A    between atoms: S1_11  and  C8_12 
REMARK    6  A    between atoms: C10_15  and  C11_16 
REMARK    7  A    between atoms: C11_16  and  O3_17 
REMARK    8  A    between atoms: N3_18  and  C12_19 
REMARK    9  A    between atoms: C12_19  and  C13_20 
REMARK       I    between atoms: C13_20  and  N4_22 
REMARK   10  A    between atoms: N4_22  and  C14_23 
REMARK   11  A    between atoms: C14_23  and  C15_24 
REMARK   12  A    between atoms: C22_32  and  O5_33 
ROOT
ATOM      1  C8  NON d   1     -46.790  16.716  -4.692  0.00  0.00     0.169 A 
ATOM      2  N2  NON d   1     -47.126  16.130  -5.810  0.00  0.00    -0.235 NA
ATOM      3  C9  NON d   1     -48.269  15.446  -5.522  0.00  0.00     0.147 A 
ATOM      4  C10 NON d   1     -48.655  15.618  -4.202  0.00  0.00     0.055 A 
ATOM      5  N3  NON d   1     -47.674  16.431  -3.654  0.00  0.00    -0.318 N 
ENDROOT
BRANCH   1   6
ATOM      6  S1  NON d   1     -45.408  17.748  -4.511  0.00  0.00    -0.083 SA
BRANCH   6   7
ATOM      7  C7  NON d   1     -44.135  16.598  -3.880  0.00  0.00     0.185 C 
BRANCH   7   8
ATOM      8  C6  NON d   1     -42.757  17.253  -4.014  0.00  0.00     0.231 C 
ATOM      9  N1  NON d   1     -42.693  18.269  -4.966  0.00  0.00    -0.326 N 
ATOM     10  H6  NON d   1     -43.574  18.649  -5.295  0.00  0.00     0.169 HD
ATOM     11  O2  NON d   1     -41.816  16.927  -3.292  0.00  0.00    -0.272 OA
BRANCH   9  12
ATOM     12  C5  NON d   1     -41.514  18.917  -5.408  0.00  0.00     0.037 A 
ATOM     13  C4  NON d   1     -41.199  20.170  -4.866  0.00  0.00     0.032 A 
ATOM     14  C3  NON d   1     -40.054  20.863  -5.288  0.00  0.00     0.042 A 
ATOM     15  C2  NON d   1     -39.230  20.326  -6.278  0.00  0.00     0.101 A 
ATOM     16  C22 NON d   1     -39.516  19.064  -6.800  0.00  0.00     0.103 A 
ATOM     17  C21 NON d   1     -40.667  18.380  -6.384  0.00  0.00     0.069 A 
BRANCH  15  18
ATOM     18  O1  NON d   1     -38.144  21.072  -6.648  0.00  0.00    -0.353 OA
ATOM     19  C1  NON d   1     -38.396  21.802  -7.851  0.00  0.00     0.210 C 
ENDBRANCH  15  18
BRANCH  16  20
ATOM     20  O5  NON d   1     -38.762  18.443  -7.763  0.00  0.00    -0.353 OA
ATOM     21  C23 NON d   1     -37.383  18.366  -7.408  0.00  0.00     0.210 C 
ENDBRANCH  16  20
ENDBRANCH   9  12
ENDBRANCH   7   8
ENDBRANCH   6   7
ENDBRANCH   1   6
BRANCH   5  22
ATOM     22  C12 NON d   1     -47.560  17.054  -2.324  0.00  0.00     0.234 C 
BRANCH  22  23
ATOM     23  C13 NON d   1     -48.677  16.906  -1.309  0.00  0.00     0.236 C 
ATOM     24  O4  NON d   1     -49.314  15.872  -1.133  0.00  0.00    -0.272 OA
ATOM     25  N4  NON d   1     -48.894  18.033  -0.516  0.00  0.00    -0.355 N 
ATOM     26  H15 NON d   1     -48.464  18.911  -0.778  0.00  0.00     0.162 HD
BRANCH  25  27
ATOM     27  C14 NON d   1     -50.071  18.085   0.332  0.00  0.00     0.161 C 
BRANCH  27  28
ATOM     28  C15 NON d   1     -51.423  17.990  -0.339  0.00  0.00    -0.040 A 
ATOM     29  C16 NON d   1     -52.476  18.734   0.233  0.00  0.00     0.010 A 
ATOM     30  C17 NON d   1     -53.754  18.743  -0.329  0.00  0.00     0.024 A 
ATOM     31  C18 NON d   1     -54.001  18.001  -1.477  0.00  0.00     0.034 A 
ATOM     32 Cl1  NON d   1     -55.572  18.011  -2.180  0.00  0.00    -0.084 Cl
ATOM     33  C19 NON d   1     -52.979  17.256  -2.063  0.00  0.00     0.024 A 
ATOM     34  C20 NON d   1     -51.692  17.254  -1.500  0.00  0.00     0.010 A 
ENDBRANCH  27  28
ENDBRANCH  25  27
ENDBRANCH  22  23
ENDBRANCH   5  22
BRANCH   4  35
ATOM     35  C11 NON d   1     -49.828  15.029  -3.507  0.00  0.00     0.222 C 
BRANCH  35  36
ATOM     36  O3  NON d   1     -49.985  13.693  -3.976  0.00  0.00    -0.395 OA
ATOM     37  H12 NON d   1     -50.811  13.365  -3.582  0.00  0.00     0.209 HD
ENDBRANCH  35  36
ENDBRANCH   4  35
TORSDOF 12
ENDMDL
MODEL 3
REMARK VINA RESULT:   -27.929      1.596      2.016
REMARK INTER + INTRA:         -33.075
REMARK INTER:                 -31.509
REMARK INTRA:                  -1.566
REMARK CONF_INDEPENDENT:        3.580
REMARK UNBOUND:                -1.566
REMARK  12 active torsions:
REMARK  status: ('A' for Active; 'I' for Inactive)
REMARK    1  A    between atoms: O1_2  and  C2_3 
REMARK    2  A    between atoms: C5_6  and  N1_7 
REMARK       I    between atoms: N1_7  and  C6_8 
REMARK    3  A    between atoms: C6_8  and  C7_10 
REMARK    4  A    between atoms: C7_10  and  S1_11 
REMARK    5  A    between atoms: S1_11  and  C8_12 
REMARK    6  A    between atoms: C10_15  and  C11_16 
REMARK    7  A    between atoms: C11_16  and  O3_17 
REMARK    8  A    between atoms: N3_18  and  C12_19 
REMARK    9  A    between atoms: C12_19  and  C13_20 
REMARK       I    between atoms: C13_20  and  N4_22 
REMARK   10  A    between atoms: N4_22  and  C14_23 
REMARK   11  A    between atoms: C14_23  and  C15_24 
REMARK   12  A    between atoms: C22_32  and  O5_33 
ROOT
ATOM      1  C8  NON d   1     -46.831  16.653  -5.154  0.00  0.00     0.169 A 
ATOM      2  N2  NON d   1     -47.440  16.130  -6.185  0.00  0.00    -0.235 NA
ATOM      3  C9  NON d   1     -48.475  15.415  -5.659  0.00  0.00     0.147 A 
ATOM      4  C10 NON d   1     -48.514  15.504  -4.276  0.00  0.00     0.055 A 
ATOM      5  N3  NON d   1     -47.424  16.295  -3.946  0.00  0.00    -0.318 N 
ENDROOT
BRANCH   1   6
ATOM      6  S1  NON d   1     -45.445  17.690  -5.266  0.00  0.00    -0.083 SA
BRANCH   6   7
ATOM      7  C7  NON d   1     -44.254  16.882  -4.140  0.00  0.00     0.185 C 
BRANCH   7   8
ATOM      8  C6  NON d   1     -42.918  17.628  -4.204  0.00  0.00     0.231 C 
ATOM      9  N1  NON d   1     -42.955  18.811  -4.939  0.00  0.00    -0.326 N 
ATOM     10  H6  NON d   1     -43.870  19.197  -5.148  0.00  0.00     0.169 HD
ATOM     11  O2  NON d   1     -41.924  17.222  -3.603  0.00  0.00    -0.272 OA
BRANCH   9  12
ATOM     12  C5  NON d   1     -41.833  19.600  -5.297  0.00  0.00     0.037 A 
ATOM     13  C4  NON d   1     -41.020  19.163  -6.350  0.00  0.00     0.032 A 
ATOM     14  C3  NON d   1     -39.886  19.897  -6.728  0.00  0.00     0.042 A 
ATOM     15  C2  NON d   1     -39.534  21.057  -6.037  0.00  0.00     0.101 A 
ATOM     16  C22 NON d   1     -40.356  21.520  -5.008  0.00  0.00     0.103 A 
ATOM     17  C21 NON d   1     -41.483  20.777  -4.626  0.00  0.00     0.069 A 
BRANCH  15  18
ATOM     18  O1  NON d   1     -38.403  21.705  -6.454  0.00  0.00    -0.353 OA
ATOM     19  C1  NON d   1     -38.718  22.906  -7.163  0.00  0.00     0.210 C 
ENDBRANCH  15  18
BRANCH  16  20
ATOM     20  O5  NON d   1     -40.108  22.654  -4.278  0.00  0.00    -0.353 OA
ATOM     21  C23 NON d   1     -39.713  22.363  -2.938  0.00  0.00     0.210 C 
ENDBRANCH  16  20
ENDBRANCH   9  12
ENDBRANCH   7   8
ENDBRANCH   6   7
ENDBRANCH   1   6
BRANCH   5  22
ATOM     22  C12 NON d   1     -46.975  16.840  -2.653  0.00  0.00     0.234 C 
BRANCH  22  23
ATOM     23  C13 NON d   1     -47.913  17.683  -1.809  0.00  0.00     0.236 C 
ATOM     24  O4  NON d   1     -47.815  18.899  -1.679  0.00  0.00    -0.272 OA
ATOM     25  N4  NON d   1     -48.965  16.975  -1.228  0.00  0.00    -0.355 N 
ATOM     26  H15 NON d   1     -48.938  15.964  -1.225  0.00  0.00     0.162 HD
BRANCH  25  27
ATOM     27  C14 NON d   1     -49.791  17.630  -0.230  0.00  0.00     0.161 C 
BRANCH  27  28
ATOM     28  C15 NON d   1     -51.252  17.841  -0.560  0.00  0.00    -0.040 A 
ATOM     29  C16 NON d   1     -51.762  17.155  -1.682  0.00  0.00     0.010 A 
ATOM     30  C17 NON d   1     -53.105  17.255  -2.051  0.00  0.00     0.024 A 
ATOM     31  C18 NON d   1     -53.963  18.049  -1.302  0.00  0.00     0.034 A 
ATOM     32 Cl1  NON d   1     -55.621  18.171  -1.746  0.00  0.00    -0.084 Cl
ATOM     33  C19 NON d   1     -53.486  18.738  -0.187  0.00  0.00     0.024 A 
ATOM     34  C20 NON d   1     -52.137  18.631   0.186  0.00  0.00     0.010 A 
ENDBRANCH  27  28
ENDBRANCH  25  27
ENDBRANCH  22  23
ENDBRANCH   5  22
BRANCH   4  35
ATOM     35  C11 NON d   1     -49.475  14.859  -3.345  0.00  0.00     0.222 C 
BRANCH  35  36
ATOM     36  O3  NON d   1     -50.244  13.923  -4.094  0.00  0.00    -0.395 OA
ATOM     37  H12 NON d   1     -50.441  13.189  -3.486  0.00  0.00     0.209 HD
ENDBRANCH  35  36
ENDBRANCH   4  35
TORSDOF 12
ENDMDL
MODEL 4
REMARK VINA RESULT:   -27.769      3.917     10.829
REMARK INTER + INTRA:         -33.248
REMARK INTER:                 -31.348
REMARK INTRA:                  -1.900
REMARK CONF_INDEPENDENT:        3.580
REMARK UNBOUND:                -1.900
REMARK  12 active torsions:
REMARK  status: ('A' for Active; 'I' for Inactive)
REMARK    1  A    between atoms: O1_2  and  C2_3 
REMARK    2  A    between atoms: C5_6  and  N1_7 
REMARK       I    between atoms: N1_7  and  C6_8 
REMARK    3  A    between atoms: C6_8  and  C7_10 
REMARK    4  A    between atoms: C7_10  and  S1_11 
REMARK    5  A    between atoms: S1_11  and  C8_12 
REMARK    6  A    between atoms: C10_15  and  C11_16 
REMARK    7  A    between atoms: C11_16  and  O3_17 
REMARK    8  A    between atoms: N3_18  and  C12_19 
REMARK    9  A    between atoms: C12_19  and  C13_20 
REMARK       I    between atoms: C13_20  and  N4_22 
REMARK   10  A    between atoms: N4_22  and  C14_23 
REMARK   11  A    between atoms: C14_23  and  C15_24 
REMARK   12  A    between atoms: C22_32  and  O5_33 
ROOT
ATOM      1  C8  NON d   1     -46.571  16.451  -4.700  0.00  0.00     0.169 A 
ATOM      2  N2  NON d   1     -47.115  16.877  -5.809  0.00  0.00    -0.235 NA
ATOM      3  C9  NON d   1     -46.322  17.907  -6.219  0.00  0.00     0.147 A 
ATOM      4  C10 NON d   1     -45.260  18.118  -5.353  0.00  0.00     0.055 A 
ATOM      5  N3  NON d   1     -45.438  17.180  -4.347  0.00  0.00    -0.318 N 
ENDROOT
BRANCH   1   6
ATOM      6  S1  NON d   1     -47.177  15.119  -3.769  0.00  0.00    -0.083 SA
BRANCH   6   7
ATOM      7  C7  NON d   1     -48.925  15.031  -4.295  0.00  0.00     0.185 C 
BRANCH   7   8
ATOM      8  C6  NON d   1     -49.735  16.075  -3.520  0.00  0.00     0.231 C 
ATOM      9  N1  NON d   1     -50.936  15.599  -2.997  0.00  0.00    -0.326 N 
ATOM     10  H6  NON d   1     -51.053  14.592  -2.953  0.00  0.00     0.169 HD
ATOM     11  O2  NON d   1     -49.312  17.217  -3.343  0.00  0.00    -0.272 OA
BRANCH   9  12
ATOM     12  C5  NON d   1     -51.946  16.387  -2.392  0.00  0.00     0.037 A 
ATOM     13  C4  NON d   1     -53.270  16.209  -2.809  0.00  0.00     0.032 A 
ATOM     14  C3  NON d   1     -54.304  16.980  -2.257  0.00  0.00     0.042 A 
ATOM     15  C2  NON d   1     -54.020  17.959  -1.303  0.00  0.00     0.101 A 
ATOM     16  C22 NON d   1     -52.708  18.122  -0.856  0.00  0.00     0.103 A 
ATOM     17  C21 NON d   1     -51.677  17.356  -1.419  0.00  0.00     0.069 A 
BRANCH  15  18
ATOM     18  O1  NON d   1     -55.079  18.682  -0.828  0.00  0.00    -0.353 OA
ATOM     19  C1  NON d   1     -54.666  19.963  -0.348  0.00  0.00     0.210 C 
ENDBRANCH  15  18
BRANCH  16  20
ATOM     20  O5  NON d   1     -52.328  19.043   0.086  0.00  0.00    -0.353 OA
ATOM     21  C23 NON d   1     -51.070  18.726   0.680  0.00  0.00     0.210 C 
ENDBRANCH  16  20
ENDBRANCH   9  12
ENDBRANCH   7   8
ENDBRANCH   6   7
ENDBRANCH   1   6
BRANCH   5  22
ATOM     22  C12 NON d   1     -44.599  16.825  -3.190  0.00  0.00     0.234 C 
BRANCH  22  23
ATOM     23  C13 NON d   1     -43.115  17.144  -3.192  0.00  0.00     0.236 C 
ATOM     24  O4  NON d   1     -42.325  16.735  -4.036  0.00  0.00    -0.272 OA
ATOM     25  N4  NON d   1     -42.709  18.014  -2.180  0.00  0.00    -0.355 N 
ATOM     26  H15 NON d   1     -43.341  18.215  -1.416  0.00  0.00     0.162 HD
BRANCH  25  27
ATOM     27  C14 NON d   1     -41.290  18.217  -1.951  0.00  0.00     0.161 C 
BRANCH  27  28
ATOM     28  C15 NON d   1     -40.449  18.677  -3.121  0.00  0.00    -0.040 A 
ATOM     29  C16 NON d   1     -39.205  18.037  -3.307  0.00  0.00     0.010 A 
ATOM     30  C17 NON d   1     -38.369  18.364  -4.377  0.00  0.00     0.024 A 
ATOM     31  C18 NON d   1     -38.764  19.342  -5.280  0.00  0.00     0.034 A 
ATOM     32 Cl1  NON d   1     -37.742  19.745  -6.605  0.00  0.00    -0.084 Cl
ATOM     33  C19 NON d   1     -39.988  19.990  -5.120  0.00  0.00     0.024 A 
ATOM     34  C20 NON d   1     -40.831  19.656  -4.048  0.00  0.00     0.010 A 
ENDBRANCH  27  28
ENDBRANCH  25  27
ENDBRANCH  22  23
ENDBRANCH   5  22
BRANCH   4  35
ATOM     35  C11 NON d   1     -44.194  19.148  -5.446  0.00  0.00     0.222 C 
BRANCH  35  36
ATOM     36  O3  NON d   1     -42.956  18.474  -5.651  0.00  0.00    -0.395 OA
ATOM     37  H12 NON d   1     -43.130  17.533  -5.477  0.00  0.00     0.209 HD
ENDBRANCH  35  36
ENDBRANCH   4  35
TORSDOF 12
ENDMDL
