MODEL 1
REMARK VINA RESULT:   -14.193      0.000      0.000
REMARK INTER + INTRA:         -17.759
REMARK INTER:                 -16.281
REMARK INTRA:                  -1.478
REMARK CONF_INDEPENDENT:        2.088
REMARK UNBOUND:                -1.478
REMARK  7 active torsions:
REMARK  status: ('A' for Active; 'I' for Inactive)
REMARK    1  A    between atoms: C1_2  and  C2_3 
REMARK       I    between atoms: C1_2  and  N1_11 
REMARK    2  A    between atoms: C2_3  and  C3_4 
REMARK    3  A    between atoms: C3_4  and  C4_5 
REMARK    4  A    between atoms: N1_11  and  N2_12 
REMARK       I    between atoms: N2_12  and  C10_13 
REMARK    5  A    between atoms: C10_13  and  C11_15 
REMARK    6  A    between atoms: C11_15  and  O3_16 
REMARK    7  A    between atoms: O3_16  and  C12_17 
ROOT
ATOM      1  N2  NON d   1     -44.736  17.099  -5.061  0.00  0.00    -0.266 N 
ATOM      2  C10 NON d   1     -45.940  16.943  -5.723  0.00  0.00     0.260 C 
ATOM      3  O2  NON d   1     -46.558  17.901  -6.185  0.00  0.00    -0.269 OA
ATOM      4  H17 NON d   1     -44.200  16.336  -4.648  0.00  0.00     0.190 HD
ENDROOT
BRANCH   1   5
ATOM      5  N1  NON d   1     -44.188  18.385  -4.919  0.00  0.00    -0.267 N 
ATOM      6  C1  NON d   1     -42.819  18.483  -4.771  0.00  0.00     0.236 C 
ATOM      7  O1  NON d   1     -42.095  17.490  -4.825  0.00  0.00    -0.272 OA
ATOM      8  H16 NON d   1     -44.842  19.160  -4.815  0.00  0.00     0.190 HD
BRANCH   6   9
ATOM      9  C2  NON d   1     -42.300  19.901  -4.552  0.00  0.00     0.105 C 
BRANCH   9  10
ATOM     10  C3  NON d   1     -40.768  19.923  -4.619  0.00  0.00     0.014 C 
BRANCH  10  11
ATOM     11  C4  NON d   1     -40.094  20.024  -6.000  0.00  0.00    -0.014 C 
ATOM     12  C5  NON d   1     -41.025  20.411  -7.153  0.00  0.00     0.004 C 
ATOM     13  C6  NON d   1     -40.221  20.691  -8.424  0.00  0.00     0.000 C 
ATOM     14  C7  NON d   1     -39.304  19.531  -8.810  0.00  0.00     0.000 C 
ATOM     15  C8  NON d   1     -38.477  19.001  -7.641  0.00  0.00     0.000 C 
ATOM     16  C9  NON d   1     -39.316  18.755  -6.384  0.00  0.00     0.004 C 
ENDBRANCH  10  11
ENDBRANCH   9  10
ENDBRANCH   6   9
ENDBRANCH   1   5
BRANCH   2  17
ATOM     17  C11 NON d   1     -46.402  15.481  -5.809  0.00  0.00     0.280 C 
BRANCH  17  18
ATOM     18  O3  NON d   1     -47.820  15.380  -5.810  0.00  0.00    -0.342 OA
BRANCH  18  19
ATOM     19  C12 NON d   1     -48.474  15.570  -4.624  0.00  0.00     0.072 A 
ATOM     20  C13 NON d   1     -49.643  14.811  -4.475  0.00  0.00     0.037 A 
ATOM     21  C14 NON d   1     -50.416  14.899  -3.315  0.00  0.00     0.006 A 
ATOM     22  C15 NON d   1     -50.021  15.756  -2.291  0.00  0.00     0.042 A 
ATOM     23  C16 NON d   1     -48.861  16.506  -2.439  0.00  0.00     0.119 A 
ATOM     24  F1  NON d   1     -48.481  17.328  -1.451  0.00  0.00    -0.206 F 
ATOM     25  C17 NON d   1     -48.083  16.422  -3.594  0.00  0.00     0.079 A 
ENDBRANCH  18  19
ENDBRANCH  17  18
ENDBRANCH   2  17
TORSDOF 7
ENDMDL
MODEL 2
REMARK VINA RESULT:   -14.154      0.300      1.091
REMARK INTER + INTRA:         -17.824
REMARK INTER:                 -16.242
REMARK INTRA:                  -1.582
REMARK CONF_INDEPENDENT:        2.088
REMARK UNBOUND:                -1.582
REMARK  7 active torsions:
REMARK  status: ('A' for Active; 'I' for Inactive)
REMARK    1  A    between atoms: C1_2  and  C2_3 
REMARK       I    between atoms: C1_2  and  N1_11 
REMARK    2  A    between atoms: C2_3  and  C3_4 
REMARK    3  A    between atoms: C3_4  and  C4_5 
REMARK    4  A    between atoms: N1_11  and  N2_12 
REMARK       I    between atoms: N2_12  and  C10_13 
REMARK    5  A    between atoms: C10_13  and  C11_15 
REMARK    6  A    between atoms: C11_15  and  O3_16 
REMARK    7  A    between atoms: O3_16  and  C12_17 
ROOT
ATOM      1  N2  NON d   1     -44.692  17.105  -5.061  0.00  0.00    -0.266 N 
ATOM      2  C10 NON d   1     -45.903  17.013  -5.723  0.00  0.00     0.260 C 
ATOM      3  O2  NON d   1     -46.470  18.002  -6.185  0.00  0.00    -0.269 OA
ATOM      4  H17 NON d   1     -44.197  16.315  -4.649  0.00  0.00     0.190 HD
ENDROOT
BRANCH   1   5
ATOM      5  N1  NON d   1     -44.078  18.361  -4.919  0.00  0.00    -0.267 N 
ATOM      6  C1  NON d   1     -42.740  18.381  -4.581  0.00  0.00     0.236 C 
ATOM      7  O1  NON d   1     -42.089  17.343  -4.471  0.00  0.00    -0.272 OA
ATOM      8  H16 NON d   1     -44.682  19.181  -4.957  0.00  0.00     0.190 HD
BRANCH   6   9
ATOM      9  C2  NON d   1     -42.154  19.775  -4.375  0.00  0.00     0.105 C 
BRANCH   9  10
ATOM     10  C3  NON d   1     -40.654  19.775  -4.694  0.00  0.00     0.014 C 
BRANCH  10  11
ATOM     11  C4  NON d   1     -40.211  19.499  -6.143  0.00  0.00    -0.014 C 
ATOM     12  C5  NON d   1     -38.718  19.212  -6.325  0.00  0.00     0.004 C 
ATOM     13  C6  NON d   1     -38.430  18.744  -7.753  0.00  0.00     0.000 C 
ATOM     14  C7  NON d   1     -38.945  19.721  -8.810  0.00  0.00     0.000 C 
ATOM     15  C8  NON d   1     -40.386  20.167  -8.567  0.00  0.00     0.000 C 
ATOM     16  C9  NON d   1     -40.636  20.606  -7.122  0.00  0.00     0.004 C 
ENDBRANCH  10  11
ENDBRANCH   9  10
ENDBRANCH   6   9
ENDBRANCH   1   5
BRANCH   2  17
ATOM     17  C11 NON d   1     -46.441  15.577  -5.810  0.00  0.00     0.280 C 
BRANCH  17  18
ATOM     18  O3  NON d   1     -47.863  15.551  -5.810  0.00  0.00    -0.342 OA
BRANCH  18  19
ATOM     19  C12 NON d   1     -48.503  15.666  -4.607  0.00  0.00     0.072 A 
ATOM     20  C13 NON d   1     -49.626  14.841  -4.464  0.00  0.00     0.037 A 
ATOM     21  C14 NON d   1     -50.381  14.849  -3.288  0.00  0.00     0.006 A 
ATOM     22  C15 NON d   1     -50.012  15.691  -2.242  0.00  0.00     0.042 A 
ATOM     23  C16 NON d   1     -48.896  16.507  -2.385  0.00  0.00     0.119 A 
ATOM     24  F1  NON d   1     -48.541  17.315  -1.376  0.00  0.00    -0.206 F 
ATOM     25  C17 NON d   1     -48.138  16.504  -3.555  0.00  0.00     0.079 A 
ENDBRANCH  18  19
ENDBRANCH  17  18
ENDBRANCH   2  17
TORSDOF 7
ENDMDL
MODEL 3
REMARK VINA RESULT:   -14.027      0.946      1.726
REMARK INTER + INTRA:         -17.564
REMARK INTER:                 -16.115
REMARK INTRA:                  -1.449
REMARK CONF_INDEPENDENT:        2.088
REMARK UNBOUND:                -1.449
REMARK  7 active torsions:
REMARK  status: ('A' for Active; 'I' for Inactive)
REMARK    1  A    between atoms: C1_2  and  C2_3 
REMARK       I    between atoms: C1_2  and  N1_11 
REMARK    2  A    between atoms: C2_3  and  C3_4 
REMARK    3  A    between atoms: C3_4  and  C4_5 
REMARK    4  A    between atoms: N1_11  and  N2_12 
REMARK       I    between atoms: N2_12  and  C10_13 
REMARK    5  A    between atoms: C10_13  and  C11_15 
REMARK    6  A    between atoms: C11_15  and  O3_16 
REMARK    7  A    between atoms: O3_16  and  C12_17 
ROOT
ATOM      1  N2  NON d   1     -44.654  16.973  -5.054  0.00  0.00    -0.266 N 
ATOM      2  C10 NON d   1     -45.868  16.858  -5.706  0.00  0.00     0.260 C 
ATOM      3  O2  NON d   1     -46.446  17.833  -6.185  0.00  0.00    -0.269 OA
ATOM      4  H17 NON d   1     -44.150  16.195  -4.629  0.00  0.00     0.190 HD
ENDROOT
BRANCH   1   5
ATOM      5  N1  NON d   1     -44.049  18.236  -4.942  0.00  0.00    -0.267 N 
ATOM      6  C1  NON d   1     -42.750  18.282  -4.475  0.00  0.00     0.236 C 
ATOM      7  O1  NON d   1     -42.121  17.254  -4.227  0.00  0.00    -0.272 OA
ATOM      8  H16 NON d   1     -44.641  19.051  -5.098  0.00  0.00     0.190 HD
BRANCH   6   9
ATOM      9  C2  NON d   1     -42.179  19.688  -4.311  0.00  0.00     0.105 C 
BRANCH   9  10
ATOM     10  C3  NON d   1     -40.687  19.700  -4.664  0.00  0.00     0.014 C 
BRANCH  10  11
ATOM     11  C4  NON d   1     -40.277  19.478  -6.133  0.00  0.00    -0.014 C 
ATOM     12  C5  NON d   1     -38.794  19.166  -6.355  0.00  0.00     0.004 C 
ATOM     13  C6  NON d   1     -38.544  18.755  -7.808  0.00  0.00     0.000 C 
ATOM     14  C7  NON d   1     -39.055  19.789  -8.810  0.00  0.00     0.000 C 
ATOM     15  C8  NON d   1     -40.480  20.255  -8.521  0.00  0.00     0.000 C 
ATOM     16  C9  NON d   1     -40.694  20.636  -7.054  0.00  0.00     0.004 C 
ENDBRANCH  10  11
ENDBRANCH   9  10
ENDBRANCH   6   9
ENDBRANCH   1   5
BRANCH   2  17
ATOM     17  C11 NON d   1     -46.395  15.416  -5.760  0.00  0.00     0.280 C 
BRANCH  17  18
ATOM     18  O3  NON d   1     -47.816  15.381  -5.811  0.00  0.00    -0.342 OA
BRANCH  18  19
ATOM     19  C12 NON d   1     -48.501  15.563  -4.642  0.00  0.00     0.072 A 
ATOM     20  C13 NON d   1     -47.836  16.350  -3.693  0.00  0.00     0.037 A 
ATOM     21  C14 NON d   1     -48.414  16.624  -2.451  0.00  0.00     0.006 A 
ATOM     22  C15 NON d   1     -49.670  16.104  -2.149  0.00  0.00     0.042 A 
ATOM     23  C16 NON d   1     -50.329  15.324  -3.092  0.00  0.00     0.119 A 
ATOM     24  F1  NON d   1     -51.539  14.826  -2.801  0.00  0.00    -0.206 F 
ATOM     25  C17 NON d   1     -49.759  15.048  -4.334  0.00  0.00     0.079 A 
ENDBRANCH  18  19
ENDBRANCH  17  18
ENDBRANCH   2  17
TORSDOF 7
ENDMDL
MODEL 4
REMARK VINA RESULT:   -13.838      3.076      9.496
REMARK INTER + INTRA:         -17.102
REMARK INTER:                 -15.926
REMARK INTRA:                  -1.175
REMARK CONF_INDEPENDENT:        2.088
REMARK UNBOUND:                -1.175
REMARK  7 active torsions:
REMARK  status: ('A' for Active; 'I' for Inactive)
REMARK    1  A    between atoms: C1_2  and  C2_3 
REMARK       I    between atoms: C1_2  and  N1_11 
REMARK    2  A    between atoms: C2_3  and  C3_4 
REMARK    3  A    between atoms: C3_4  and  C4_5 
REMARK    4  A    between atoms: N1_11  and  N2_12 
REMARK       I    between atoms: N2_12  and  C10_13 
REMARK    5  A    between atoms: C10_13  and  C11_15 
REMARK    6  A    between atoms: C11_15  and  O3_16 
REMARK    7  A    between atoms: O3_16  and  C12_17 
ROOT
ATOM      1  N2  NON d   1     -45.871  16.527  -3.897  0.00  0.00    -0.266 N 
ATOM      2  C10 NON d   1     -45.547  17.278  -5.013  0.00  0.00     0.260 C 
ATOM      3  O2  NON d   1     -46.378  17.555  -5.876  0.00  0.00    -0.269 OA
ATOM      4  H17 NON d   1     -45.209  16.261  -3.168  0.00  0.00     0.190 HD
ENDROOT
BRANCH   1   5
ATOM      5  N1  NON d   1     -47.190  16.075  -3.730  0.00  0.00    -0.267 N 
ATOM      6  C1  NON d   1     -47.772  15.402  -4.785  0.00  0.00     0.236 C 
ATOM      7  O1  NON d   1     -47.142  15.147  -5.810  0.00  0.00    -0.272 OA
ATOM      8  H16 NON d   1     -47.680  16.374  -2.888  0.00  0.00     0.190 HD
BRANCH   6   9
ATOM      9  C2  NON d   1     -49.228  15.001  -4.562  0.00  0.00     0.105 C 
BRANCH   9  10
ATOM     10  C3  NON d   1     -49.628  15.238  -3.101  0.00  0.00     0.014 C 
BRANCH  10  11
ATOM     11  C4  NON d   1     -50.859  16.117  -2.809  0.00  0.00    -0.014 C 
ATOM     12  C5  NON d   1     -50.774  16.953  -1.528  0.00  0.00     0.004 C 
ATOM     13  C6  NON d   1     -51.941  17.939  -1.451  0.00  0.00     0.000 C 
ATOM     14  C7  NON d   1     -53.301  17.255  -1.585  0.00  0.00     0.000 C 
ATOM     15  C8  NON d   1     -53.373  16.279  -2.757  0.00  0.00     0.000 C 
ATOM     16  C9  NON d   1     -52.176  15.326  -2.810  0.00  0.00     0.004 C 
ENDBRANCH  10  11
ENDBRANCH   9  10
ENDBRANCH   6   9
ENDBRANCH   1   5
BRANCH   2  17
ATOM     17  C11 NON d   1     -44.073  17.710  -5.048  0.00  0.00     0.280 C 
BRANCH  17  18
ATOM     18  O3  NON d   1     -43.414  17.422  -3.821  0.00  0.00    -0.342 OA
BRANCH  18  19
ATOM     19  C12 NON d   1     -42.102  17.788  -3.700  0.00  0.00     0.072 A 
ATOM     20  C13 NON d   1     -41.660  17.944  -2.380  0.00  0.00     0.037 A 
ATOM     21  C14 NON d   1     -40.342  18.314  -2.100  0.00  0.00     0.006 A 
ATOM     22  C15 NON d   1     -39.454  18.533  -3.150  0.00  0.00     0.042 A 
ATOM     23  C16 NON d   1     -39.893  18.376  -4.459  0.00  0.00     0.119 A 
ATOM     24  F1  NON d   1     -39.036  18.585  -5.468  0.00  0.00    -0.206 F 
ATOM     25  C17 NON d   1     -41.207  18.006  -4.746  0.00  0.00     0.079 A 
ENDBRANCH  18  19
ENDBRANCH  17  18
ENDBRANCH   2  17
TORSDOF 7
ENDMDL
MODEL 5
REMARK VINA RESULT:   -13.620      2.198      3.549
REMARK INTER + INTRA:         -16.829
REMARK INTER:                 -15.708
REMARK INTRA:                  -1.121
REMARK CONF_INDEPENDENT:        2.088
REMARK UNBOUND:                -1.121
REMARK  7 active torsions:
REMARK  status: ('A' for Active; 'I' for Inactive)
REMARK    1  A    between atoms: C1_2  and  C2_3 
REMARK       I    between atoms: C1_2  and  N1_11 
REMARK    2  A    between atoms: C2_3  and  C3_4 
REMARK    3  A    between atoms: C3_4  and  C4_5 
REMARK    4  A    between atoms: N1_11  and  N2_12 
REMARK       I    between atoms: N2_12  and  C10_13 
REMARK    5  A    between atoms: C10_13  and  C11_15 
REMARK    6  A    between atoms: C11_15  and  O3_16 
REMARK    7  A    between atoms: O3_16  and  C12_17 
ROOT
ATOM      1  N2  NON d   1     -47.495  15.918  -3.784  0.00  0.00    -0.266 N 
ATOM      2  C10 NON d   1     -48.312  15.713  -4.881  0.00  0.00     0.260 C 
ATOM      3  O2  NON d   1     -48.158  16.330  -5.934  0.00  0.00    -0.269 OA
ATOM      4  H17 NON d   1     -47.598  15.442  -2.889  0.00  0.00     0.190 HD
ENDROOT
BRANCH   1   5
ATOM      5  N1  NON d   1     -46.445  16.848  -3.871  0.00  0.00    -0.267 N 
ATOM      6  C1  NON d   1     -45.573  16.727  -4.934  0.00  0.00     0.236 C 
ATOM      7  O1  NON d   1     -45.741  15.881  -5.810  0.00  0.00    -0.272 OA
ATOM      8  H16 NON d   1     -46.319  17.482  -3.083  0.00  0.00     0.190 HD
BRANCH   6   9
ATOM      9  C2  NON d   1     -44.417  17.725  -4.929  0.00  0.00     0.105 C 
BRANCH   9  10
ATOM     10  C3  NON d   1     -43.309  17.250  -3.982  0.00  0.00     0.014 C 
BRANCH  10  11
ATOM     11  C4  NON d   1     -41.855  17.657  -4.289  0.00  0.00    -0.014 C 
ATOM     12  C5  NON d   1     -41.003  18.004  -3.064  0.00  0.00     0.004 C 
ATOM     13  C6  NON d   1     -39.536  18.182  -3.463  0.00  0.00     0.000 C 
ATOM     14  C7  NON d   1     -39.348  19.203  -4.583  0.00  0.00     0.000 C 
ATOM     15  C8  NON d   1     -40.303  18.994  -5.757  0.00  0.00     0.000 C 
ATOM     16  C9  NON d   1     -41.755  18.798  -5.314  0.00  0.00     0.004 C 
ENDBRANCH  10  11
ENDBRANCH   9  10
ENDBRANCH   6   9
ENDBRANCH   1   5
BRANCH   2  17
ATOM     17  C11 NON d   1     -49.403  14.659  -4.638  0.00  0.00     0.280 C 
BRANCH  17  18
ATOM     18  O3  NON d   1     -49.671  14.494  -3.251  0.00  0.00    -0.342 OA
BRANCH  18  19
ATOM     19  C12 NON d   1     -50.355  15.490  -2.611  0.00  0.00     0.072 A 
ATOM     20  C13 NON d   1     -49.599  16.207  -1.675  0.00  0.00     0.037 A 
ATOM     21  C14 NON d   1     -50.163  17.255  -0.943  0.00  0.00     0.006 A 
ATOM     22  C15 NON d   1     -51.499  17.591  -1.146  0.00  0.00     0.042 A 
ATOM     23  C16 NON d   1     -52.247  16.880  -2.076  0.00  0.00     0.119 A 
ATOM     24  F1  NON d   1     -53.532  17.207  -2.272  0.00  0.00    -0.206 F 
ATOM     25  C17 NON d   1     -51.690  15.833  -2.811  0.00  0.00     0.079 A 
ENDBRANCH  18  19
ENDBRANCH  17  18
ENDBRANCH   2  17
TORSDOF 7
ENDMDL
MODEL 6
REMARK VINA RESULT:   -13.125      1.841      3.269
REMARK INTER + INTRA:         -16.643
REMARK INTER:                 -15.213
REMARK INTRA:                  -1.430
REMARK CONF_INDEPENDENT:        2.088
REMARK UNBOUND:                -1.430
REMARK  7 active torsions:
REMARK  status: ('A' for Active; 'I' for Inactive)
REMARK    1  A    between atoms: C1_2  and  C2_3 
REMARK       I    between atoms: C1_2  and  N1_11 
REMARK    2  A    between atoms: C2_3  and  C3_4 
REMARK    3  A    between atoms: C3_4  and  C4_5 
REMARK    4  A    between atoms: N1_11  and  N2_12 
REMARK       I    between atoms: N2_12  and  C10_13 
REMARK    5  A    between atoms: C10_13  and  C11_15 
REMARK    6  A    between atoms: C11_15  and  O3_16 
REMARK    7  A    between atoms: O3_16  and  C12_17 
ROOT
ATOM      1  N2  NON d   1     -44.651  17.162  -5.127  0.00  0.00    -0.266 N 
ATOM      2  C10 NON d   1     -45.863  17.034  -5.781  0.00  0.00     0.260 C 
ATOM      3  O2  NON d   1     -46.432  17.996  -6.294  0.00  0.00    -0.269 OA
ATOM      4  H17 NON d   1     -44.155  16.395  -4.674  0.00  0.00     0.190 HD
ENDROOT
BRANCH   1   5
ATOM      5  N1  NON d   1     -44.037  18.424  -5.055  0.00  0.00    -0.267 N 
ATOM      6  C1  NON d   1     -42.673  18.458  -4.849  0.00  0.00     0.236 C 
ATOM      7  O1  NON d   1     -42.005  17.426  -4.795  0.00  0.00    -0.272 OA
ATOM      8  H16 NON d   1     -44.649  19.238  -5.039  0.00  0.00     0.190 HD
BRANCH   6   9
ATOM      9  C2  NON d   1     -42.082  19.859  -4.710  0.00  0.00     0.105 C 
BRANCH   9  10
ATOM     10  C3  NON d   1     -40.646  19.780  -4.177  0.00  0.00     0.014 C 
BRANCH  10  11
ATOM     11  C4  NON d   1     -40.193  20.817  -3.131  0.00  0.00    -0.014 C 
ATOM     12  C5  NON d   1     -40.291  20.357  -1.673  0.00  0.00     0.004 C 
ATOM     13  C6  NON d   1     -39.620  21.371  -0.744  0.00  0.00     0.000 C 
ATOM     14  C7  NON d   1     -40.165  22.787  -0.923  0.00  0.00     0.000 C 
ATOM     15  C8  NON d   1     -40.244  23.223  -2.384  0.00  0.00     0.000 C 
ATOM     16  C9  NON d   1     -40.901  22.173  -3.283  0.00  0.00     0.004 C 
ENDBRANCH  10  11
ENDBRANCH   9  10
ENDBRANCH   6   9
ENDBRANCH   1   5
BRANCH   2  17
ATOM     17  C11 NON d   1     -46.401  15.595  -5.789  0.00  0.00     0.280 C 
BRANCH  17  18
ATOM     18  O3  NON d   1     -47.822  15.568  -5.806  0.00  0.00    -0.342 OA
BRANCH  18  19
ATOM     19  C12 NON d   1     -48.477  15.668  -4.610  0.00  0.00     0.072 A 
ATOM     20  C13 NON d   1     -49.590  14.827  -4.483  0.00  0.00     0.037 A 
ATOM     21  C14 NON d   1     -50.357  14.818  -3.315  0.00  0.00     0.006 A 
ATOM     22  C15 NON d   1     -50.012  15.660  -2.261  0.00  0.00     0.042 A 
ATOM     23  C16 NON d   1     -48.906  16.493  -2.388  0.00  0.00     0.119 A 
ATOM     24  F1  NON d   1     -48.574  17.301  -1.372  0.00  0.00    -0.206 F 
ATOM     25  C17 NON d   1     -48.135  16.506  -3.551  0.00  0.00     0.079 A 
ENDBRANCH  18  19
ENDBRANCH  17  18
ENDBRANCH   2  17
TORSDOF 7
ENDMDL
MODEL 7
REMARK VINA RESULT:   -12.891      1.530      2.589
REMARK INTER + INTRA:         -16.584
REMARK INTER:                 -14.979
REMARK INTRA:                  -1.604
REMARK CONF_INDEPENDENT:        2.088
REMARK UNBOUND:                -1.604
REMARK  7 active torsions:
REMARK  status: ('A' for Active; 'I' for Inactive)
REMARK    1  A    between atoms: C1_2  and  C2_3 
REMARK       I    between atoms: C1_2  and  N1_11 
REMARK    2  A    between atoms: C2_3  and  C3_4 
REMARK    3  A    between atoms: C3_4  and  C4_5 
REMARK    4  A    between atoms: N1_11  and  N2_12 
REMARK       I    between atoms: N2_12  and  C10_13 
REMARK    5  A    between atoms: C10_13  and  C11_15 
REMARK    6  A    between atoms: C11_15  and  O3_16 
REMARK    7  A    between atoms: O3_16  and  C12_17 
ROOT
ATOM      1  N2  NON d   1     -44.695  17.008  -5.128  0.00  0.00    -0.266 N 
ATOM      2  C10 NON d   1     -45.928  16.903  -5.745  0.00  0.00     0.260 C 
ATOM      3  O2  NON d   1     -46.522  17.885  -6.187  0.00  0.00    -0.269 OA
ATOM      4  H17 NON d   1     -44.177  16.223  -4.733  0.00  0.00     0.190 HD
ENDROOT
BRANCH   1   5
ATOM      5  N1  NON d   1     -44.088  18.270  -5.011  0.00  0.00    -0.267 N 
ATOM      6  C1  NON d   1     -42.767  18.308  -4.614  0.00  0.00     0.236 C 
ATOM      7  O1  NON d   1     -42.121  17.277  -4.433  0.00  0.00    -0.272 OA
ATOM      8  H16 NON d   1     -44.691  19.086  -5.109  0.00  0.00     0.190 HD
BRANCH   6   9
ATOM      9  C2  NON d   1     -42.192  19.711  -4.439  0.00  0.00     0.105 C 
BRANCH   9  10
ATOM     10  C3  NON d   1     -40.845  19.828  -5.162  0.00  0.00     0.014 C 
BRANCH  10  11
ATOM     11  C4  NON d   1     -39.553  19.754  -4.324  0.00  0.00    -0.014 C 
ATOM     12  C5  NON d   1     -39.351  18.447  -3.553  0.00  0.00     0.004 C 
ATOM     13  C6  NON d   1     -37.951  18.397  -2.937  0.00  0.00     0.000 C 
ATOM     14  C7  NON d   1     -37.646  19.615  -2.065  0.00  0.00     0.000 C 
ATOM     15  C8  NON d   1     -37.995  20.941  -2.738  0.00  0.00     0.000 C 
ATOM     16  C9  NON d   1     -39.394  20.940  -3.360  0.00  0.00     0.004 C 
ENDBRANCH  10  11
ENDBRANCH   9  10
ENDBRANCH   6   9
ENDBRANCH   1   5
BRANCH   2  17
ATOM     17  C11 NON d   1     -46.454  15.461  -5.810  0.00  0.00     0.280 C 
BRANCH  17  18
ATOM     18  O3  NON d   1     -47.876  15.423  -5.810  0.00  0.00    -0.342 OA
BRANCH  18  19
ATOM     19  C12 NON d   1     -48.518  15.592  -4.614  0.00  0.00     0.072 A 
ATOM     20  C13 NON d   1     -49.670  14.811  -4.456  0.00  0.00     0.037 A 
ATOM     21  C14 NON d   1     -50.430  14.876  -3.286  0.00  0.00     0.006 A 
ATOM     22  C15 NON d   1     -50.039  15.733  -2.261  0.00  0.00     0.042 A 
ATOM     23  C16 NON d   1     -48.895  16.507  -2.418  0.00  0.00     0.119 A 
ATOM     24  F1  NON d   1     -48.518  17.329  -1.430  0.00  0.00    -0.206 F 
ATOM     25  C17 NON d   1     -48.130  16.446  -3.584  0.00  0.00     0.079 A 
ENDBRANCH  18  19
ENDBRANCH  17  18
ENDBRANCH   2  17
TORSDOF 7
ENDMDL
MODEL 8
REMARK VINA RESULT:   -12.503      3.212      4.946
REMARK INTER + INTRA:         -16.081
REMARK INTER:                 -14.591
REMARK INTRA:                  -1.489
REMARK CONF_INDEPENDENT:        2.088
REMARK UNBOUND:                -1.489
REMARK  7 active torsions:
REMARK  status: ('A' for Active; 'I' for Inactive)
REMARK    1  A    between atoms: C1_2  and  C2_3 
REMARK       I    between atoms: C1_2  and  N1_11 
REMARK    2  A    between atoms: C2_3  and  C3_4 
REMARK    3  A    between atoms: C3_4  and  C4_5 
REMARK    4  A    between atoms: N1_11  and  N2_12 
REMARK       I    between atoms: N2_12  and  C10_13 
REMARK    5  A    between atoms: C10_13  and  C11_15 
REMARK    6  A    between atoms: C11_15  and  O3_16 
REMARK    7  A    between atoms: O3_16  and  C12_17 
ROOT
ATOM      1  N2  NON d   1     -48.394  16.533  -3.327  0.00  0.00    -0.266 N 
ATOM      2  C10 NON d   1     -49.090  15.354  -3.129  0.00  0.00     0.260 C 
ATOM      3  O2  NON d   1     -48.541  14.255  -3.185  0.00  0.00    -0.269 OA
ATOM      4  H17 NON d   1     -48.813  17.462  -3.307  0.00  0.00     0.190 HD
ENDROOT
BRANCH   1   5
ATOM      5  N1  NON d   1     -47.014  16.483  -3.587  0.00  0.00    -0.267 N 
ATOM      6  C1  NON d   1     -46.605  16.645  -4.895  0.00  0.00     0.236 C 
ATOM      7  O1  NON d   1     -47.409  16.889  -5.794  0.00  0.00    -0.272 OA
ATOM      8  H16 NON d   1     -46.406  16.212  -2.815  0.00  0.00     0.190 HD
BRANCH   6   9
ATOM      9  C2  NON d   1     -45.101  16.510  -5.116  0.00  0.00     0.105 C 
BRANCH   9  10
ATOM     10  C3  NON d   1     -44.333  17.126  -3.940  0.00  0.00     0.014 C 
BRANCH  10  11
ATOM     11  C4  NON d   1     -42.855  17.509  -4.148  0.00  0.00    -0.014 C 
ATOM     12  C5  NON d   1     -42.047  17.708  -2.862  0.00  0.00     0.004 C 
ATOM     13  C6  NON d   1     -40.560  17.871  -3.182  0.00  0.00     0.000 C 
ATOM     14  C7  NON d   1     -40.291  18.986  -4.192  0.00  0.00     0.000 C 
ATOM     15  C8  NON d   1     -41.199  18.922  -5.418  0.00  0.00     0.000 C 
ATOM     16  C9  NON d   1     -42.674  18.737  -5.055  0.00  0.00     0.004 C 
ENDBRANCH  10  11
ENDBRANCH   9  10
ENDBRANCH   6   9
ENDBRANCH   1   5
BRANCH   2  17
ATOM     17  C11 NON d   1     -50.584  15.571  -2.843  0.00  0.00     0.280 C 
BRANCH  17  18
ATOM     18  O3  NON d   1     -50.871  16.937  -2.570  0.00  0.00    -0.342 OA
BRANCH  18  19
ATOM     19  C12 NON d   1     -52.102  17.240  -2.059  0.00  0.00     0.072 A 
ATOM     20  C13 NON d   1     -52.073  17.997  -0.881  0.00  0.00     0.037 A 
ATOM     21  C14 NON d   1     -53.255  18.384  -0.244  0.00  0.00     0.006 A 
ATOM     22  C15 NON d   1     -54.482  18.010  -0.787  0.00  0.00     0.042 A 
ATOM     23  C16 NON d   1     -54.509  17.261  -1.957  0.00  0.00     0.119 A 
ATOM     24  F1  NON d   1     -55.690  16.904  -2.480  0.00  0.00    -0.206 F 
ATOM     25  C17 NON d   1     -53.333  16.872  -2.599  0.00  0.00     0.079 A 
ENDBRANCH  18  19
ENDBRANCH  17  18
ENDBRANCH   2  17
TORSDOF 7
ENDMDL
MODEL 9
REMARK VINA RESULT:   -12.075      3.556     10.033
REMARK INTER + INTRA:         -16.167
REMARK INTER:                 -14.163
REMARK INTRA:                  -2.004
REMARK CONF_INDEPENDENT:        2.088
REMARK UNBOUND:                -2.004
REMARK  7 active torsions:
REMARK  status: ('A' for Active; 'I' for Inactive)
REMARK    1  A    between atoms: C1_2  and  C2_3 
REMARK       I    between atoms: C1_2  and  N1_11 
REMARK    2  A    between atoms: C2_3  and  C3_4 
REMARK    3  A    between atoms: C3_4  and  C4_5 
REMARK    4  A    between atoms: N1_11  and  N2_12 
REMARK       I    between atoms: N2_12  and  C10_13 
REMARK    5  A    between atoms: C10_13  and  C11_15 
REMARK    6  A    between atoms: C11_15  and  O3_16 
REMARK    7  A    between atoms: O3_16  and  C12_17 
ROOT
ATOM      1  N2  NON d   1     -46.973  16.880  -4.232  0.00  0.00    -0.266 N 
ATOM      2  C10 NON d   1     -46.207  16.180  -5.146  0.00  0.00     0.260 C 
ATOM      3  O2  NON d   1     -46.704  15.380  -5.937  0.00  0.00    -0.269 OA
ATOM      4  H17 NON d   1     -46.600  17.538  -3.549  0.00  0.00     0.190 HD
ENDROOT
BRANCH   1   5
ATOM      5  N1  NON d   1     -48.365  16.687  -4.208  0.00  0.00    -0.267 N 
ATOM      6  C1  NON d   1     -49.003  16.799  -2.990  0.00  0.00     0.236 C 
ATOM      7  O1  NON d   1     -48.392  17.120  -1.972  0.00  0.00    -0.272 OA
ATOM      8  H16 NON d   1     -48.803  16.359  -5.068  0.00  0.00     0.190 HD
BRANCH   6   9
ATOM      9  C2  NON d   1     -50.501  16.509  -3.024  0.00  0.00     0.105 C 
BRANCH   9  10
ATOM     10  C3  NON d   1     -51.146  16.881  -1.683  0.00  0.00     0.014 C 
BRANCH  10  11
ATOM     11  C4  NON d   1     -52.499  17.617  -1.698  0.00  0.00    -0.014 C 
ATOM     12  C5  NON d   1     -52.915  18.242  -0.362  0.00  0.00     0.004 C 
ATOM     13  C6  NON d   1     -54.154  19.121  -0.543  0.00  0.00     0.000 C 
ATOM     14  C7  NON d   1     -55.316  18.377  -1.200  0.00  0.00     0.000 C 
ATOM     15  C8  NON d   1     -54.905  17.598  -2.448  0.00  0.00     0.000 C 
ATOM     16  C9  NON d   1     -53.650  16.749  -2.230  0.00  0.00     0.004 C 
ENDBRANCH  10  11
ENDBRANCH   9  10
ENDBRANCH   6   9
ENDBRANCH   1   5
BRANCH   2  17
ATOM     17  C11 NON d   1     -44.708  16.507  -5.061  0.00  0.00     0.280 C 
BRANCH  17  18
ATOM     18  O3  NON d   1     -44.444  17.492  -4.070  0.00  0.00    -0.342 OA
BRANCH  18  19
ATOM     19  C12 NON d   1     -43.184  18.020  -4.015  0.00  0.00     0.072 A 
ATOM     20  C13 NON d   1     -42.435  17.626  -2.898  0.00  0.00     0.037 A 
ATOM     21  C14 NON d   1     -41.129  18.085  -2.708  0.00  0.00     0.006 A 
ATOM     22  C15 NON d   1     -40.563  18.949  -3.641  0.00  0.00     0.042 A 
ATOM     23  C16 NON d   1     -41.306  19.338  -4.749  0.00  0.00     0.119 A 
ATOM     24  F1  NON d   1     -40.759  20.168  -5.648  0.00  0.00    -0.206 F 
ATOM     25  C17 NON d   1     -42.610  18.883  -4.946  0.00  0.00     0.079 A 
ENDBRANCH  18  19
ENDBRANCH  17  18
ENDBRANCH   2  17
TORSDOF 7
ENDMDL
