MODEL 1
REMARK VINA RESULT:   -11.308      0.000      0.000
REMARK INTER + INTRA:         -14.557
REMARK INTER:                 -13.098
REMARK INTRA:                  -1.459
REMARK CONF_INDEPENDENT:        1.790
REMARK UNBOUND:                -1.459
REMARK  6 active torsions:
REMARK  status: ('A' for Active; 'I' for Inactive)
REMARK    1  A    between atoms: C3_4  and  S1_5 
REMARK    2  A    between atoms: S1_5  and  C4_6 
REMARK    3  A    between atoms: C4_6  and  C5_7 
REMARK       I    between atoms: C5_7  and  N2_8 
REMARK    4  A    between atoms: C8_13  and  C9_14 
REMARK    5  A    between atoms: C13_19  and  C14_20 
REMARK       I    between atoms: C14_20  and  N4_22 
REMARK    6  A    between atoms: N4_22  and  C15_23 
ROOT
ATOM      1  C1  NON d   1     -41.552  18.127  -1.558  0.00  0.00     0.071 C 
ATOM      2  C2  NON d   1     -41.552  18.575  -2.997  0.00  0.00     0.048 A 
ATOM      3  N1  NON d   1     -42.726  18.345  -3.644  0.00  0.00    -0.244 NA
ATOM      4  C3  NON d   1     -42.902  18.770  -4.914  0.00  0.00     0.115 A 
ATOM      5  C6  NON d   1     -41.853  19.365  -5.611  0.00  0.00     0.092 A 
ATOM      6  C7  NON d   1     -42.050  19.875  -6.936  0.00  0.00     0.103 C 
ATOM      7  N3  NON d   1     -42.191  20.257  -8.022  0.00  0.00    -0.191 NA
ATOM      8  C8  NON d   1     -40.587  19.538  -4.978  0.00  0.00     0.022 A 
ATOM      9  C13 NON d   1     -40.455  19.200  -3.612  0.00  0.00     0.069 A 
ENDROOT
BRANCH   4  10
ATOM     10  S1  NON d   1     -44.601  18.588  -5.434  0.00  0.00    -0.100 SA
BRANCH  10  11
ATOM     11  C4  NON d   1     -45.051  16.908  -4.907  0.00  0.00     0.183 C 
BRANCH  11  12
ATOM     12  C5  NON d   1     -46.282  16.400  -5.637  0.00  0.00     0.225 C 
ATOM     13  N2  NON d   1     -47.066  17.382  -6.179  0.00  0.00    -0.369 N 
ATOM     14  H6  NON d   1     -46.948  18.369  -5.985  0.00  0.00     0.159 HD
ATOM     15  H7  NON d   1     -47.917  17.090  -6.643  0.00  0.00     0.159 HD
ATOM     16  O1  NON d   1     -46.575  15.223  -5.809  0.00  0.00    -0.273 OA
ENDBRANCH  11  12
ENDBRANCH  10  11
ENDBRANCH   4  10
BRANCH   8  17
ATOM     17  C9  NON d   1     -39.472  20.035  -5.807  0.00  0.00     0.017 A 
ATOM     18  C10 NON d   1     -38.478  19.284  -6.416  0.00  0.00     0.020 A 
ATOM     19  C11 NON d   1     -37.581  20.078  -7.184  0.00  0.00     0.008 A 
ATOM     20  C12 NON d   1     -37.903  21.413  -7.124  0.00  0.00     0.050 A 
ATOM     21  S2  NON d   1     -39.336  21.690  -6.229  0.00  0.00    -0.101 SA
ENDBRANCH   8  17
BRANCH   9  22
ATOM     22  C14 NON d   1     -39.315  19.595  -2.728  0.00  0.00     0.259 C 
ATOM     23  O2  NON d   1     -38.288  18.924  -2.830  0.00  0.00    -0.267 OA
ATOM     24  N4  NON d   1     -39.482  20.628  -1.829  0.00  0.00    -0.323 N 
ATOM     25  H11 NON d   1     -40.416  20.973  -1.656  0.00  0.00     0.169 HD
BRANCH  24  26
ATOM     26  C15 NON d   1     -38.501  21.033  -0.882  0.00  0.00     0.035 A 
ATOM     27  C16 NON d   1     -38.930  21.690   0.276  0.00  0.00     0.029 A 
ATOM     28  C17 NON d   1     -38.010  22.054   1.267  0.00  0.00     0.002 A 
ATOM     29  C18 NON d   1     -36.652  21.800   1.091  0.00  0.00     0.000 A 
ATOM     30  C19 NON d   1     -36.211  21.181  -0.074  0.00  0.00     0.002 A 
ATOM     31  C20 NON d   1     -37.133  20.798  -1.056  0.00  0.00     0.029 A 
ENDBRANCH  24  26
ENDBRANCH   9  22
TORSDOF 6
ENDMDL
MODEL 2
REMARK VINA RESULT:   -11.209      1.514      1.899
REMARK INTER + INTRA:         -14.390
REMARK INTER:                 -12.998
REMARK INTRA:                  -1.391
REMARK CONF_INDEPENDENT:        1.790
REMARK UNBOUND:                -1.391
REMARK  6 active torsions:
REMARK  status: ('A' for Active; 'I' for Inactive)
REMARK    1  A    between atoms: C3_4  and  S1_5 
REMARK    2  A    between atoms: S1_5  and  C4_6 
REMARK    3  A    between atoms: C4_6  and  C5_7 
REMARK       I    between atoms: C5_7  and  N2_8 
REMARK    4  A    between atoms: C8_13  and  C9_14 
REMARK    5  A    between atoms: C13_19  and  C14_20 
REMARK       I    between atoms: C14_20  and  N4_22 
REMARK    6  A    between atoms: N4_22  and  C15_23 
ROOT
ATOM      1  C1  NON d   1     -41.439  18.468  -0.937  0.00  0.00     0.071 C 
ATOM      2  C2  NON d   1     -41.235  18.786  -2.395  0.00  0.00     0.048 A 
ATOM      3  N1  NON d   1     -41.788  17.873  -3.239  0.00  0.00    -0.244 NA
ATOM      4  C3  NON d   1     -41.758  18.070  -4.575  0.00  0.00     0.115 A 
ATOM      5  C6  NON d   1     -41.079  19.160  -5.113  0.00  0.00     0.092 A 
ATOM      6  C7  NON d   1     -41.095  19.411  -6.524  0.00  0.00     0.103 C 
ATOM      7  N3  NON d   1     -41.073  19.600  -7.669  0.00  0.00    -0.191 NA
ATOM      8  C8  NON d   1     -40.420  20.084  -4.248  0.00  0.00     0.022 A 
ATOM      9  C13 NON d   1     -40.564  19.931  -2.850  0.00  0.00     0.069 A 
ENDROOT
BRANCH   4  10
ATOM     10  S1  NON d   1     -42.777  16.880  -5.434  0.00  0.00    -0.100 SA
BRANCH  10  11
ATOM     11  C4  NON d   1     -44.342  16.885  -4.509  0.00  0.00     0.183 C 
BRANCH  11  12
ATOM     12  C5  NON d   1     -45.542  16.797  -5.435  0.00  0.00     0.225 C 
ATOM     13  N2  NON d   1     -45.985  18.004  -5.905  0.00  0.00    -0.369 N 
ATOM     14  H6  NON d   1     -45.663  18.898  -5.555  0.00  0.00     0.159 HD
ATOM     15  H7  NON d   1     -46.807  17.996  -6.496  0.00  0.00     0.159 HD
ATOM     16  O1  NON d   1     -46.081  15.763  -5.810  0.00  0.00    -0.273 OA
ENDBRANCH  11  12
ENDBRANCH  10  11
ENDBRANCH   4  10
BRANCH   8  17
ATOM     17  C9  NON d   1     -39.592  21.133  -4.875  0.00  0.00     0.017 A 
ATOM     18  C10 NON d   1     -38.288  21.015  -5.331  0.00  0.00     0.020 A 
ATOM     19  C11 NON d   1     -37.802  22.213  -5.925  0.00  0.00     0.008 A 
ATOM     20  C12 NON d   1     -38.740  23.217  -5.888  0.00  0.00     0.050 A 
ATOM     21  S2  NON d   1     -40.229  22.684  -5.232  0.00  0.00    -0.101 SA
ENDBRANCH   8  17
BRANCH   9  22
ATOM     22  C14 NON d   1     -40.206  20.962  -1.826  0.00  0.00     0.259 C 
ATOM     23  O2  NON d   1     -40.683  22.083  -1.991  0.00  0.00    -0.267 OA
ATOM     24  N4  NON d   1     -39.338  20.628  -0.806  0.00  0.00    -0.323 N 
ATOM     25  H11 NON d   1     -38.823  19.761  -0.873  0.00  0.00     0.169 HD
BRANCH  24  26
ATOM     26  C15 NON d   1     -38.860  21.545   0.170  0.00  0.00     0.035 A 
ATOM     27  C16 NON d   1     -37.495  21.535   0.476  0.00  0.00     0.029 A 
ATOM     28  C17 NON d   1     -36.965  22.458   1.385  0.00  0.00     0.002 A 
ATOM     29  C18 NON d   1     -37.799  23.373   2.023  0.00  0.00     0.000 A 
ATOM     30  C19 NON d   1     -39.164  23.366   1.755  0.00  0.00     0.002 A 
ATOM     31  C20 NON d   1     -39.691  22.457   0.830  0.00  0.00     0.029 A 
ENDBRANCH  24  26
ENDBRANCH   9  22
TORSDOF 6
ENDMDL
MODEL 3
REMARK VINA RESULT:   -10.597      1.670      1.962
REMARK INTER + INTRA:         -13.668
REMARK INTER:                 -12.387
REMARK INTRA:                  -1.282
REMARK CONF_INDEPENDENT:        1.790
REMARK UNBOUND:                -1.282
REMARK  6 active torsions:
REMARK  status: ('A' for Active; 'I' for Inactive)
REMARK    1  A    between atoms: C3_4  and  S1_5 
REMARK    2  A    between atoms: S1_5  and  C4_6 
REMARK    3  A    between atoms: C4_6  and  C5_7 
REMARK       I    between atoms: C5_7  and  N2_8 
REMARK    4  A    between atoms: C8_13  and  C9_14 
REMARK    5  A    between atoms: C13_19  and  C14_20 
REMARK       I    between atoms: C14_20  and  N4_22 
REMARK    6  A    between atoms: N4_22  and  C15_23 
ROOT
ATOM      1  C1  NON d   1     -41.440  18.380  -0.673  0.00  0.00     0.071 C 
ATOM      2  C2  NON d   1     -41.131  18.508  -2.142  0.00  0.00     0.048 A 
ATOM      3  N1  NON d   1     -41.949  17.771  -2.941  0.00  0.00    -0.244 NA
ATOM      4  C3  NON d   1     -41.845  17.851  -4.285  0.00  0.00     0.115 A 
ATOM      5  C6  NON d   1     -40.839  18.615  -4.872  0.00  0.00     0.092 A 
ATOM      6  C7  NON d   1     -40.760  18.755  -6.296  0.00  0.00     0.103 C 
ATOM      7  N3  NON d   1     -40.668  18.844  -7.449  0.00  0.00    -0.191 NA
ATOM      8  C8  NON d   1     -39.917  19.327  -4.049  0.00  0.00     0.022 A 
ATOM      9  C13 NON d   1     -40.114  19.331  -2.649  0.00  0.00     0.069 A 
ENDROOT
BRANCH   4  10
ATOM     10  S1  NON d   1     -43.195  17.007  -5.096  0.00  0.00    -0.100 SA
BRANCH  10  11
ATOM     11  C4  NON d   1     -44.663  17.498  -4.144  0.00  0.00     0.183 C 
BRANCH  11  12
ATOM     12  C5  NON d   1     -45.916  16.801  -4.643  0.00  0.00     0.225 C 
ATOM     13  N2  NON d   1     -46.689  16.250  -3.658  0.00  0.00    -0.369 N 
ATOM     14  H6  NON d   1     -46.394  16.159  -2.693  0.00  0.00     0.159 HD
ATOM     15  H7  NON d   1     -47.516  15.743  -3.948  0.00  0.00     0.159 HD
ATOM     16  O1  NON d   1     -46.288  16.747  -5.810  0.00  0.00    -0.273 OA
ENDBRANCH  11  12
ENDBRANCH  10  11
ENDBRANCH   4  10
BRANCH   8  17
ATOM     17  C9  NON d   1     -38.783  19.997  -4.716  0.00  0.00     0.017 A 
ATOM     18  C10 NON d   1     -38.638  21.352  -4.969  0.00  0.00     0.020 A 
ATOM     19  C11 NON d   1     -37.397  21.666  -5.591  0.00  0.00     0.008 A 
ATOM     20  C12 NON d   1     -36.639  20.540  -5.813  0.00  0.00     0.050 A 
ATOM     21  S2  NON d   1     -37.379  19.131  -5.182  0.00  0.00    -0.101 SA
ENDBRANCH   8  17
BRANCH   9  22
ATOM     22  C14 NON d   1     -39.442  20.255  -1.683  0.00  0.00     0.259 C 
ATOM     23  O2  NON d   1     -38.230  20.100  -1.533  0.00  0.00    -0.267 OA
ATOM     24  N4  NON d   1     -40.200  21.173  -0.986  0.00  0.00    -0.323 N 
ATOM     25  H11 NON d   1     -41.206  21.083  -1.004  0.00  0.00     0.169 HD
BRANCH  24  26
ATOM     26  C15 NON d   1     -39.686  22.040   0.017  0.00  0.00     0.035 A 
ATOM     27  C16 NON d   1     -40.563  22.946   0.622  0.00  0.00     0.029 A 
ATOM     28  C17 NON d   1     -40.121  23.778   1.658  0.00  0.00     0.002 A 
ATOM     29  C18 NON d   1     -38.791  23.739   2.070  0.00  0.00     0.000 A 
ATOM     30  C19 NON d   1     -37.902  22.869   1.448  0.00  0.00     0.002 A 
ATOM     31  C20 NON d   1     -38.349  22.021   0.427  0.00  0.00     0.029 A 
ENDBRANCH  24  26
ENDBRANCH   9  22
TORSDOF 6
ENDMDL
MODEL 4
REMARK VINA RESULT:   -10.589      2.340      5.796
REMARK INTER + INTRA:         -13.915
REMARK INTER:                 -12.379
REMARK INTRA:                  -1.536
REMARK CONF_INDEPENDENT:        1.790
REMARK UNBOUND:                -1.536
REMARK  6 active torsions:
REMARK  status: ('A' for Active; 'I' for Inactive)
REMARK    1  A    between atoms: C3_4  and  S1_5 
REMARK    2  A    between atoms: S1_5  and  C4_6 
REMARK    3  A    between atoms: C4_6  and  C5_7 
REMARK       I    between atoms: C5_7  and  N2_8 
REMARK    4  A    between atoms: C8_13  and  C9_14 
REMARK    5  A    between atoms: C13_19  and  C14_20 
REMARK       I    between atoms: C14_20  and  N4_22 
REMARK    6  A    between atoms: N4_22  and  C15_23 
ROOT
ATOM      1  C1  NON d   1     -42.133  20.157  -7.287  0.00  0.00     0.071 C 
ATOM      2  C2  NON d   1     -41.699  19.516  -5.995  0.00  0.00     0.048 A 
ATOM      3  N1  NON d   1     -42.705  18.890  -5.327  0.00  0.00    -0.244 NA
ATOM      4  C3  NON d   1     -42.449  18.199  -4.196  0.00  0.00     0.115 A 
ATOM      5  C6  NON d   1     -41.170  18.194  -3.644  0.00  0.00     0.092 A 
ATOM      6  C7  NON d   1     -40.876  17.413  -2.480  0.00  0.00     0.103 C 
ATOM      7  N3  NON d   1     -40.638  16.812  -1.516  0.00  0.00    -0.191 NA
ATOM      8  C8  NON d   1     -40.119  18.916  -4.285  0.00  0.00     0.022 A 
ATOM      9  C13 NON d   1     -40.374  19.532  -5.531  0.00  0.00     0.069 A 
ENDROOT
BRANCH   4  10
ATOM     10  S1  NON d   1     -43.873  17.256  -3.669  0.00  0.00    -0.100 SA
BRANCH  10  11
ATOM     11  C4  NON d   1     -45.051  17.425  -5.042  0.00  0.00     0.183 C 
BRANCH  11  12
ATOM     12  C5  NON d   1     -46.247  16.505  -4.873  0.00  0.00     0.225 C 
ATOM     13  N2  NON d   1     -46.586  16.249  -3.572  0.00  0.00    -0.369 N 
ATOM     14  H6  NON d   1     -46.011  16.503  -2.778  0.00  0.00     0.159 HD
ATOM     15  H7  NON d   1     -47.355  15.610  -3.413  0.00  0.00     0.159 HD
ATOM     16  O1  NON d   1     -46.927  16.043  -5.782  0.00  0.00    -0.273 OA
ENDBRANCH  11  12
ENDBRANCH  10  11
ENDBRANCH   4  10
BRANCH   8  17
ATOM     17  C9  NON d   1     -38.824  19.002  -3.581  0.00  0.00     0.017 A 
ATOM     18  C10 NON d   1     -38.519  19.777  -2.473  0.00  0.00     0.020 A 
ATOM     19  C11 NON d   1     -37.184  19.586  -2.018  0.00  0.00     0.008 A 
ATOM     20  C12 NON d   1     -36.502  18.687  -2.803  0.00  0.00     0.050 A 
ATOM     21  S2  NON d   1     -37.499  18.005  -4.017  0.00  0.00    -0.101 SA
ENDBRANCH   8  17
BRANCH   9  22
ATOM     22  C14 NON d   1     -39.332  20.055  -6.468  0.00  0.00     0.259 C 
ATOM     23  O2  NON d   1     -38.724  21.060  -6.101  0.00  0.00    -0.267 OA
ATOM     24  N4  NON d   1     -39.146  19.435  -7.686  0.00  0.00    -0.323 N 
ATOM     25  H11 NON d   1     -39.833  18.762  -7.997  0.00  0.00     0.169 HD
BRANCH  24  26
ATOM     26  C15 NON d   1     -38.249  19.893  -8.690  0.00  0.00     0.035 A 
ATOM     27  C16 NON d   1     -37.076  19.164  -8.913  0.00  0.00     0.029 A 
ATOM     28  C17 NON d   1     -36.190  19.539  -9.931  0.00  0.00     0.002 A 
ATOM     29  C18 NON d   1     -36.450  20.666 -10.707  0.00  0.00     0.000 A 
ATOM     30  C19 NON d   1     -37.594  21.420 -10.468  0.00  0.00     0.002 A 
ATOM     31  C20 NON d   1     -38.490  21.033  -9.464  0.00  0.00     0.029 A 
ENDBRANCH  24  26
ENDBRANCH   9  22
TORSDOF 6
ENDMDL
MODEL 5
REMARK VINA RESULT:   -10.113      2.578      5.001
REMARK INTER + INTRA:         -13.564
REMARK INTER:                 -11.903
REMARK INTRA:                  -1.661
REMARK CONF_INDEPENDENT:        1.790
REMARK UNBOUND:                -1.661
REMARK  6 active torsions:
REMARK  status: ('A' for Active; 'I' for Inactive)
REMARK    1  A    between atoms: C3_4  and  S1_5 
REMARK    2  A    between atoms: S1_5  and  C4_6 
REMARK    3  A    between atoms: C4_6  and  C5_7 
REMARK       I    between atoms: C5_7  and  N2_8 
REMARK    4  A    between atoms: C8_13  and  C9_14 
REMARK    5  A    between atoms: C13_19  and  C14_20 
REMARK       I    between atoms: C14_20  and  N4_22 
REMARK    6  A    between atoms: N4_22  and  C15_23 
ROOT
ATOM      1  C1  NON d   1     -41.598  20.255  -7.620  0.00  0.00     0.071 C 
ATOM      2  C2  NON d   1     -41.537  19.895  -6.159  0.00  0.00     0.048 A 
ATOM      3  N1  NON d   1     -42.296  18.816  -5.827  0.00  0.00    -0.244 NA
ATOM      4  C3  NON d   1     -42.274  18.325  -4.569  0.00  0.00     0.115 A 
ATOM      5  C6  NON d   1     -41.550  18.972  -3.570  0.00  0.00     0.092 A 
ATOM      6  C7  NON d   1     -41.472  18.423  -2.249  0.00  0.00     0.103 C 
ATOM      7  N3  NON d   1     -41.433  18.005  -1.167  0.00  0.00    -0.191 NA
ATOM      8  C8  NON d   1     -40.816  20.155  -3.880  0.00  0.00     0.022 A 
ATOM      9  C13 NON d   1     -40.750  20.586  -5.224  0.00  0.00     0.069 A 
ENDROOT
BRANCH   4  10
ATOM     10  S1  NON d   1     -43.134  16.762  -4.462  0.00  0.00    -0.100 SA
BRANCH  10  11
ATOM     11  C4  NON d   1     -44.873  17.227  -4.214  0.00  0.00     0.183 C 
BRANCH  11  12
ATOM     12  C5  NON d   1     -45.719  16.911  -5.435  0.00  0.00     0.225 C 
ATOM     13  N2  NON d   1     -46.077  18.005  -6.175  0.00  0.00    -0.369 N 
ATOM     14  H6  NON d   1     -45.942  18.962  -5.870  0.00  0.00     0.159 HD
ATOM     15  H7  NON d   1     -46.673  17.845  -6.978  0.00  0.00     0.159 HD
ATOM     16  O1  NON d   1     -46.043  15.790  -5.810  0.00  0.00    -0.273 OA
ENDBRANCH  11  12
ENDBRANCH  10  11
ENDBRANCH   4  10
BRANCH   8  17
ATOM     17  C9  NON d   1     -40.191  20.882  -2.757  0.00  0.00     0.017 A 
ATOM     18  C10 NON d   1     -39.113  20.473  -1.987  0.00  0.00     0.020 A 
ATOM     19  C11 NON d   1     -38.734  21.439  -1.013  0.00  0.00     0.008 A 
ATOM     20  C12 NON d   1     -39.546  22.549  -1.054  0.00  0.00     0.050 A 
ATOM     21  S2  NON d   1     -40.689  22.464  -2.326  0.00  0.00    -0.101 SA
ENDBRANCH   8  17
BRANCH   9  22
ATOM     22  C14 NON d   1     -39.795  21.604  -5.761  0.00  0.00     0.259 C 
ATOM     23  O2  NON d   1     -38.761  21.169  -6.267  0.00  0.00    -0.267 OA
ATOM     24  N4  NON d   1     -40.085  22.946  -5.617  0.00  0.00    -0.323 N 
ATOM     25  H11 NON d   1     -40.837  23.214  -4.998  0.00  0.00     0.169 HD
BRANCH  24  26
ATOM     26  C15 NON d   1     -39.215  24.000  -6.008  0.00  0.00     0.035 A 
ATOM     27  C16 NON d   1     -39.305  24.481  -7.318  0.00  0.00     0.029 A 
ATOM     28  C17 NON d   1     -38.514  25.559  -7.735  0.00  0.00     0.002 A 
ATOM     29  C18 NON d   1     -37.601  26.139  -6.857  0.00  0.00     0.000 A 
ATOM     30  C19 NON d   1     -37.477  25.644  -5.563  0.00  0.00     0.002 A 
ATOM     31  C20 NON d   1     -38.282  24.580  -5.140  0.00  0.00     0.029 A 
ENDBRANCH  24  26
ENDBRANCH   9  22
TORSDOF 6
ENDMDL
