MODEL 1
REMARK VINA RESULT:   -13.857      0.000      0.000
REMARK INTER + INTRA:         -17.940
REMARK INTER:                 -15.945
REMARK INTRA:                  -1.995
REMARK CONF_INDEPENDENT:        2.088
REMARK UNBOUND:                -1.995
REMARK  7 active torsions:
REMARK  status: ('A' for Active; 'I' for Inactive)
REMARK    1  A    between atoms: C2_2  and  O1_3 
REMARK    2  A    between atoms: C2_2  and  C10_16 
REMARK    3  A    between atoms: O1_3  and  C3_4 
REMARK    4  A    between atoms: C3_4  and  C4_6 
REMARK    5  A    between atoms: C9_12  and  N1_13 
REMARK       I    between atoms: C10_16  and  N2_18 
REMARK    6  A    between atoms: N2_18  and  N3_19 
REMARK       I    between atoms: N3_19  and  C11_20 
REMARK    7  A    between atoms: C11_20  and  C12_22 
ROOT
ATOM      1  C1  NON d   1     -42.602  16.582  -3.403  0.00  0.00     0.050 C 
ATOM      2  C2  NON d   1     -43.152  17.822  -4.132  0.00  0.00     0.221 C 
ENDROOT
BRANCH   2   3
ATOM      3  O1  NON d   1     -44.455  18.141  -4.742  0.00  0.00    -0.303 OA
BRANCH   3   4
ATOM      4  C3  NON d   1     -45.145  16.978  -4.957  0.00  0.00     0.296 C 
ATOM      5  O2  NON d   1     -44.901  16.138  -5.811  0.00  0.00    -0.259 OA
BRANCH   4   6
ATOM      6  C4  NON d   1     -46.410  16.929  -4.209  0.00  0.00     0.072 A 
ATOM      7  C5  NON d   1     -46.399  17.250  -2.850  0.00  0.00     0.022 A 
ATOM      8  C6  NON d   1     -47.543  17.020  -2.073  0.00  0.00     0.025 A 
ATOM      9  C7  NON d   1     -48.693  16.469  -2.647  0.00  0.00     0.036 A 
ATOM     10 Cl1  NON d   1     -50.079  16.173  -1.673  0.00  0.00    -0.084 Cl
ATOM     11  C8  NON d   1     -48.725  16.145  -3.998  0.00  0.00     0.060 A 
ATOM     12  C9  NON d   1     -47.574  16.373  -4.764  0.00  0.00     0.120 A 
BRANCH  12  13
ATOM     13  N1  NON d   1     -47.655  16.042  -6.173  0.00  0.00    -0.115 N 
ATOM     14  O3  NON d   1     -47.085  15.005  -6.535  0.00  0.00    -0.532 OA
ATOM     15  O4  NON d   1     -48.192  16.869  -6.918  0.00  0.00    -0.532 OA
ENDBRANCH  12  13
ENDBRANCH   4   6
ENDBRANCH   3   4
ENDBRANCH   2   3
BRANCH   2  16
ATOM     16  C10 NON d   1     -42.183  18.814  -4.802  0.00  0.00     0.265 C 
ATOM     17  O5  NON d   1     -41.969  19.944  -4.343  0.00  0.00    -0.269 OA
ATOM     18  N2  NON d   1     -41.565  18.413  -5.966  0.00  0.00    -0.265 N 
ATOM     19  H8  NON d   1     -41.574  17.469  -6.351  0.00  0.00     0.190 HD
BRANCH  18  20
ATOM     20  N3  NON d   1     -40.652  19.303  -6.554  0.00  0.00    -0.263 N 
ATOM     21  C11 NON d   1     -39.923  18.877  -7.644  0.00  0.00     0.270 C 
ATOM     22  O6  NON d   1     -40.060  17.744  -8.106  0.00  0.00    -0.266 OA
ATOM     23  H9  NON d   1     -40.562  20.203  -6.089  0.00  0.00     0.190 HD
BRANCH  21  24
ATOM     24  C12 NON d   1     -38.959  19.843  -8.255  0.00  0.00     0.033 A 
ATOM     25  C13 NON d   1     -39.439  20.695  -9.262  0.00  0.00     0.017 A 
ATOM     26  C14 NON d   1     -38.597  21.632  -9.866  0.00  0.00     0.001 A 
ATOM     27  C15 NON d   1     -37.266  21.728  -9.470  0.00  0.00     0.000 A 
ATOM     28  C16 NON d   1     -36.775  20.886  -8.474  0.00  0.00     0.001 A 
ATOM     29  C17 NON d   1     -37.615  19.945  -7.866  0.00  0.00     0.017 A 
ENDBRANCH  21  24
ENDBRANCH  18  20
ENDBRANCH   2  16
TORSDOF 7
ENDMDL
MODEL 2
REMARK VINA RESULT:   -13.606      3.596      4.694
REMARK INTER + INTRA:         -17.556
REMARK INTER:                 -15.694
REMARK INTRA:                  -1.862
REMARK CONF_INDEPENDENT:        2.088
REMARK UNBOUND:                -1.862
REMARK  7 active torsions:
REMARK  status: ('A' for Active; 'I' for Inactive)
REMARK    1  A    between atoms: C2_2  and  O1_3 
REMARK    2  A    between atoms: C2_2  and  C10_16 
REMARK    3  A    between atoms: O1_3  and  C3_4 
REMARK    4  A    between atoms: C3_4  and  C4_6 
REMARK    5  A    between atoms: C9_12  and  N1_13 
REMARK       I    between atoms: C10_16  and  N2_18 
REMARK    6  A    between atoms: N2_18  and  N3_19 
REMARK       I    between atoms: N3_19  and  C11_20 
REMARK    7  A    between atoms: C11_20  and  C12_22 
ROOT
ATOM      1  C1  NON d   1     -43.598  19.073  -5.517  0.00  0.00     0.050 C 
ATOM      2  C2  NON d   1     -43.342  18.031  -4.412  0.00  0.00     0.221 C 
ENDROOT
BRANCH   2   3
ATOM      3  O1  NON d   1     -44.198  17.029  -3.750  0.00  0.00    -0.303 OA
BRANCH   3   4
ATOM      4  C3  NON d   1     -45.186  16.643  -4.614  0.00  0.00     0.296 C 
ATOM      5  O2  NON d   1     -45.051  16.381  -5.800  0.00  0.00    -0.259 OA
BRANCH   4   6
ATOM      6  C4  NON d   1     -46.531  16.814  -4.041  0.00  0.00     0.072 A 
ATOM      7  C5  NON d   1     -46.646  17.158  -2.693  0.00  0.00     0.022 A 
ATOM      8  C6  NON d   1     -47.905  17.131  -2.075  0.00  0.00     0.025 A 
ATOM      9  C7  NON d   1     -49.044  16.760  -2.797  0.00  0.00     0.036 A 
ATOM     10 Cl1  NON d   1     -50.575  16.711  -2.017  0.00  0.00    -0.084 Cl
ATOM     11  C8  NON d   1     -48.949  16.417  -4.141  0.00  0.00     0.060 A 
ATOM     12  C9  NON d   1     -47.686  16.441  -4.746  0.00  0.00     0.120 A 
BRANCH  12  13
ATOM     13  N1  NON d   1     -47.633  16.097  -6.154  0.00  0.00    -0.115 N 
ATOM     14  O3  NON d   1     -48.189  16.875  -6.938  0.00  0.00    -0.532 OA
ATOM     15  O4  NON d   1     -47.133  15.006  -6.450  0.00  0.00    -0.532 OA
ENDBRANCH  12  13
ENDBRANCH   4   6
ENDBRANCH   3   4
ENDBRANCH   2   3
BRANCH   2  16
ATOM     16  C10 NON d   1     -42.176  18.225  -3.425  0.00  0.00     0.265 C 
ATOM     17  O5  NON d   1     -41.734  17.300  -2.732  0.00  0.00    -0.269 OA
ATOM     18  N2  NON d   1     -41.641  19.490  -3.312  0.00  0.00    -0.265 N 
ATOM     19  H8  NON d   1     -41.845  20.280  -3.923  0.00  0.00     0.190 HD
BRANCH  18  20
ATOM     20  N3  NON d   1     -40.553  19.656  -2.442  0.00  0.00    -0.263 N 
ATOM     21  C11 NON d   1     -40.064  20.929  -2.230  0.00  0.00     0.270 C 
ATOM     22  O6  NON d   1     -40.564  21.909  -2.783  0.00  0.00    -0.266 OA
ATOM     23  H9  NON d   1     -40.166  18.797  -2.059  0.00  0.00     0.190 HD
BRANCH  21  24
ATOM     24  C12 NON d   1     -38.906  21.082  -1.297  0.00  0.00     0.033 A 
ATOM     25  C13 NON d   1     -39.131  21.749  -0.082  0.00  0.00     0.017 A 
ATOM     26  C14 NON d   1     -38.097  21.915   0.843  0.00  0.00     0.001 A 
ATOM     27  C15 NON d   1     -36.828  21.415   0.564  0.00  0.00     0.000 A 
ATOM     28  C16 NON d   1     -36.590  20.755  -0.639  0.00  0.00     0.001 A 
ATOM     29  C17 NON d   1     -37.623  20.586  -1.569  0.00  0.00     0.017 A 
ENDBRANCH  21  24
ENDBRANCH  18  20
ENDBRANCH   2  16
TORSDOF 7
ENDMDL
MODEL 3
REMARK VINA RESULT:   -12.412      3.569      8.846
REMARK INTER + INTRA:         -17.991
REMARK INTER:                 -14.501
REMARK INTRA:                  -3.490
REMARK CONF_INDEPENDENT:        2.088
REMARK UNBOUND:                -3.490
REMARK  7 active torsions:
REMARK  status: ('A' for Active; 'I' for Inactive)
REMARK    1  A    between atoms: C2_2  and  O1_3 
REMARK    2  A    between atoms: C2_2  and  C10_16 
REMARK    3  A    between atoms: O1_3  and  C3_4 
REMARK    4  A    between atoms: C3_4  and  C4_6 
REMARK    5  A    between atoms: C9_12  and  N1_13 
REMARK       I    between atoms: C10_16  and  N2_18 
REMARK    6  A    between atoms: N2_18  and  N3_19 
REMARK       I    between atoms: N3_19  and  C11_20 
REMARK    7  A    between atoms: C11_20  and  C12_22 
ROOT
ATOM      1  C1  NON d   1     -39.961  18.510  -3.305  0.00  0.00     0.050 C 
ATOM      2  C2  NON d   1     -41.124  18.002  -4.176  0.00  0.00     0.221 C 
ENDROOT
BRANCH   2   3
ATOM      3  O1  NON d   1     -41.458  18.153  -5.604  0.00  0.00    -0.303 OA
BRANCH   3   4
ATOM      4  C3  NON d   1     -42.098  19.348  -5.790  0.00  0.00     0.296 C 
ATOM      5  O2  NON d   1     -43.286  19.505  -6.033  0.00  0.00    -0.259 OA
BRANCH   4   6
ATOM      6  C4  NON d   1     -41.159  20.473  -5.926  0.00  0.00     0.072 A 
ATOM      7  C5  NON d   1     -41.031  21.371  -4.865  0.00  0.00     0.022 A 
ATOM      8  C6  NON d   1     -40.299  22.554  -5.042  0.00  0.00     0.025 A 
ATOM      9  C7  NON d   1     -39.702  22.844  -6.273  0.00  0.00     0.036 A 
ATOM     10 Cl1  NON d   1     -38.828  24.310  -6.478  0.00  0.00    -0.084 Cl
ATOM     11  C8  NON d   1     -39.817  21.960  -7.341  0.00  0.00     0.060 A 
ATOM     12  C9  NON d   1     -40.555  20.784  -7.154  0.00  0.00     0.120 A 
BRANCH  12  13
ATOM     13  N1  NON d   1     -40.633  19.880  -8.286  0.00  0.00    -0.115 N 
ATOM     14  O3  NON d   1     -41.444  20.169  -9.173  0.00  0.00    -0.532 OA
ATOM     15  O4  NON d   1     -39.964  18.842  -8.226  0.00  0.00    -0.532 OA
ENDBRANCH  12  13
ENDBRANCH   4   6
ENDBRANCH   3   4
ENDBRANCH   2   3
BRANCH   2  16
ATOM     16  C10 NON d   1     -42.469  17.628  -3.525  0.00  0.00     0.265 C 
ATOM     17  O5  NON d   1     -42.634  17.630  -2.298  0.00  0.00    -0.269 OA
ATOM     18  N2  NON d   1     -43.500  17.258  -4.360  0.00  0.00    -0.265 N 
ATOM     19  H8  NON d   1     -43.506  17.346  -5.375  0.00  0.00     0.190 HD
BRANCH  18  20
ATOM     20  N3  NON d   1     -44.736  16.956  -3.767  0.00  0.00    -0.263 N 
ATOM     21  C11 NON d   1     -45.804  16.652  -4.584  0.00  0.00     0.270 C 
ATOM     22  O6  NON d   1     -45.692  16.639  -5.810  0.00  0.00    -0.266 OA
ATOM     23  H9  NON d   1     -44.762  17.031  -2.753  0.00  0.00     0.190 HD
BRANCH  21  24
ATOM     24  C12 NON d   1     -47.110  16.331  -3.930  0.00  0.00     0.033 A 
ATOM     25  C13 NON d   1     -47.959  15.420  -4.579  0.00  0.00     0.017 A 
ATOM     26  C14 NON d   1     -49.187  15.063  -4.017  0.00  0.00     0.001 A 
ATOM     27  C15 NON d   1     -49.580  15.612  -2.800  0.00  0.00     0.000 A 
ATOM     28  C16 NON d   1     -48.749  16.520  -2.146  0.00  0.00     0.001 A 
ATOM     29  C17 NON d   1     -47.517  16.881  -2.705  0.00  0.00     0.017 A 
ENDBRANCH  21  24
ENDBRANCH  18  20
ENDBRANCH   2  16
TORSDOF 7
ENDMDL
MODEL 4
REMARK VINA RESULT:   -12.397      3.491      9.272
REMARK INTER + INTRA:         -16.955
REMARK INTER:                 -14.485
REMARK INTRA:                  -2.470
REMARK CONF_INDEPENDENT:        2.088
REMARK UNBOUND:                -2.470
REMARK  7 active torsions:
REMARK  status: ('A' for Active; 'I' for Inactive)
REMARK    1  A    between atoms: C2_2  and  O1_3 
REMARK    2  A    between atoms: C2_2  and  C10_16 
REMARK    3  A    between atoms: O1_3  and  C3_4 
REMARK    4  A    between atoms: C3_4  and  C4_6 
REMARK    5  A    between atoms: C9_12  and  N1_13 
REMARK       I    between atoms: C10_16  and  N2_18 
REMARK    6  A    between atoms: N2_18  and  N3_19 
REMARK       I    between atoms: N3_19  and  C11_20 
REMARK    7  A    between atoms: C11_20  and  C12_22 
ROOT
ATOM      1  C1  NON d   1     -40.272  18.778  -3.142  0.00  0.00     0.050 C 
ATOM      2  C2  NON d   1     -41.501  18.553  -4.042  0.00  0.00     0.221 C 
ENDROOT
BRANCH   2   3
ATOM      3  O1  NON d   1     -41.914  19.104  -5.346  0.00  0.00    -0.303 OA
BRANCH   3   4
ATOM      4  C3  NON d   1     -41.025  18.700  -6.304  0.00  0.00     0.296 C 
ATOM      5  O2  NON d   1     -40.690  17.549  -6.543  0.00  0.00    -0.259 OA
BRANCH   4   6
ATOM      6  C4  NON d   1     -40.282  19.825  -6.891  0.00  0.00     0.072 A 
ATOM      7  C5  NON d   1     -40.690  21.127  -6.592  0.00  0.00     0.022 A 
ATOM      8  C6  NON d   1     -40.130  22.207  -7.290  0.00  0.00     0.025 A 
ATOM      9  C7  NON d   1     -39.171  21.991  -8.285  0.00  0.00     0.036 A 
ATOM     10 Cl1  NON d   1     -38.514  23.326  -9.146  0.00  0.00    -0.084 Cl
ATOM     11  C8  NON d   1     -38.751  20.702  -8.595  0.00  0.00     0.060 A 
ATOM     12  C9  NON d   1     -39.321  19.630  -7.896  0.00  0.00     0.120 A 
BRANCH  12  13
ATOM     13  N1  NON d   1     -38.840  18.305  -8.234  0.00  0.00    -0.115 N 
ATOM     14  O3  NON d   1     -37.672  18.041  -7.926  0.00  0.00    -0.532 OA
ATOM     15  O4  NON d   1     -39.594  17.583  -8.896  0.00  0.00    -0.532 OA
ENDBRANCH  12  13
ENDBRANCH   4   6
ENDBRANCH   3   4
ENDBRANCH   2   3
BRANCH   2  16
ATOM     16  C10 NON d   1     -42.817  18.031  -3.433  0.00  0.00     0.265 C 
ATOM     17  O5  NON d   1     -43.016  18.002  -2.212  0.00  0.00    -0.269 OA
ATOM     18  N2  NON d   1     -43.779  17.563  -4.302  0.00  0.00    -0.265 N 
ATOM     19  H8  NON d   1     -43.764  17.661  -5.316  0.00  0.00     0.190 HD
BRANCH  18  20
ATOM     20  N3  NON d   1     -44.991  17.125  -3.748  0.00  0.00    -0.263 N 
ATOM     21  C11 NON d   1     -46.054  16.880  -4.593  0.00  0.00     0.270 C 
ATOM     22  O6  NON d   1     -45.955  17.035  -5.810  0.00  0.00    -0.266 OA
ATOM     23  H9  NON d   1     -45.009  17.064  -2.733  0.00  0.00     0.190 HD
BRANCH  21  24
ATOM     24  C12 NON d   1     -47.335  16.411  -3.980  0.00  0.00     0.033 A 
ATOM     25  C13 NON d   1     -48.094  15.470  -4.695  0.00  0.00     0.017 A 
ATOM     26  C14 NON d   1     -49.293  14.978  -4.175  0.00  0.00     0.001 A 
ATOM     27  C15 NON d   1     -49.747  15.421  -2.936  0.00  0.00     0.000 A 
ATOM     28  C16 NON d   1     -49.006  16.357  -2.218  0.00  0.00     0.001 A 
ATOM     29  C17 NON d   1     -47.803  16.853  -2.735  0.00  0.00     0.017 A 
ENDBRANCH  21  24
ENDBRANCH  18  20
ENDBRANCH   2  16
TORSDOF 7
ENDMDL
MODEL 5
REMARK VINA RESULT:   -11.437      3.900      8.987
REMARK INTER + INTRA:         -16.008
REMARK INTER:                 -13.525
REMARK INTRA:                  -2.483
REMARK CONF_INDEPENDENT:        2.088
REMARK UNBOUND:                -2.483
REMARK  7 active torsions:
REMARK  status: ('A' for Active; 'I' for Inactive)
REMARK    1  A    between atoms: C2_2  and  O1_3 
REMARK    2  A    between atoms: C2_2  and  C10_16 
REMARK    3  A    between atoms: O1_3  and  C3_4 
REMARK    4  A    between atoms: C3_4  and  C4_6 
REMARK    5  A    between atoms: C9_12  and  N1_13 
REMARK       I    between atoms: C10_16  and  N2_18 
REMARK    6  A    between atoms: N2_18  and  N3_19 
REMARK       I    between atoms: N3_19  and  C11_20 
REMARK    7  A    between atoms: C11_20  and  C12_22 
ROOT
ATOM      1  C1  NON d   1     -41.320  17.862  -5.812  0.00  0.00     0.050 C 
ATOM      2  C2  NON d   1     -41.509  18.108  -4.304  0.00  0.00     0.221 C 
ENDROOT
BRANCH   2   3
ATOM      3  O1  NON d   1     -40.571  18.205  -3.170  0.00  0.00    -0.303 OA
BRANCH   3   4
ATOM      4  C3  NON d   1     -39.578  19.092  -3.486  0.00  0.00     0.296 C 
ATOM      5  O2  NON d   1     -38.522  18.831  -4.042  0.00  0.00    -0.259 OA
BRANCH   4   6
ATOM      6  C4  NON d   1     -39.778  20.406  -2.855  0.00  0.00     0.072 A 
ATOM      7  C5  NON d   1     -39.623  20.516  -1.472  0.00  0.00     0.022 A 
ATOM      8  C6  NON d   1     -40.000  21.701  -0.824  0.00  0.00     0.025 A 
ATOM      9  C7  NON d   1     -40.533  22.771  -1.550  0.00  0.00     0.036 A 
ATOM     10 Cl1  NON d   1     -41.011  24.207  -0.735  0.00  0.00    -0.084 Cl
ATOM     11  C8  NON d   1     -40.694  22.680  -2.928  0.00  0.00     0.060 A 
ATOM     12  C9  NON d   1     -40.319  21.490  -3.565  0.00  0.00     0.120 A 
BRANCH  12  13
ATOM     13  N1  NON d   1     -40.482  21.444  -5.005  0.00  0.00    -0.115 N 
ATOM     14  O3  NON d   1     -39.714  22.145  -5.674  0.00  0.00    -0.532 OA
ATOM     15  O4  NON d   1     -41.438  20.795  -5.444  0.00  0.00    -0.532 OA
ENDBRANCH  12  13
ENDBRANCH   4   6
ENDBRANCH   3   4
ENDBRANCH   2   3
BRANCH   2  16
ATOM     16  C10 NON d   1     -42.859  17.788  -3.635  0.00  0.00     0.265 C 
ATOM     17  O5  NON d   1     -43.072  18.005  -2.435  0.00  0.00    -0.269 OA
ATOM     18  N2  NON d   1     -43.838  17.216  -4.418  0.00  0.00    -0.265 N 
ATOM     19  H8  NON d   1     -43.807  17.116  -5.431  0.00  0.00     0.190 HD
BRANCH  18  20
ATOM     20  N3  NON d   1     -45.080  16.962  -3.816  0.00  0.00    -0.263 N 
ATOM     21  C11 NON d   1     -46.113  16.498  -4.604  0.00  0.00     0.270 C 
ATOM     22  O6  NON d   1     -45.963  16.303  -5.810  0.00  0.00    -0.266 OA
ATOM     23  H9  NON d   1     -45.139  17.189  -2.827  0.00  0.00     0.190 HD
BRANCH  21  24
ATOM     24  C12 NON d   1     -47.427  16.231  -3.941  0.00  0.00     0.033 A 
ATOM     25  C13 NON d   1     -48.308  15.339  -4.573  0.00  0.00     0.017 A 
ATOM     26  C14 NON d   1     -49.545  15.033  -4.001  0.00  0.00     0.001 A 
ATOM     27  C15 NON d   1     -49.915  15.615  -2.792  0.00  0.00     0.000 A 
ATOM     28  C16 NON d   1     -49.052  16.504  -2.156  0.00  0.00     0.001 A 
ATOM     29  C17 NON d   1     -47.811  16.814  -2.724  0.00  0.00     0.017 A 
ENDBRANCH  21  24
ENDBRANCH  18  20
ENDBRANCH   2  16
TORSDOF 7
ENDMDL
MODEL 6
REMARK VINA RESULT:   -11.403      3.588      9.266
REMARK INTER + INTRA:         -16.869
REMARK INTER:                 -13.491
REMARK INTRA:                  -3.379
REMARK CONF_INDEPENDENT:        2.088
REMARK UNBOUND:                -3.379
REMARK  7 active torsions:
REMARK  status: ('A' for Active; 'I' for Inactive)
REMARK    1  A    between atoms: C2_2  and  O1_3 
REMARK    2  A    between atoms: C2_2  and  C10_16 
REMARK    3  A    between atoms: O1_3  and  C3_4 
REMARK    4  A    between atoms: C3_4  and  C4_6 
REMARK    5  A    between atoms: C9_12  and  N1_13 
REMARK       I    between atoms: C10_16  and  N2_18 
REMARK    6  A    between atoms: N2_18  and  N3_19 
REMARK       I    between atoms: N3_19  and  C11_20 
REMARK    7  A    between atoms: C11_20  and  C12_22 
ROOT
ATOM      1  C1  NON d   1     -40.390  19.401  -3.128  0.00  0.00     0.050 C 
ATOM      2  C2  NON d   1     -41.247  18.366  -3.880  0.00  0.00     0.221 C 
ENDROOT
BRANCH   2   3
ATOM      3  O1  NON d   1     -41.285  17.912  -5.282  0.00  0.00    -0.303 OA
BRANCH   3   4
ATOM      4  C3  NON d   1     -41.566  18.980  -6.090  0.00  0.00     0.296 C 
ATOM      5  O2  NON d   1     -42.657  19.510  -6.240  0.00  0.00    -0.259 OA
BRANCH   4   6
ATOM      6  C4  NON d   1     -40.454  19.305  -6.997  0.00  0.00     0.072 A 
ATOM      7  C5  NON d   1     -39.902  18.283  -7.773  0.00  0.00     0.022 A 
ATOM      8  C6  NON d   1     -38.721  18.519  -8.491  0.00  0.00     0.025 A 
ATOM      9  C7  NON d   1     -38.090  19.766  -8.434  0.00  0.00     0.036 A 
ATOM     10 Cl1  NON d   1     -36.630  20.029  -9.303  0.00  0.00    -0.084 Cl
ATOM     11  C8  NON d   1     -38.626  20.795  -7.669  0.00  0.00     0.060 A 
ATOM     12  C9  NON d   1     -39.803  20.547  -6.951  0.00  0.00     0.120 A 
BRANCH  12  13
ATOM     13  N1  NON d   1     -40.341  21.653  -6.182  0.00  0.00    -0.115 N 
ATOM     14  O3  NON d   1     -40.311  22.768  -6.717  0.00  0.00    -0.532 OA
ATOM     15  O4  NON d   1     -40.686  21.418  -5.019  0.00  0.00    -0.532 OA
ENDBRANCH  12  13
ENDBRANCH   4   6
ENDBRANCH   3   4
ENDBRANCH   2   3
BRANCH   2  16
ATOM     16  C10 NON d   1     -42.627  17.962  -3.327  0.00  0.00     0.265 C 
ATOM     17  O5  NON d   1     -42.896  18.003  -2.120  0.00  0.00    -0.269 OA
ATOM     18  N2  NON d   1     -43.570  17.518  -4.230  0.00  0.00    -0.265 N 
ATOM     19  H8  NON d   1     -43.492  17.567  -5.245  0.00  0.00     0.190 HD
BRANCH  18  20
ATOM     20  N3  NON d   1     -44.838  17.188  -3.730  0.00  0.00    -0.263 N 
ATOM     21  C11 NON d   1     -45.795  16.725  -4.610  0.00  0.00     0.270 C 
ATOM     22  O6  NON d   1     -45.555  16.595  -5.810  0.00  0.00    -0.266 OA
ATOM     23  H9  NON d   1     -44.975  17.364  -2.738  0.00  0.00     0.190 HD
BRANCH  21  24
ATOM     24  C12 NON d   1     -47.139  16.376  -4.054  0.00  0.00     0.033 A 
ATOM     25  C13 NON d   1     -47.457  16.848  -2.770  0.00  0.00     0.017 A 
ATOM     26  C14 NON d   1     -48.700  16.573  -2.196  0.00  0.00     0.001 A 
ATOM     27  C15 NON d   1     -49.639  15.823  -2.899  0.00  0.00     0.000 A 
ATOM     28  C16 NON d   1     -49.336  15.346  -4.172  0.00  0.00     0.001 A 
ATOM     29  C17 NON d   1     -48.092  15.619  -4.752  0.00  0.00     0.017 A 
ENDBRANCH  21  24
ENDBRANCH  18  20
ENDBRANCH   2  16
TORSDOF 7
ENDMDL
MODEL 7
REMARK VINA RESULT:   -11.279      3.558      9.093
REMARK INTER + INTRA:         -16.860
REMARK INTER:                 -13.368
REMARK INTRA:                  -3.492
REMARK CONF_INDEPENDENT:        2.088
REMARK UNBOUND:                -3.492
REMARK  7 active torsions:
REMARK  status: ('A' for Active; 'I' for Inactive)
REMARK    1  A    between atoms: C2_2  and  O1_3 
REMARK    2  A    between atoms: C2_2  and  C10_16 
REMARK    3  A    between atoms: O1_3  and  C3_4 
REMARK    4  A    between atoms: C3_4  and  C4_6 
REMARK    5  A    between atoms: C9_12  and  N1_13 
REMARK       I    between atoms: C10_16  and  N2_18 
REMARK    6  A    between atoms: N2_18  and  N3_19 
REMARK       I    between atoms: N3_19  and  C11_20 
REMARK    7  A    between atoms: C11_20  and  C12_22 
ROOT
ATOM      1  C1  NON d   1     -40.060  18.624  -3.157  0.00  0.00     0.050 C 
ATOM      2  C2  NON d   1     -41.173  18.049  -4.052  0.00  0.00     0.221 C 
ENDROOT
BRANCH   2   3
ATOM      3  O1  NON d   1     -41.428  18.094  -5.503  0.00  0.00    -0.303 OA
BRANCH   3   4
ATOM      4  C3  NON d   1     -42.099  19.248  -5.804  0.00  0.00     0.296 C 
ATOM      5  O2  NON d   1     -43.304  19.431  -5.714  0.00  0.00    -0.259 OA
BRANCH   4   6
ATOM      6  C4  NON d   1     -41.253  20.222  -6.511  0.00  0.00     0.072 A 
ATOM      7  C5  NON d   1     -41.057  20.066  -7.884  0.00  0.00     0.022 A 
ATOM      8  C6  NON d   1     -40.102  20.855  -8.543  0.00  0.00     0.025 A 
ATOM      9  C7  NON d   1     -39.342  21.792  -7.834  0.00  0.00     0.036 A 
ATOM     10 Cl1  NON d   1     -38.160  22.733  -8.654  0.00  0.00    -0.084 Cl
ATOM     11  C8  NON d   1     -39.525  21.962  -6.467  0.00  0.00     0.060 A 
ATOM     12  C9  NON d   1     -40.477  21.165  -5.818  0.00  0.00     0.120 A 
BRANCH  12  13
ATOM     13  N1  NON d   1     -40.652  21.388  -4.396  0.00  0.00    -0.115 N 
ATOM     14  O3  NON d   1     -41.813  21.516  -3.991  0.00  0.00    -0.532 OA
ATOM     15  O4  NON d   1     -39.629  21.540  -3.719  0.00  0.00    -0.532 OA
ENDBRANCH  12  13
ENDBRANCH   4   6
ENDBRANCH   3   4
ENDBRANCH   2   3
BRANCH   2  16
ATOM     16  C10 NON d   1     -42.551  17.717  -3.449  0.00  0.00     0.265 C 
ATOM     17  O5  NON d   1     -42.820  17.920  -2.258  0.00  0.00    -0.269 OA
ATOM     18  N2  NON d   1     -43.492  17.152  -4.283  0.00  0.00    -0.265 N 
ATOM     19  H8  NON d   1     -43.415  17.064  -5.295  0.00  0.00     0.190 HD
BRANCH  18  20
ATOM     20  N3  NON d   1     -44.759  16.887  -3.742  0.00  0.00    -0.263 N 
ATOM     21  C11 NON d   1     -45.775  16.505  -4.594  0.00  0.00     0.270 C 
ATOM     22  O6  NON d   1     -45.587  16.391  -5.806  0.00  0.00    -0.266 OA
ATOM     23  H9  NON d   1     -44.847  17.046  -2.742  0.00  0.00     0.190 HD
BRANCH  21  24
ATOM     24  C12 NON d   1     -47.116  16.225  -3.995  0.00  0.00     0.033 A 
ATOM     25  C13 NON d   1     -47.437  16.863  -2.787  0.00  0.00     0.017 A 
ATOM     26  C14 NON d   1     -48.678  16.659  -2.179  0.00  0.00     0.001 A 
ATOM     27  C15 NON d   1     -49.612  15.814  -2.773  0.00  0.00     0.000 A 
ATOM     28  C16 NON d   1     -49.305  15.171  -3.970  0.00  0.00     0.001 A 
ATOM     29  C17 NON d   1     -48.063  15.373  -4.583  0.00  0.00     0.017 A 
ENDBRANCH  21  24
ENDBRANCH  18  20
ENDBRANCH   2  16
TORSDOF 7
ENDMDL
MODEL 8
REMARK VINA RESULT:   -10.878      3.737      8.896
REMARK INTER + INTRA:         -15.600
REMARK INTER:                 -12.967
REMARK INTRA:                  -2.634
REMARK CONF_INDEPENDENT:        2.088
REMARK UNBOUND:                -2.634
REMARK  7 active torsions:
REMARK  status: ('A' for Active; 'I' for Inactive)
REMARK    1  A    between atoms: C2_2  and  O1_3 
REMARK    2  A    between atoms: C2_2  and  C10_16 
REMARK    3  A    between atoms: O1_3  and  C3_4 
REMARK    4  A    between atoms: C3_4  and  C4_6 
REMARK    5  A    between atoms: C9_12  and  N1_13 
REMARK       I    between atoms: C10_16  and  N2_18 
REMARK    6  A    between atoms: N2_18  and  N3_19 
REMARK       I    between atoms: N3_19  and  C11_20 
REMARK    7  A    between atoms: C11_20  and  C12_22 
ROOT
ATOM      1  C1  NON d   1     -41.957  19.866  -6.515  0.00  0.00     0.050 C 
ATOM      2  C2  NON d   1     -42.094  18.773  -5.438  0.00  0.00     0.221 C 
ENDROOT
BRANCH   2   3
ATOM      3  O1  NON d   1     -41.252  17.628  -5.047  0.00  0.00    -0.303 OA
BRANCH   3   4
ATOM      4  C3  NON d   1     -40.872  17.777  -3.741  0.00  0.00     0.296 C 
ATOM      5  O2  NON d   1     -41.208  17.069  -2.803  0.00  0.00    -0.259 OA
BRANCH   4   6
ATOM      6  C4  NON d   1     -40.194  19.060  -3.497  0.00  0.00     0.072 A 
ATOM      7  C5  NON d   1     -40.690  19.900  -2.498  0.00  0.00     0.022 A 
ATOM      8  C6  NON d   1     -40.191  21.205  -2.379  0.00  0.00     0.025 A 
ATOM      9  C7  NON d   1     -39.206  21.673  -3.254  0.00  0.00     0.036 A 
ATOM     10 Cl1  NON d   1     -38.623  23.283  -3.108  0.00  0.00    -0.084 Cl
ATOM     11  C8  NON d   1     -38.699  20.850  -4.254  0.00  0.00     0.060 A 
ATOM     12  C9  NON d   1     -39.208  19.550  -4.367  0.00  0.00     0.120 A 
BRANCH  12  13
ATOM     13  N1  NON d   1     -38.638  18.717  -5.409  0.00  0.00    -0.115 N 
ATOM     14  O3  NON d   1     -37.674  18.010  -5.090  0.00  0.00    -0.532 OA
ATOM     15  O4  NON d   1     -39.087  18.856  -6.552  0.00  0.00    -0.532 OA
ENDBRANCH  12  13
ENDBRANCH   4   6
ENDBRANCH   3   4
ENDBRANCH   2   3
BRANCH   2  16
ATOM     16  C10 NON d   1     -43.484  18.413  -4.880  0.00  0.00     0.265 C 
ATOM     17  O5  NON d   1     -44.472  19.141  -5.040  0.00  0.00    -0.269 OA
ATOM     18  N2  NON d   1     -43.597  17.243  -4.159  0.00  0.00    -0.265 N 
ATOM     19  H8  NON d   1     -42.883  16.520  -4.081  0.00  0.00     0.190 HD
BRANCH  18  20
ATOM     20  N3  NON d   1     -44.871  16.897  -3.685  0.00  0.00    -0.263 N 
ATOM     21  C11 NON d   1     -45.885  16.699  -4.600  0.00  0.00     0.270 C 
ATOM     22  O6  NON d   1     -45.690  16.817  -5.810  0.00  0.00    -0.266 OA
ATOM     23  H9  NON d   1     -44.965  16.863  -2.673  0.00  0.00     0.190 HD
BRANCH  21  24
ATOM     24  C12 NON d   1     -47.234  16.328  -4.072  0.00  0.00     0.033 A 
ATOM     25  C13 NON d   1     -47.993  15.407  -4.812  0.00  0.00     0.017 A 
ATOM     26  C14 NON d   1     -49.256  15.004  -4.370  0.00  0.00     0.001 A 
ATOM     27  C15 NON d   1     -49.773  15.518  -3.184  0.00  0.00     0.000 A 
ATOM     28  C16 NON d   1     -49.032  16.435  -2.442  0.00  0.00     0.001 A 
ATOM     29  C17 NON d   1     -47.766  16.842  -2.881  0.00  0.00     0.017 A 
ENDBRANCH  21  24
ENDBRANCH  18  20
ENDBRANCH   2  16
TORSDOF 7
ENDMDL
