MODEL 1
REMARK VINA RESULT:   -18.910      0.000      0.000
REMARK INTER + INTRA:         -17.754
REMARK INTER:                 -20.998
REMARK INTRA:                   3.244
REMARK CONF_INDEPENDENT:        2.088
REMARK UNBOUND:                 3.244
REMARK  7 active torsions:
REMARK  status: ('A' for Active; 'I' for Inactive)
REMARK    1  A    between atoms: C2_2  and  C3_3 
REMARK    2  A    between atoms: C8_8  and  C9_9 
REMARK    3  A    between atoms: C10_11  and  C9_9 
REMARK    4  A    between atoms: C10_11  and  N1_12 
REMARK    5  A    between atoms: C10_11  and  C15_19 
REMARK    6  A    between atoms: N1_12  and  N2_13 
REMARK       I    between atoms: N2_13  and  C11_14 
REMARK    7  A    between atoms: C11_14  and  C12_16 
ROOT
ATOM      1  C10 NON d   1     -45.704  16.318  -5.314  0.00  0.00     0.184 C 
ENDROOT
BRANCH   1   2
ATOM      2  C9  NON d   1     -44.858  17.740  -5.434  0.00  0.00     0.185 C 
ATOM      3  O1  NON d   1     -45.300  18.639  -6.163  0.00  0.00    -0.290 OA
BRANCH   2   4
ATOM      4  C8  NON d   1     -43.547  17.978  -4.776  0.00  0.00     0.040 C 
ATOM      5  C7  NON d   1     -42.531  18.902  -5.236  0.00  0.00     0.006 C 
ATOM      6  C6  NON d   1     -42.304  19.583  -6.449  0.00  0.00     0.015 C 
ATOM      7  C22 NON d   1     -41.688  19.184  -4.158  0.00  0.00     0.049 C 
ATOM      8  C5  NON d   1     -41.252  20.499  -6.540  0.00  0.00     0.002 C 
ATOM      9  C4  NON d   1     -40.497  20.825  -5.415  0.00  0.00     0.009 C 
ATOM     10  C3  NON d   1     -40.717  20.214  -4.166  0.00  0.00    -0.031 C 
ATOM     11  N3  NON d   1     -42.043  18.307  -3.160  0.00  0.00    -0.364 N 
ATOM     12  C21 NON d   1     -43.084  17.505  -3.562  0.00  0.00     0.104 C 
ATOM     13  H23 NON d   1     -41.594  18.263  -2.255  0.00  0.00     0.165 HD
BRANCH  10  14
ATOM     14  C2  NON d   1     -40.045  20.683  -2.895  0.00  0.00     0.036 C 
ATOM     15  C1  NON d   1     -38.521  20.654  -2.845  0.00  0.00     0.010 C 
ENDBRANCH  10  14
ENDBRANCH   2   4
ENDBRANCH   1   2
BRANCH   1  16
ATOM     16  N1  NON d   1     -47.067  16.501  -6.129  0.00  0.00    -0.221 NA
ATOM     17  H10 NON d   1     -47.413  17.440  -5.888  0.00  0.00     0.147 HD
BRANCH  16  18
ATOM     18  N2  NON d   1     -48.098  15.598  -5.776  0.00  0.00    -0.290 N 
ATOM     19  C11 NON d   1     -49.061  15.986  -4.865  0.00  0.00     0.236 C 
ATOM     20  O2  NON d   1     -49.041  17.050  -4.252  0.00  0.00    -0.272 OA
ATOM     21  H11 NON d   1     -48.148  14.705  -6.265  0.00  0.00     0.183 HD
BRANCH  19  22
ATOM     22  C12 NON d   1     -50.128  14.988  -4.606  0.00  0.00     0.079 A 
ATOM     23  C13 NON d   1     -49.824  13.873  -3.583  0.00  0.00     0.015 A 
ATOM     24  C14 NON d   1     -50.906  14.932  -3.369  0.00  0.00     0.015 A 
ENDBRANCH  19  22
ENDBRANCH  16  18
ENDBRANCH   1  16
BRANCH   1  25
ATOM     25  C15 NON d   1     -46.412  16.463  -3.954  0.00  0.00    -0.031 A 
ATOM     26  C16 NON d   1     -47.147  15.336  -3.527  0.00  0.00     0.009 A 
ATOM     27  C17 NON d   1     -47.939  15.380  -2.377  0.00  0.00     0.001 A 
ATOM     28  C18 NON d   1     -47.984  16.538  -1.606  0.00  0.00     0.000 A 
ATOM     29  C19 NON d   1     -47.274  17.665  -2.007  0.00  0.00     0.001 A 
ATOM     30  C20 NON d   1     -46.531  17.644  -3.192  0.00  0.00     0.009 A 
ENDBRANCH   1  25
TORSDOF 7
ENDMDL
