MODEL 1
REMARK VINA RESULT:   -27.658      0.000      0.000
REMARK INTER + INTRA:         -32.310
REMARK INTER:                 -30.342
REMARK INTRA:                  -1.968
REMARK CONF_INDEPENDENT:        2.685
REMARK UNBOUND:                -1.968
REMARK  9 active torsions:
REMARK  status: ('A' for Active; 'I' for Inactive)
REMARK       I    between atoms: C1_2  and  N1_3 
REMARK    1  A    between atoms: C1_2  and  C16_25 
REMARK    2  A    between atoms: N1_3  and  N2_4 
REMARK    3  A    between atoms: C2_5  and  C3_6 
REMARK    4  A    between atoms: N3_9  and  N4_10 
REMARK    5  A    between atoms: N4_10  and  C6_11 
REMARK    6  A    between atoms: C10_15  and  C11_16 
REMARK    7  A    between atoms: C16_25  and  O3_26 
REMARK    8  A    between atoms: C16_25  and  C17_27 
REMARK    9  A    between atoms: C16_25  and  C23_33 
ROOT
ATOM      1  N2  NON d   1     -41.323  19.112  -6.358  0.00  0.00    -0.184 NA
ATOM      2  C2  NON d   1     -42.434  19.413  -5.688  0.00  0.00     0.154 C 
ENDROOT
BRANCH   2   3
ATOM      3  C3  NON d   1     -43.611  18.395  -5.032  0.00  0.00     0.035 A 
ATOM      4  C4  NON d   1     -44.795  17.936  -5.593  0.00  0.00     0.050 A 
ATOM      5  C5  NON d   1     -45.920  16.923  -4.929  0.00  0.00     0.078 A 
ATOM      6  N3  NON d   1     -47.066  16.504  -5.486  0.00  0.00    -0.175 NA
ATOM      7  C13 NON d   1     -45.463  16.498  -3.581  0.00  0.00     0.037 A 
ATOM      8  C14 NON d   1     -44.327  16.936  -3.031  0.00  0.00     0.058 A 
ATOM      9  C15 NON d   1     -43.360  17.880  -3.651  0.00  0.00     0.183 A 
ATOM     10  O2  NON d   1     -42.371  18.181  -2.992  0.00  0.00    -0.288 OA
BRANCH   6  11
ATOM     11  N4  NON d   1     -48.007  15.580  -4.748  0.00  0.00    -0.278 N 
ATOM     12  H4  NON d   1     -47.657  14.632  -4.615  0.00  0.00     0.189 HD
BRANCH  11  13
ATOM     13  C6  NON d   1     -48.811  15.962  -3.552  0.00  0.00     0.051 A 
ATOM     14  C7  NON d   1     -48.205  16.301  -2.354  0.00  0.00     0.031 A 
ATOM     15  C8  NON d   1     -48.982  16.738  -1.244  0.00  0.00     0.003 A 
ATOM     16  C9  NON d   1     -50.401  16.895  -1.263  0.00  0.00     0.016 A 
ATOM     17  C10 NON d   1     -51.155  16.619  -2.404  0.00  0.00     0.050 A 
ATOM     18  C12 NON d   1     -50.285  16.166  -3.561  0.00  0.00     0.047 A 
BRANCH  17  19
ATOM     19  C11 NON d   1     -52.671  16.880  -2.472  0.00  0.00     0.417 C 
ATOM     20  F1  NON d   1     -54.188  17.141  -2.540  0.00  0.00    -0.166 F 
ATOM     21  F2  NON d   1     -52.713  17.402  -1.139  0.00  0.00    -0.166 F 
ATOM     22  F3  NON d   1     -52.998  15.499  -2.276  0.00  0.00    -0.166 F 
ENDBRANCH  17  19
ENDBRANCH  11  13
ENDBRANCH   6  11
ENDBRANCH   2   3
BRANCH   1  23
ATOM     23  N1  NON d   1     -40.364  20.155  -6.921  0.00  0.00    -0.244 N 
ATOM     24  C1  NON d   1     -40.506  20.785  -8.307  0.00  0.00     0.282 C 
ATOM     25  O1  NON d   1     -41.475  20.302  -8.922  0.00  0.00    -0.268 OA
ATOM     26  H1  NON d   1     -39.465  20.270  -6.466  0.00  0.00     0.192 HD
BRANCH  24  27
ATOM     27  C16 NON d   1     -39.467  21.795  -8.826  0.00  0.00     0.195 C 
BRANCH  27  28
ATOM     28  O3  NON d   1     -40.602  22.747  -9.247  0.00  0.00    -0.371 OA
ATOM     29  H11 NON d   1     -41.393  22.175  -9.258  0.00  0.00     0.212 HD
ENDBRANCH  27  28
BRANCH  27  30
ATOM     30  C17 NON d   1     -38.427  22.805  -9.345  0.00  0.00    -0.010 A 
ATOM     31  C18 NON d   1     -37.333  22.418 -10.149  0.00  0.00     0.011 A 
ATOM     32  C19 NON d   1     -36.448  23.369 -10.662  0.00  0.00     0.001 A 
ATOM     33  C20 NON d   1     -36.664  24.725 -10.427  0.00  0.00     0.000 A 
ATOM     34  C21 NON d   1     -37.763  25.136  -9.676  0.00  0.00     0.001 A 
ATOM     35  C22 NON d   1     -38.634  24.188  -9.138  0.00  0.00     0.011 A 
ENDBRANCH  27  30
BRANCH  27  36
ATOM     36  C23 NON d   1     -38.332  20.843  -8.405  0.00  0.00    -0.010 A 
ATOM     37  C24 NON d   1     -38.190  19.558  -8.989  0.00  0.00     0.011 A 
ATOM     38  C25 NON d   1     -37.154  18.705  -8.605  0.00  0.00     0.001 A 
ATOM     39  C26 NON d   1     -36.228  19.114  -7.648  0.00  0.00     0.000 A 
ATOM     40  C27 NON d   1     -36.340  20.372  -7.060  0.00  0.00     0.001 A 
ATOM     41  C28 NON d   1     -37.384  21.225  -7.423  0.00  0.00     0.011 A 
ENDBRANCH  27  36
ENDBRANCH  24  27
ENDBRANCH   1  23
TORSDOF 9
ENDMDL
MODEL 2
REMARK VINA RESULT:   -27.243      1.170      1.745
REMARK INTER + INTRA:         -31.804
REMARK INTER:                 -29.928
REMARK INTRA:                  -1.876
REMARK CONF_INDEPENDENT:        2.685
REMARK UNBOUND:                -1.876
REMARK  9 active torsions:
REMARK  status: ('A' for Active; 'I' for Inactive)
REMARK       I    between atoms: C1_2  and  N1_3 
REMARK    1  A    between atoms: C1_2  and  C16_25 
REMARK    2  A    between atoms: N1_3  and  N2_4 
REMARK    3  A    between atoms: C2_5  and  C3_6 
REMARK    4  A    between atoms: N3_9  and  N4_10 
REMARK    5  A    between atoms: N4_10  and  C6_11 
REMARK    6  A    between atoms: C10_15  and  C11_16 
REMARK    7  A    between atoms: C16_25  and  O3_26 
REMARK    8  A    between atoms: C16_25  and  C17_27 
REMARK    9  A    between atoms: C16_25  and  C23_33 
ROOT
ATOM      1  N2  NON d   1     -41.170  19.412  -5.793  0.00  0.00    -0.184 NA
ATOM      2  C2  NON d   1     -42.500  19.489  -5.807  0.00  0.00     0.154 C 
ENDROOT
BRANCH   2   3
ATOM      3  C3  NON d   1     -43.650  18.468  -5.109  0.00  0.00     0.035 A 
ATOM      4  C4  NON d   1     -44.832  17.973  -5.640  0.00  0.00     0.050 A 
ATOM      5  C5  NON d   1     -45.929  16.959  -4.935  0.00  0.00     0.078 A 
ATOM      6  N3  NON d   1     -47.075  16.505  -5.465  0.00  0.00    -0.175 NA
ATOM      7  C13 NON d   1     -45.448  16.577  -3.582  0.00  0.00     0.037 A 
ATOM      8  C14 NON d   1     -44.313  17.051  -3.059  0.00  0.00     0.058 A 
ATOM      9  C15 NON d   1     -43.371  17.994  -3.717  0.00  0.00     0.183 A 
ATOM     10  O2  NON d   1     -42.379  18.330  -3.080  0.00  0.00    -0.288 OA
BRANCH   6  11
ATOM     11  N4  NON d   1     -47.989  15.584  -4.690  0.00  0.00    -0.278 N 
ATOM     12  H4  NON d   1     -47.613  14.652  -4.521  0.00  0.00     0.189 HD
BRANCH  11  13
ATOM     13  C6  NON d   1     -48.803  15.989  -3.508  0.00  0.00     0.051 A 
ATOM     14  C7  NON d   1     -48.206  16.360  -2.314  0.00  0.00     0.031 A 
ATOM     15  C8  NON d   1     -48.993  16.818  -1.220  0.00  0.00     0.003 A 
ATOM     16  C9  NON d   1     -50.412  16.968  -1.251  0.00  0.00     0.016 A 
ATOM     17  C10 NON d   1     -51.158  16.661  -2.390  0.00  0.00     0.050 A 
ATOM     18  C12 NON d   1     -50.278  16.186  -3.530  0.00  0.00     0.047 A 
BRANCH  17  19
ATOM     19  C11 NON d   1     -52.675  16.913  -2.473  0.00  0.00     0.417 C 
ATOM     20  F1  NON d   1     -54.192  17.164  -2.556  0.00  0.00    -0.166 F 
ATOM     21  F2  NON d   1     -52.763  17.273  -1.089  0.00  0.00    -0.166 F 
ATOM     22  F3  NON d   1     -52.988  15.515  -2.451  0.00  0.00    -0.166 F 
ENDBRANCH  17  19
ENDBRANCH  11  13
ENDBRANCH   6  11
ENDBRANCH   2   3
BRANCH   1  23
ATOM     23  N1  NON d   1     -40.256  20.403  -6.505  0.00  0.00    -0.244 N 
ATOM     24  C1  NON d   1     -40.446  20.850  -7.954  0.00  0.00     0.282 C 
ATOM     25  O1  NON d   1     -41.411  20.266  -8.480  0.00  0.00    -0.268 OA
ATOM     26  H1  NON d   1     -39.352  20.600  -6.089  0.00  0.00     0.192 HD
BRANCH  24  27
ATOM     27  C16 NON d   1     -39.450  21.817  -8.620  0.00  0.00     0.195 C 
BRANCH  27  28
ATOM     28  O3  NON d   1     -39.823  21.250 -10.002  0.00  0.00    -0.371 OA
ATOM     29  H11 NON d   1     -40.799  21.284 -10.012  0.00  0.00     0.212 HD
ENDBRANCH  27  28
BRANCH  27  30
ATOM     30  C17 NON d   1     -38.453  22.784  -9.286  0.00  0.00    -0.010 A 
ATOM     31  C18 NON d   1     -37.402  22.334 -10.114  0.00  0.00     0.011 A 
ATOM     32  C19 NON d   1     -36.559  23.241 -10.759  0.00  0.00     0.001 A 
ATOM     33  C20 NON d   1     -36.777  24.611 -10.632  0.00  0.00     0.000 A 
ATOM     34  C21 NON d   1     -37.836  25.080  -9.858  0.00  0.00     0.001 A 
ATOM     35  C22 NON d   1     -38.664  24.178  -9.189  0.00  0.00     0.011 A 
ENDBRANCH  27  30
BRANCH  27  36
ATOM     36  C23 NON d   1     -39.076  22.384  -7.237  0.00  0.00    -0.010 A 
ATOM     37  C24 NON d   1     -37.859  22.032  -6.599  0.00  0.00     0.011 A 
ATOM     38  C25 NON d   1     -37.526  22.556  -5.348  0.00  0.00     0.001 A 
ATOM     39  C26 NON d   1     -38.384  23.452  -4.714  0.00  0.00     0.000 A 
ATOM     40  C27 NON d   1     -39.584  23.819  -5.319  0.00  0.00     0.001 A 
ATOM     41  C28 NON d   1     -39.935  23.285  -6.560  0.00  0.00     0.011 A 
ENDBRANCH  27  36
ENDBRANCH  24  27
ENDBRANCH   1  23
TORSDOF 9
ENDMDL
MODEL 3
REMARK VINA RESULT:   -25.211      2.312      2.979
REMARK INTER + INTRA:         -29.327
REMARK INTER:                 -27.896
REMARK INTRA:                  -1.432
REMARK CONF_INDEPENDENT:        2.685
REMARK UNBOUND:                -1.432
REMARK  9 active torsions:
REMARK  status: ('A' for Active; 'I' for Inactive)
REMARK       I    between atoms: C1_2  and  N1_3 
REMARK    1  A    between atoms: C1_2  and  C16_25 
REMARK    2  A    between atoms: N1_3  and  N2_4 
REMARK    3  A    between atoms: C2_5  and  C3_6 
REMARK    4  A    between atoms: N3_9  and  N4_10 
REMARK    5  A    between atoms: N4_10  and  C6_11 
REMARK    6  A    between atoms: C10_15  and  C11_16 
REMARK    7  A    between atoms: C16_25  and  O3_26 
REMARK    8  A    between atoms: C16_25  and  C17_27 
REMARK    9  A    between atoms: C16_25  and  C23_33 
ROOT
ATOM      1  N2  NON d   1     -41.399  19.511  -6.650  0.00  0.00    -0.184 NA
ATOM      2  C2  NON d   1     -42.394  19.732  -5.792  0.00  0.00     0.154 C 
ENDROOT
BRANCH   2   3
ATOM      3  C3  NON d   1     -43.581  18.678  -5.219  0.00  0.00     0.035 A 
ATOM      4  C4  NON d   1     -44.774  18.284  -5.809  0.00  0.00     0.050 A 
ATOM      5  C5  NON d   1     -45.910  17.234  -5.227  0.00  0.00     0.078 A 
ATOM      6  N3  NON d   1     -47.065  16.880  -5.810  0.00  0.00    -0.175 NA
ATOM      7  C13 NON d   1     -45.452  16.688  -3.923  0.00  0.00     0.037 A 
ATOM      8  C14 NON d   1     -44.307  17.062  -3.344  0.00  0.00     0.058 A 
ATOM      9  C15 NON d   1     -43.330  18.042  -3.888  0.00  0.00     0.183 A 
ATOM     10  O2  NON d   1     -42.334  18.272  -3.212  0.00  0.00    -0.288 OA
BRANCH   6  11
ATOM     11  N4  NON d   1     -48.015  15.908  -5.148  0.00  0.00    -0.278 N 
ATOM     12  H4  NON d   1     -47.735  14.930  -5.207  0.00  0.00     0.189 HD
BRANCH  11  13
ATOM     13  C6  NON d   1     -48.682  16.132  -3.834  0.00  0.00     0.051 A 
ATOM     14  C7  NON d   1     -47.953  16.208  -2.658  0.00  0.00     0.031 A 
ATOM     15  C8  NON d   1     -48.596  16.500  -1.422  0.00  0.00     0.003 A 
ATOM     16  C9  NON d   1     -49.991  16.764  -1.278  0.00  0.00     0.016 A 
ATOM     17  C10 NON d   1     -50.857  16.752  -2.374  0.00  0.00     0.050 A 
ATOM     18  C12 NON d   1     -50.127  16.446  -3.668  0.00  0.00     0.047 A 
BRANCH  17  19
ATOM     19  C11 NON d   1     -52.343  17.134  -2.252  0.00  0.00     0.417 C 
ATOM     20  F1  NON d   1     -53.830  17.517  -2.130  0.00  0.00    -0.166 F 
ATOM     21  F2  NON d   1     -52.229  17.418  -0.852  0.00  0.00    -0.166 F 
ATOM     22  F3  NON d   1     -52.777  15.769  -2.258  0.00  0.00    -0.166 F 
ENDBRANCH  17  19
ENDBRANCH  11  13
ENDBRANCH   6  11
ENDBRANCH   2   3
BRANCH   1  23
ATOM     23  N1  NON d   1     -40.414  20.584  -7.101  0.00  0.00    -0.244 N 
ATOM     24  C1  NON d   1     -40.031  21.799  -6.256  0.00  0.00     0.282 C 
ATOM     25  O1  NON d   1     -40.660  21.816  -5.183  0.00  0.00    -0.268 OA
ATOM     26  H1  NON d   1     -40.177  20.629  -8.087  0.00  0.00     0.192 HD
BRANCH  24  27
ATOM     27  C16 NON d   1     -39.067  22.868  -6.802  0.00  0.00     0.195 C 
BRANCH  27  28
ATOM     28  O3  NON d   1     -38.922  22.070  -8.111  0.00  0.00    -0.371 OA
ATOM     29  H11 NON d   1     -37.962  21.907  -8.180  0.00  0.00     0.212 HD
ENDBRANCH  27  28
BRANCH  27  30
ATOM     30  C17 NON d   1     -38.102  23.938  -7.348  0.00  0.00    -0.010 A 
ATOM     31  C18 NON d   1     -38.276  24.536  -8.615  0.00  0.00     0.011 A 
ATOM     32  C19 NON d   1     -37.423  25.553  -9.051  0.00  0.00     0.001 A 
ATOM     33  C20 NON d   1     -36.416  26.027  -8.214  0.00  0.00     0.000 A 
ATOM     34  C21 NON d   1     -36.253  25.486  -6.941  0.00  0.00     0.001 A 
ATOM     35  C22 NON d   1     -37.085  24.451  -6.512  0.00  0.00     0.011 A 
ENDBRANCH  27  30
BRANCH  27  36
ATOM     36  C23 NON d   1     -39.211  23.667  -5.493  0.00  0.00    -0.010 A 
ATOM     37  C24 NON d   1     -39.886  24.915  -5.459  0.00  0.00     0.011 A 
ATOM     38  C25 NON d   1     -40.017  25.628  -4.267  0.00  0.00     0.001 A 
ATOM     39  C26 NON d   1     -39.498  25.112  -3.082  0.00  0.00     0.000 A 
ATOM     40  C27 NON d   1     -38.833  23.888  -3.084  0.00  0.00     0.001 A 
ATOM     41  C28 NON d   1     -38.679  23.176  -4.275  0.00  0.00     0.011 A 
ENDBRANCH  27  36
ENDBRANCH  24  27
ENDBRANCH   1  23
TORSDOF 9
ENDMDL
MODEL 4
REMARK VINA RESULT:   -24.775      1.574      2.046
REMARK INTER + INTRA:         -28.716
REMARK INTER:                 -27.459
REMARK INTRA:                  -1.257
REMARK CONF_INDEPENDENT:        2.685
REMARK UNBOUND:                -1.257
REMARK  9 active torsions:
REMARK  status: ('A' for Active; 'I' for Inactive)
REMARK       I    between atoms: C1_2  and  N1_3 
REMARK    1  A    between atoms: C1_2  and  C16_25 
REMARK    2  A    between atoms: N1_3  and  N2_4 
REMARK    3  A    between atoms: C2_5  and  C3_6 
REMARK    4  A    between atoms: N3_9  and  N4_10 
REMARK    5  A    between atoms: N4_10  and  C6_11 
REMARK    6  A    between atoms: C10_15  and  C11_16 
REMARK    7  A    between atoms: C16_25  and  O3_26 
REMARK    8  A    between atoms: C16_25  and  C17_27 
REMARK    9  A    between atoms: C16_25  and  C23_33 
ROOT
ATOM      1  N2  NON d   1     -41.158  19.767  -5.860  0.00  0.00    -0.184 NA
ATOM      2  C2  NON d   1     -42.485  19.863  -5.791  0.00  0.00     0.154 C 
ENDROOT
BRANCH   2   3
ATOM      3  C3  NON d   1     -43.622  18.746  -5.234  0.00  0.00     0.035 A 
ATOM      4  C4  NON d   1     -44.820  18.343  -5.808  0.00  0.00     0.050 A 
ATOM      5  C5  NON d   1     -45.905  17.231  -5.244  0.00  0.00     0.078 A 
ATOM      6  N3  NON d   1     -47.066  16.869  -5.810  0.00  0.00    -0.175 NA
ATOM      7  C13 NON d   1     -45.392  16.640  -3.982  0.00  0.00     0.037 A 
ATOM      8  C14 NON d   1     -44.242  17.022  -3.419  0.00  0.00     0.058 A 
ATOM      9  C15 NON d   1     -43.312  18.057  -3.943  0.00  0.00     0.183 A 
ATOM     10  O2  NON d   1     -42.302  18.286  -3.286  0.00  0.00    -0.288 OA
BRANCH   6  11
ATOM     11  N4  NON d   1     -47.966  15.838  -5.168  0.00  0.00    -0.278 N 
ATOM     12  H4  NON d   1     -47.617  14.881  -5.212  0.00  0.00     0.189 HD
BRANCH  11  13
ATOM     13  C6  NON d   1     -48.685  16.023  -3.875  0.00  0.00     0.051 A 
ATOM     14  C7  NON d   1     -48.003  16.068  -2.671  0.00  0.00     0.031 A 
ATOM     15  C8  NON d   1     -48.695  16.322  -1.453  0.00  0.00     0.003 A 
ATOM     16  C9  NON d   1     -50.096  16.579  -1.357  0.00  0.00     0.016 A 
ATOM     17  C10 NON d   1     -50.918  16.595  -2.485  0.00  0.00     0.050 A 
ATOM     18  C12 NON d   1     -50.137  16.327  -3.758  0.00  0.00     0.047 A 
BRANCH  17  19
ATOM     19  C11 NON d   1     -52.410  16.969  -2.411  0.00  0.00     0.417 C 
ATOM     20  F1  NON d   1     -53.902  17.344  -2.337  0.00  0.00    -0.166 F 
ATOM     21  F2  NON d   1     -52.273  17.548  -1.108  0.00  0.00    -0.166 F 
ATOM     22  F3  NON d   1     -52.813  15.627  -2.115  0.00  0.00    -0.166 F 
ENDBRANCH  17  19
ENDBRANCH  11  13
ENDBRANCH   6  11
ENDBRANCH   2   3
BRANCH   1  23
ATOM     23  N1  NON d   1     -40.257  20.861  -6.423  0.00  0.00    -0.244 N 
ATOM     24  C1  NON d   1     -40.141  22.262  -5.825  0.00  0.00     0.282 C 
ATOM     25  O1  NON d   1     -40.907  22.400  -4.853  0.00  0.00    -0.268 OA
ATOM     26  H1  NON d   1     -39.896  20.743  -7.364  0.00  0.00     0.192 HD
BRANCH  24  27
ATOM     27  C16 NON d   1     -39.247  23.331  -6.481  0.00  0.00     0.195 C 
BRANCH  27  28
ATOM     28  O3  NON d   1     -39.502  24.275  -5.292  0.00  0.00    -0.371 OA
ATOM     29  H11 NON d   1     -39.713  23.670  -4.556  0.00  0.00     0.212 HD
ENDBRANCH  27  28
BRANCH  27  30
ATOM     30  C17 NON d   1     -38.353  24.399  -7.138  0.00  0.00    -0.010 A 
ATOM     31  C18 NON d   1     -37.106  24.779  -6.595  0.00  0.00     0.011 A 
ATOM     32  C19 NON d   1     -36.289  25.700  -7.254  0.00  0.00     0.001 A 
ATOM     33  C20 NON d   1     -36.673  26.220  -8.487  0.00  0.00     0.000 A 
ATOM     34  C21 NON d   1     -37.876  25.826  -9.067  0.00  0.00     0.001 A 
ATOM     35  C22 NON d   1     -38.710  24.927  -8.399  0.00  0.00     0.011 A 
ENDBRANCH  27  30
BRANCH  27  36
ATOM     36  C23 NON d   1     -38.992  22.386  -7.671  0.00  0.00    -0.010 A 
ATOM     37  C24 NON d   1     -39.939  22.246  -8.719  0.00  0.00     0.011 A 
ATOM     38  C25 NON d   1     -39.696  21.392  -9.796  0.00  0.00     0.001 A 
ATOM     39  C26 NON d   1     -38.505  20.673  -9.865  0.00  0.00     0.000 A 
ATOM     40  C27 NON d   1     -37.555  20.794  -8.853  0.00  0.00     0.001 A 
ATOM     41  C28 NON d   1     -37.797  21.630  -7.761  0.00  0.00     0.011 A 
ENDBRANCH  27  36
ENDBRANCH  24  27
ENDBRANCH   1  23
TORSDOF 9
ENDMDL
