MODEL 1
REMARK VINA RESULT:   -11.769      0.000      0.000
REMARK INTER + INTRA:         -15.773
REMARK INTER:                 -14.155
REMARK INTRA:                  -1.617
REMARK CONF_INDEPENDENT:        2.386
REMARK UNBOUND:                -1.617
REMARK  8 active torsions:
REMARK  status: ('A' for Active; 'I' for Inactive)
REMARK    1  A    between atoms: O1_2  and  C2_3 
REMARK    2  A    between atoms: C5_6  and  C6_7 
REMARK    3  A    between atoms: C6_7  and  C7_8 
REMARK       I    between atoms: C7_8  and  N1_10 
REMARK       I    between atoms: N1_10  and  C8_11 
REMARK       I    between atoms: C8_11  and  N4_24 
REMARK    4  A    between atoms: N2_12  and  C9_13 
REMARK    5  A    between atoms: C9_13  and  C10_14 
REMARK    6  A    between atoms: C10_14  and  C11_15 
REMARK    7  A    between atoms: N4_24  and  C19_25 
REMARK    8  A    between atoms: C26_32  and  O3_33 
ROOT
ATOM      1  C7  NON d   1     -42.503  18.473  -4.892  0.00  0.00     0.240 C 
ATOM      2  O2  NON d   1     -42.804  19.455  -5.570  0.00  0.00    -0.272 OA
ATOM      3  N1  NON d   1     -41.521  18.555  -3.886  0.00  0.00    -0.158 N 
ATOM      4  C8  NON d   1     -40.954  19.720  -3.354  0.00  0.00     0.702 C 
ATOM      5  N2  NON d   1     -40.164  19.478  -2.352  0.00  0.00    -0.107 NA
ATOM      6  N4  NON d   1     -41.418  20.879  -3.927  0.00  0.00    -0.190 N 
ATOM      7  H8  NON d   1     -41.248  17.725  -3.381  0.00  0.00     0.187 HD
ATOM      8  H19 NON d   1     -42.102  20.725  -4.673  0.00  0.00     0.184 HD
ENDROOT
BRANCH   5   9
ATOM      9  C9  NON d   1     -39.683  20.639  -1.579  0.00  0.00     0.173 C 
BRANCH   9  10
ATOM     10  C10 NON d   1     -40.313  20.870  -0.188  0.00  0.00     0.063 C 
BRANCH  10  11
ATOM     11  C11 NON d   1     -39.704  22.093   0.510  0.00  0.00    -0.029 A 
ATOM     12  C12 NON d   1     -40.262  23.417   0.656  0.00  0.00    -0.002 A 
ATOM     13  C13 NON d   1     -41.445  24.054   0.226  0.00  0.00     0.014 A 
ATOM     14  C17 NON d   1     -39.367  24.177   1.421  0.00  0.00     0.042 A 
ATOM     15  C14 NON d   1     -41.680  25.398   0.565  0.00  0.00     0.001 A 
ATOM     16  C15 NON d   1     -40.765  26.114   1.333  0.00  0.00     0.002 A 
ATOM     17  C16 NON d   1     -39.587  25.516   1.779  0.00  0.00     0.030 A 
ATOM     18  N3  NON d   1     -38.303  23.366   1.721  0.00  0.00    -0.365 N 
ATOM     19  C18 NON d   1     -38.480  22.133   1.163  0.00  0.00     0.096 A 
ATOM     20  H17 NON d   1     -37.504  23.646   2.274  0.00  0.00     0.165 HD
ENDBRANCH  10  11
ENDBRANCH   9  10
ENDBRANCH   5   9
BRANCH   6  21
ATOM     21  C19 NON d   1     -40.971  22.208  -3.969  0.00  0.00     0.049 C 
ATOM     22  C20 NON d   1     -41.438  23.228  -3.137  0.00  0.00     0.030 C 
ATOM     23  C21 NON d   1     -41.034  24.554  -3.337  0.00  0.00     0.002 C 
ATOM     24  C22 NON d   1     -40.090  24.856  -4.317  0.00  0.00     0.000 C 
ATOM     25  C23 NON d   1     -39.530  23.832  -5.074  0.00  0.00     0.002 C 
ATOM     26  C24 NON d   1     -39.965  22.520  -4.896  0.00  0.00     0.030 C 
ENDBRANCH   6  21
BRANCH   1  27
ATOM     27  C6  NON d   1     -43.130  17.096  -5.066  0.00  0.00     0.142 C 
BRANCH  27  28
ATOM     28  C5  NON d   1     -44.581  16.865  -4.633  0.00  0.00    -0.047 A 
ATOM     29  C4  NON d   1     -44.967  17.365  -3.379  0.00  0.00     0.010 A 
ATOM     30  C3  NON d   1     -46.288  17.255  -2.923  0.00  0.00     0.040 A 
ATOM     31  C2  NON d   1     -47.286  16.656  -3.699  0.00  0.00     0.101 A 
ATOM     32  C26 NON d   1     -46.920  16.138  -4.945  0.00  0.00     0.102 A 
ATOM     33  C25 NON d   1     -45.590  16.274  -5.416  0.00  0.00     0.047 A 
BRANCH  31  34
ATOM     34  O1  NON d   1     -48.505  16.664  -3.083  0.00  0.00    -0.353 OA
ATOM     35  C1  NON d   1     -48.585  16.680  -1.665  0.00  0.00     0.210 C 
ENDBRANCH  31  34
BRANCH  32  36
ATOM     36  O3  NON d   1     -47.815  15.564  -5.811  0.00  0.00    -0.353 OA
ATOM     37  C27 NON d   1     -48.944  15.005  -5.135  0.00  0.00     0.210 C 
ENDBRANCH  32  36
ENDBRANCH  27  28
ENDBRANCH   1  27
TORSDOF 8
ENDMDL
MODEL 2
REMARK VINA RESULT:   -11.761      2.166      5.624
REMARK INTER + INTRA:         -15.935
REMARK INTER:                 -14.148
REMARK INTRA:                  -1.787
REMARK CONF_INDEPENDENT:        2.386
REMARK UNBOUND:                -1.787
REMARK  8 active torsions:
REMARK  status: ('A' for Active; 'I' for Inactive)
REMARK    1  A    between atoms: O1_2  and  C2_3 
REMARK    2  A    between atoms: C5_6  and  C6_7 
REMARK    3  A    between atoms: C6_7  and  C7_8 
REMARK       I    between atoms: C7_8  and  N1_10 
REMARK       I    between atoms: N1_10  and  C8_11 
REMARK       I    between atoms: C8_11  and  N4_24 
REMARK    4  A    between atoms: N2_12  and  C9_13 
REMARK    5  A    between atoms: C9_13  and  C10_14 
REMARK    6  A    between atoms: C10_14  and  C11_15 
REMARK    7  A    between atoms: N4_24  and  C19_25 
REMARK    8  A    between atoms: C26_32  and  O3_33 
ROOT
ATOM      1  C7  NON d   1     -42.294  18.130  -4.151  0.00  0.00     0.240 C 
ATOM      2  O2  NON d   1     -41.670  17.672  -3.195  0.00  0.00    -0.272 OA
ATOM      3  N1  NON d   1     -42.228  19.498  -4.477  0.00  0.00    -0.158 N 
ATOM      4  C8  NON d   1     -41.321  20.441  -3.979  0.00  0.00     0.702 C 
ATOM      5  N2  NON d   1     -41.432  21.596  -4.561  0.00  0.00    -0.107 NA
ATOM      6  N4  NON d   1     -40.440  19.934  -3.054  0.00  0.00    -0.190 N 
ATOM      7  H8  NON d   1     -42.794  19.864  -5.230  0.00  0.00     0.187 HD
ATOM      8  H19 NON d   1     -40.583  18.941  -2.851  0.00  0.00     0.184 HD
ENDROOT
BRANCH   5   9
ATOM      9  C9  NON d   1     -40.388  22.599  -4.270  0.00  0.00     0.173 C 
BRANCH   9  10
ATOM     10  C10 NON d   1     -39.757  23.329  -5.475  0.00  0.00     0.063 C 
BRANCH  10  11
ATOM     11  C11 NON d   1     -39.856  22.493  -6.757  0.00  0.00    -0.029 A 
ATOM     12  C12 NON d   1     -39.567  21.090  -6.940  0.00  0.00    -0.002 A 
ATOM     13  C13 NON d   1     -39.092  20.052  -6.111  0.00  0.00     0.014 A 
ATOM     14  C17 NON d   1     -39.863  20.762  -8.271  0.00  0.00     0.042 A 
ATOM     15  C14 NON d   1     -38.929  18.757  -6.634  0.00  0.00     0.001 A 
ATOM     16  C15 NON d   1     -39.242  18.474  -7.961  0.00  0.00     0.002 A 
ATOM     17  C16 NON d   1     -39.717  19.474  -8.809  0.00  0.00     0.030 A 
ATOM     18  N3  NON d   1     -40.301  21.909  -8.881  0.00  0.00    -0.365 N 
ATOM     19  C18 NON d   1     -40.276  22.950  -7.998  0.00  0.00     0.096 A 
ATOM     20  H17 NON d   1     -40.596  21.971  -9.846  0.00  0.00     0.165 HD
ENDBRANCH  10  11
ENDBRANCH   9  10
ENDBRANCH   5   9
BRANCH   6  21
ATOM     21  C19 NON d   1     -39.594  20.494  -2.086  0.00  0.00     0.049 C 
ATOM     22  C20 NON d   1     -40.021  20.990  -0.852  0.00  0.00     0.030 C 
ATOM     23  C21 NON d   1     -39.127  21.653  -0.002  0.00  0.00     0.002 C 
ATOM     24  C22 NON d   1     -37.779  21.748  -0.342  0.00  0.00     0.000 C 
ATOM     25  C23 NON d   1     -37.320  21.156  -1.514  0.00  0.00     0.002 C 
ATOM     26  C24 NON d   1     -38.221  20.530  -2.374  0.00  0.00     0.030 C 
ENDBRANCH   6  21
BRANCH   1  27
ATOM     27  C6  NON d   1     -43.193  17.297  -5.056  0.00  0.00     0.142 C 
BRANCH  27  28
ATOM     28  C5  NON d   1     -44.628  16.987  -4.620  0.00  0.00    -0.047 A 
ATOM     29  C4  NON d   1     -45.028  17.438  -3.351  0.00  0.00     0.010 A 
ATOM     30  C3  NON d   1     -46.339  17.255  -2.890  0.00  0.00     0.040 A 
ATOM     31  C2  NON d   1     -47.314  16.629  -3.674  0.00  0.00     0.101 A 
ATOM     32  C26 NON d   1     -46.933  16.159  -4.935  0.00  0.00     0.102 A 
ATOM     33  C25 NON d   1     -45.614  16.369  -5.411  0.00  0.00     0.047 A 
BRANCH  31  34
ATOM     34  O1  NON d   1     -48.527  16.565  -3.051  0.00  0.00    -0.353 OA
ATOM     35  C1  NON d   1     -48.632  16.867  -1.667  0.00  0.00     0.210 C 
ENDBRANCH  31  34
BRANCH  32  36
ATOM     36  O3  NON d   1     -47.807  15.565  -5.809  0.00  0.00    -0.353 OA
ATOM     37  C27 NON d   1     -48.943  15.006  -5.146  0.00  0.00     0.210 C 
ENDBRANCH  32  36
ENDBRANCH  27  28
ENDBRANCH   1  27
TORSDOF 8
ENDMDL
MODEL 3
REMARK VINA RESULT:   -11.693      2.050      2.982
REMARK INTER + INTRA:         -15.395
REMARK INTER:                 -14.079
REMARK INTRA:                  -1.316
REMARK CONF_INDEPENDENT:        2.386
REMARK UNBOUND:                -1.316
REMARK  8 active torsions:
REMARK  status: ('A' for Active; 'I' for Inactive)
REMARK    1  A    between atoms: O1_2  and  C2_3 
REMARK    2  A    between atoms: C5_6  and  C6_7 
REMARK    3  A    between atoms: C6_7  and  C7_8 
REMARK       I    between atoms: C7_8  and  N1_10 
REMARK       I    between atoms: N1_10  and  C8_11 
REMARK       I    between atoms: C8_11  and  N4_24 
REMARK    4  A    between atoms: N2_12  and  C9_13 
REMARK    5  A    between atoms: C9_13  and  C10_14 
REMARK    6  A    between atoms: C10_14  and  C11_15 
REMARK    7  A    between atoms: N4_24  and  C19_25 
REMARK    8  A    between atoms: C26_32  and  O3_33 
ROOT
ATOM      1  C7  NON d   1     -41.026  19.263  -2.945  0.00  0.00     0.240 C 
ATOM      2  O2  NON d   1     -40.919  19.949  -3.960  0.00  0.00    -0.272 OA
ATOM      3  N1  NON d   1     -40.447  19.667  -1.727  0.00  0.00    -0.158 N 
ATOM      4  C8  NON d   1     -39.923  20.929  -1.420  0.00  0.00     0.702 C 
ATOM      5  N2  NON d   1     -39.572  21.035  -0.174  0.00  0.00    -0.107 NA
ATOM      6  N4  NON d   1     -39.976  21.824  -2.461  0.00  0.00    -0.190 N 
ATOM      7  H8  NON d   1     -40.497  19.061  -0.920  0.00  0.00     0.187 HD
ATOM      8  H19 NON d   1     -40.378  21.434  -3.318  0.00  0.00     0.184 HD
ENDROOT
BRANCH   5   9
ATOM      9  C9  NON d   1     -39.210  22.381   0.311  0.00  0.00     0.173 C 
BRANCH   9  10
ATOM     10  C10 NON d   1     -39.766  22.808   1.687  0.00  0.00     0.063 C 
BRANCH  10  11
ATOM     11  C11 NON d   1     -40.413  24.198   1.627  0.00  0.00    -0.029 A 
ATOM     12  C12 NON d   1     -41.065  24.932   2.686  0.00  0.00    -0.002 A 
ATOM     13  C13 NON d   1     -41.369  24.675   4.039  0.00  0.00     0.014 A 
ATOM     14  C17 NON d   1     -41.443  26.180   2.170  0.00  0.00     0.042 A 
ATOM     15  C14 NON d   1     -42.029  25.651   4.807  0.00  0.00     0.001 A 
ATOM     16  C15 NON d   1     -42.380  26.881   4.255  0.00  0.00     0.002 A 
ATOM     17  C16 NON d   1     -42.093  27.171   2.922  0.00  0.00     0.030 A 
ATOM     18  N3  NON d   1     -41.055  26.208   0.856  0.00  0.00    -0.365 N 
ATOM     19  C18 NON d   1     -40.465  25.025   0.514  0.00  0.00     0.096 A 
ATOM     20  H17 NON d   1     -41.190  26.992   0.232  0.00  0.00     0.165 HD
ENDBRANCH  10  11
ENDBRANCH   9  10
ENDBRANCH   5   9
BRANCH   6  21
ATOM     21  C19 NON d   1     -39.340  23.039  -2.752  0.00  0.00     0.049 C 
ATOM     22  C20 NON d   1     -37.965  23.187  -2.952  0.00  0.00     0.030 C 
ATOM     23  C21 NON d   1     -37.398  24.458  -3.105  0.00  0.00     0.002 C 
ATOM     24  C22 NON d   1     -38.214  25.587  -3.146  0.00  0.00     0.000 C 
ATOM     25  C23 NON d   1     -39.595  25.442  -3.064  0.00  0.00     0.002 C 
ATOM     26  C24 NON d   1     -40.151  24.177  -2.874  0.00  0.00     0.030 C 
ENDBRANCH   6  21
BRANCH   1  27
ATOM     27  C6  NON d   1     -41.762  17.930  -2.894  0.00  0.00     0.142 C 
BRANCH  27  28
ATOM     28  C5  NON d   1     -43.132  17.796  -3.565  0.00  0.00    -0.047 A 
ATOM     29  C4  NON d   1     -43.363  18.565  -4.718  0.00  0.00     0.010 A 
ATOM     30  C3  NON d   1     -44.563  18.464  -5.435  0.00  0.00     0.040 A 
ATOM     31  C2  NON d   1     -45.580  17.585  -5.047  0.00  0.00     0.101 A 
ATOM     32  C26 NON d   1     -45.376  16.822  -3.894  0.00  0.00     0.102 A 
ATOM     33  C25 NON d   1     -44.152  16.904  -3.185  0.00  0.00     0.047 A 
BRANCH  31  34
ATOM     34  O1  NON d   1     -46.657  17.626  -5.886  0.00  0.00    -0.353 OA
ATOM     35  C1  NON d   1     -47.657  16.620  -5.810  0.00  0.00     0.210 C 
ENDBRANCH  31  34
BRANCH  32  36
ATOM     36  O3  NON d   1     -46.282  15.898  -3.436  0.00  0.00    -0.353 OA
ATOM     37  C27 NON d   1     -47.400  16.508  -2.788  0.00  0.00     0.210 C 
ENDBRANCH  32  36
ENDBRANCH  27  28
ENDBRANCH   1  27
TORSDOF 8
ENDMDL
MODEL 4
REMARK VINA RESULT:   -11.218      2.358      3.451
REMARK INTER + INTRA:         -14.818
REMARK INTER:                 -13.604
REMARK INTRA:                  -1.213
REMARK CONF_INDEPENDENT:        2.386
REMARK UNBOUND:                -1.213
REMARK  8 active torsions:
REMARK  status: ('A' for Active; 'I' for Inactive)
REMARK    1  A    between atoms: O1_2  and  C2_3 
REMARK    2  A    between atoms: C5_6  and  C6_7 
REMARK    3  A    between atoms: C6_7  and  C7_8 
REMARK       I    between atoms: C7_8  and  N1_10 
REMARK       I    between atoms: N1_10  and  C8_11 
REMARK       I    between atoms: C8_11  and  N4_24 
REMARK    4  A    between atoms: N2_12  and  C9_13 
REMARK    5  A    between atoms: C9_13  and  C10_14 
REMARK    6  A    between atoms: C10_14  and  C11_15 
REMARK    7  A    between atoms: N4_24  and  C19_25 
REMARK    8  A    between atoms: C26_32  and  O3_33 
ROOT
ATOM      1  C7  NON d   1     -42.273  17.930  -4.167  0.00  0.00     0.240 C 
ATOM      2  O2  NON d   1     -42.211  17.557  -5.337  0.00  0.00    -0.272 OA
ATOM      3  N1  NON d   1     -41.228  18.669  -3.581  0.00  0.00    -0.158 N 
ATOM      4  C8  NON d   1     -40.154  19.279  -4.240  0.00  0.00     0.702 C 
ATOM      5  N2  NON d   1     -39.420  19.994  -3.443  0.00  0.00    -0.107 NA
ATOM      6  N4  NON d   1     -40.148  19.081  -5.600  0.00  0.00    -0.190 N 
ATOM      7  H8  NON d   1     -41.273  18.915  -2.602  0.00  0.00     0.187 HD
ATOM      8  H19 NON d   1     -40.923  18.503  -5.935  0.00  0.00     0.184 HD
ENDROOT
BRANCH   5   9
ATOM      9  C9  NON d   1     -38.392  20.853  -4.063  0.00  0.00     0.173 C 
BRANCH   9  10
ATOM     10  C10 NON d   1     -37.639  21.833  -3.138  0.00  0.00     0.063 C 
BRANCH  10  11
ATOM     11  C11 NON d   1     -38.118  21.717  -1.685  0.00  0.00    -0.029 A 
ATOM     12  C12 NON d   1     -39.214  22.404  -1.042  0.00  0.00    -0.002 A 
ATOM     13  C13 NON d   1     -40.154  23.377  -1.441  0.00  0.00     0.014 A 
ATOM     14  C17 NON d   1     -39.303  21.928   0.274  0.00  0.00     0.042 A 
ATOM     15  C14 NON d   1     -41.122  23.832  -0.528  0.00  0.00     0.001 A 
ATOM     16  C15 NON d   1     -41.178  23.327   0.769  0.00  0.00     0.002 A 
ATOM     17  C16 NON d   1     -40.267  22.362   1.197  0.00  0.00     0.030 A 
ATOM     18  N3  NON d   1     -38.303  21.005   0.438  0.00  0.00    -0.365 N 
ATOM     19  C18 NON d   1     -37.575  20.890  -0.711  0.00  0.00     0.096 A 
ATOM     20  H17 NON d   1     -38.132  20.488   1.289  0.00  0.00     0.165 HD
ENDBRANCH  10  11
ENDBRANCH   9  10
ENDBRANCH   5   9
BRANCH   6  21
ATOM     21  C19 NON d   1     -39.185  19.207  -6.612  0.00  0.00     0.049 C 
ATOM     22  C20 NON d   1     -37.852  18.807  -6.492  0.00  0.00     0.030 C 
ATOM     23  C21 NON d   1     -36.928  19.093  -7.504  0.00  0.00     0.002 C 
ATOM     24  C22 NON d   1     -37.349  19.704  -8.683  0.00  0.00     0.000 C 
ATOM     25  C23 NON d   1     -38.696  20.003  -8.862  0.00  0.00     0.002 C 
ATOM     26  C24 NON d   1     -39.605  19.751  -7.835  0.00  0.00     0.030 C 
ENDBRANCH   6  21
BRANCH   1  27
ATOM     27  C6  NON d   1     -43.445  17.631  -3.241  0.00  0.00     0.142 C 
BRANCH  27  28
ATOM     28  C5  NON d   1     -44.788  17.199  -3.836  0.00  0.00    -0.047 A 
ATOM     29  C4  NON d   1     -44.769  16.609  -5.111  0.00  0.00     0.010 A 
ATOM     30  C3  NON d   1     -45.940  16.127  -5.711  0.00  0.00     0.040 A 
ATOM     31  C2  NON d   1     -47.180  16.196  -5.065  0.00  0.00     0.101 A 
ATOM     32  C26 NON d   1     -47.224  16.793  -3.802  0.00  0.00     0.102 A 
ATOM     33  C25 NON d   1     -46.035  17.256  -3.184  0.00  0.00     0.047 A 
BRANCH  31  34
ATOM     34  O1  NON d   1     -48.189  15.658  -5.810  0.00  0.00    -0.353 OA
ATOM     35  C1  NON d   1     -49.195  14.873  -5.185  0.00  0.00     0.210 C 
ENDBRANCH  31  34
BRANCH  32  36
ATOM     36  O3  NON d   1     -48.371  16.884  -3.055  0.00  0.00    -0.353 OA
ATOM     37  C27 NON d   1     -48.107  16.866  -1.650  0.00  0.00     0.210 C 
ENDBRANCH  32  36
ENDBRANCH  27  28
ENDBRANCH   1  27
TORSDOF 8
ENDMDL
MODEL 5
REMARK VINA RESULT:   -11.200      3.680      6.817
REMARK INTER + INTRA:         -14.817
REMARK INTER:                 -13.586
REMARK INTRA:                  -1.231
REMARK CONF_INDEPENDENT:        2.386
REMARK UNBOUND:                -1.231
REMARK  8 active torsions:
REMARK  status: ('A' for Active; 'I' for Inactive)
REMARK    1  A    between atoms: O1_2  and  C2_3 
REMARK    2  A    between atoms: C5_6  and  C6_7 
REMARK    3  A    between atoms: C6_7  and  C7_8 
REMARK       I    between atoms: C7_8  and  N1_10 
REMARK       I    between atoms: N1_10  and  C8_11 
REMARK       I    between atoms: C8_11  and  N4_24 
REMARK    4  A    between atoms: N2_12  and  C9_13 
REMARK    5  A    between atoms: C9_13  and  C10_14 
REMARK    6  A    between atoms: C10_14  and  C11_15 
REMARK    7  A    between atoms: N4_24  and  C19_25 
REMARK    8  A    between atoms: C26_32  and  O3_33 
ROOT
ATOM      1  C7  NON d   1     -42.435  18.374  -4.923  0.00  0.00     0.240 C 
ATOM      2  O2  NON d   1     -42.489  19.051  -3.897  0.00  0.00    -0.272 OA
ATOM      3  N1  NON d   1     -41.752  18.835  -6.065  0.00  0.00    -0.158 N 
ATOM      4  C8  NON d   1     -40.874  19.924  -6.140  0.00  0.00     0.702 C 
ATOM      5  N2  NON d   1     -40.305  20.026  -7.302  0.00  0.00    -0.107 NA
ATOM      6  N4  NON d   1     -40.720  20.600  -4.954  0.00  0.00    -0.190 N 
ATOM      7  H8  NON d   1     -41.769  18.290  -6.915  0.00  0.00     0.187 HD
ATOM      8  H19 NON d   1     -41.280  20.219  -4.187  0.00  0.00     0.184 HD
ENDROOT
BRANCH   5   9
ATOM      9  C9  NON d   1     -39.204  21.001  -7.429  0.00  0.00     0.173 C 
BRANCH   9  10
ATOM     10  C10 NON d   1     -38.682  21.295  -8.852  0.00  0.00     0.063 C 
BRANCH  10  11
ATOM     11  C11 NON d   1     -39.388  22.507  -9.472  0.00  0.00    -0.029 A 
ATOM     12  C12 NON d   1     -39.546  22.838 -10.869  0.00  0.00    -0.002 A 
ATOM     13  C13 NON d   1     -39.125  22.261 -12.086  0.00  0.00     0.014 A 
ATOM     14  C17 NON d   1     -40.315  24.008 -10.947  0.00  0.00     0.042 A 
ATOM     15  C14 NON d   1     -39.476  22.865 -13.306  0.00  0.00     0.001 A 
ATOM     16  C15 NON d   1     -40.247  24.024 -13.338  0.00  0.00     0.002 A 
ATOM     17  C16 NON d   1     -40.684  24.621 -12.155  0.00  0.00     0.030 A 
ATOM     18  N3  NON d   1     -40.605  24.387  -9.662  0.00  0.00    -0.365 N 
ATOM     19  C18 NON d   1     -40.037  23.517  -8.776  0.00  0.00     0.096 A 
ATOM     20  H17 NON d   1     -41.157  25.195  -9.412  0.00  0.00     0.165 HD
ENDBRANCH  10  11
ENDBRANCH   9  10
ENDBRANCH   5   9
BRANCH   6  21
ATOM     21  C19 NON d   1     -40.231  21.864  -4.595  0.00  0.00     0.049 C 
ATOM     22  C20 NON d   1     -40.607  23.063  -5.206  0.00  0.00     0.030 C 
ATOM     23  C21 NON d   1     -39.970  24.264  -4.874  0.00  0.00     0.002 C 
ATOM     24  C22 NON d   1     -39.011  24.290  -3.863  0.00  0.00     0.000 C 
ATOM     25  C23 NON d   1     -38.711  23.124  -3.167  0.00  0.00     0.002 C 
ATOM     26  C24 NON d   1     -39.322  21.924  -3.528  0.00  0.00     0.030 C 
ENDBRANCH   6  21
BRANCH   1  27
ATOM     27  C6  NON d   1     -43.091  17.008  -5.076  0.00  0.00     0.142 C 
BRANCH  27  28
ATOM     28  C5  NON d   1     -44.547  16.815  -4.641  0.00  0.00    -0.047 A 
ATOM     29  C4  NON d   1     -44.919  17.329  -3.388  0.00  0.00     0.010 A 
ATOM     30  C3  NON d   1     -46.241  17.255  -2.930  0.00  0.00     0.040 A 
ATOM     31  C2  NON d   1     -47.255  16.679  -3.703  0.00  0.00     0.101 A 
ATOM     32  C26 NON d   1     -46.904  16.147  -4.947  0.00  0.00     0.102 A 
ATOM     33  C25 NON d   1     -45.572  16.248  -5.421  0.00  0.00     0.047 A 
BRANCH  31  34
ATOM     34  O1  NON d   1     -48.473  16.720  -3.086  0.00  0.00    -0.353 OA
ATOM     35  C1  NON d   1     -48.564  16.537  -1.680  0.00  0.00     0.210 C 
ENDBRANCH  31  34
BRANCH  32  36
ATOM     36  O3  NON d   1     -47.815  15.593  -5.811  0.00  0.00    -0.353 OA
ATOM     37  C27 NON d   1     -48.924  15.005  -5.127  0.00  0.00     0.210 C 
ENDBRANCH  32  36
ENDBRANCH  27  28
ENDBRANCH   1  27
TORSDOF 8
ENDMDL
MODEL 6
REMARK VINA RESULT:   -10.668      2.285      4.832
REMARK INTER + INTRA:         -15.207
REMARK INTER:                 -13.054
REMARK INTRA:                  -2.154
REMARK CONF_INDEPENDENT:        2.386
REMARK UNBOUND:                -2.154
REMARK  8 active torsions:
REMARK  status: ('A' for Active; 'I' for Inactive)
REMARK    1  A    between atoms: O1_2  and  C2_3 
REMARK    2  A    between atoms: C5_6  and  C6_7 
REMARK    3  A    between atoms: C6_7  and  C7_8 
REMARK       I    between atoms: C7_8  and  N1_10 
REMARK       I    between atoms: N1_10  and  C8_11 
REMARK       I    between atoms: C8_11  and  N4_24 
REMARK    4  A    between atoms: N2_12  and  C9_13 
REMARK    5  A    between atoms: C9_13  and  C10_14 
REMARK    6  A    between atoms: C10_14  and  C11_15 
REMARK    7  A    between atoms: N4_24  and  C19_25 
REMARK    8  A    between atoms: C26_32  and  O3_33 
ROOT
ATOM      1  C7  NON d   1     -42.535  18.438  -4.797  0.00  0.00     0.240 C 
ATOM      2  O2  NON d   1     -43.158  19.494  -4.696  0.00  0.00    -0.272 OA
ATOM      3  N1  NON d   1     -41.136  18.398  -4.645  0.00  0.00    -0.158 N 
ATOM      4  C8  NON d   1     -40.314  19.413  -4.140  0.00  0.00     0.702 C 
ATOM      5  N2  NON d   1     -39.079  19.035  -4.008  0.00  0.00    -0.107 NA
ATOM      6  N4  NON d   1     -40.989  20.560  -3.798  0.00  0.00    -0.190 N 
ATOM      7  H8  NON d   1     -40.639  17.531  -4.789  0.00  0.00     0.187 HD
ATOM      8  H19 NON d   1     -41.996  20.513  -3.975  0.00  0.00     0.184 HD
ENDROOT
BRANCH   5   9
ATOM      9  C9  NON d   1     -38.170  19.946  -3.285  0.00  0.00     0.173 C 
BRANCH   9  10
ATOM     10  C10 NON d   1     -37.109  20.694  -4.122  0.00  0.00     0.063 C 
BRANCH  10  11
ATOM     11  C11 NON d   1     -37.741  21.416  -5.319  0.00  0.00    -0.029 A 
ATOM     12  C12 NON d   1     -38.446  20.845  -6.443  0.00  0.00    -0.002 A 
ATOM     13  C13 NON d   1     -38.765  19.536  -6.861  0.00  0.00     0.014 A 
ATOM     14  C17 NON d   1     -38.891  21.902  -7.249  0.00  0.00     0.042 A 
ATOM     15  C14 NON d   1     -39.496  19.338  -8.046  0.00  0.00     0.001 A 
ATOM     16  C15 NON d   1     -39.925  20.418  -8.813  0.00  0.00     0.002 A 
ATOM     17  C16 NON d   1     -39.631  21.726  -8.429  0.00  0.00     0.030 A 
ATOM     18  N3  NON d   1     -38.470  23.065  -6.658  0.00  0.00    -0.365 N 
ATOM     19  C18 NON d   1     -37.763  22.788  -5.524  0.00  0.00     0.096 A 
ATOM     20  H17 NON d   1     -38.657  23.992  -7.015  0.00  0.00     0.165 HD
ENDBRANCH  10  11
ENDBRANCH   9  10
ENDBRANCH   5   9
BRANCH   6  21
ATOM     21  C19 NON d   1     -40.616  21.890  -3.557  0.00  0.00     0.049 C 
ATOM     22  C20 NON d   1     -39.968  22.335  -2.402  0.00  0.00     0.030 C 
ATOM     23  C21 NON d   1     -39.753  23.701  -2.185  0.00  0.00     0.002 C 
ATOM     24  C22 NON d   1     -40.106  24.628  -3.164  0.00  0.00     0.000 C 
ATOM     25  C23 NON d   1     -40.646  24.187  -4.368  0.00  0.00     0.002 C 
ATOM     26  C24 NON d   1     -40.893  22.829  -4.562  0.00  0.00     0.030 C 
ENDBRANCH   6  21
BRANCH   1  27
ATOM     27  C6  NON d   1     -43.186  17.094  -5.102  0.00  0.00     0.142 C 
BRANCH  27  28
ATOM     28  C5  NON d   1     -44.632  16.839  -4.670  0.00  0.00    -0.047 A 
ATOM     29  C4  NON d   1     -45.046  17.384  -3.443  0.00  0.00     0.010 A 
ATOM     30  C3  NON d   1     -46.366  17.255  -2.993  0.00  0.00     0.040 A 
ATOM     31  C2  NON d   1     -47.339  16.590  -3.748  0.00  0.00     0.101 A 
ATOM     32  C26 NON d   1     -46.945  16.026  -4.965  0.00  0.00     0.102 A 
ATOM     33  C25 NON d   1     -45.616  16.181  -5.432  0.00  0.00     0.047 A 
BRANCH  31  34
ATOM     34  O1  NON d   1     -48.562  16.589  -3.142  0.00  0.00    -0.353 OA
ATOM     35  C1  NON d   1     -48.659  16.733  -1.732  0.00  0.00     0.210 C 
ENDBRANCH  31  34
BRANCH  32  36
ATOM     36  O3  NON d   1     -47.815  15.385  -5.810  0.00  0.00    -0.353 OA
ATOM     37  C27 NON d   1     -49.008  14.964  -5.145  0.00  0.00     0.210 C 
ENDBRANCH  32  36
ENDBRANCH  27  28
ENDBRANCH   1  27
TORSDOF 8
ENDMDL
MODEL 7
REMARK VINA RESULT:   -10.274      2.001      3.921
REMARK INTER + INTRA:         -14.770
REMARK INTER:                 -12.661
REMARK INTRA:                  -2.110
REMARK CONF_INDEPENDENT:        2.386
REMARK UNBOUND:                -2.110
REMARK  8 active torsions:
REMARK  status: ('A' for Active; 'I' for Inactive)
REMARK    1  A    between atoms: O1_2  and  C2_3 
REMARK    2  A    between atoms: C5_6  and  C6_7 
REMARK    3  A    between atoms: C6_7  and  C7_8 
REMARK       I    between atoms: C7_8  and  N1_10 
REMARK       I    between atoms: N1_10  and  C8_11 
REMARK       I    between atoms: C8_11  and  N4_24 
REMARK    4  A    between atoms: N2_12  and  C9_13 
REMARK    5  A    between atoms: C9_13  and  C10_14 
REMARK    6  A    between atoms: C10_14  and  C11_15 
REMARK    7  A    between atoms: N4_24  and  C19_25 
REMARK    8  A    between atoms: C26_32  and  O3_33 
ROOT
ATOM      1  C7  NON d   1     -41.184  18.598  -2.134  0.00  0.00     0.240 C 
ATOM      2  O2  NON d   1     -41.363  18.680  -0.919  0.00  0.00    -0.272 OA
ATOM      3  N1  NON d   1     -40.538  19.626  -2.846  0.00  0.00    -0.158 N 
ATOM      4  C8  NON d   1     -39.819  20.701  -2.310  0.00  0.00     0.702 C 
ATOM      5  N2  NON d   1     -39.235  21.416  -3.222  0.00  0.00    -0.107 NA
ATOM      6  N4  NON d   1     -39.796  20.727  -0.936  0.00  0.00    -0.190 N 
ATOM      7  H8  NON d   1     -40.454  19.566  -3.851  0.00  0.00     0.187 HD
ATOM      8  H19 NON d   1     -40.320  19.963  -0.501  0.00  0.00     0.184 HD
ENDROOT
BRANCH   5   9
ATOM      9  C9  NON d   1     -38.277  22.441  -2.763  0.00  0.00     0.173 C 
BRANCH   9  10
ATOM     10  C10 NON d   1     -38.315  23.811  -3.475  0.00  0.00     0.063 C 
BRANCH  10  11
ATOM     11  C11 NON d   1     -39.444  24.697  -2.934  0.00  0.00    -0.029 A 
ATOM     12  C12 NON d   1     -39.473  25.473  -1.716  0.00  0.00    -0.002 A 
ATOM     13  C13 NON d   1     -38.585  25.674  -0.638  0.00  0.00     0.014 A 
ATOM     14  C17 NON d   1     -40.693  26.165  -1.679  0.00  0.00     0.042 A 
ATOM     15  C14 NON d   1     -38.945  26.534   0.414  0.00  0.00     0.001 A 
ATOM     16  C15 NON d   1     -40.164  27.206   0.407  0.00  0.00     0.002 A 
ATOM     17  C16 NON d   1     -41.065  27.036  -0.643  0.00  0.00     0.030 A 
ATOM     18  N3  NON d   1     -41.386  25.821  -2.811  0.00  0.00    -0.365 N 
ATOM     19  C18 NON d   1     -40.665  24.929  -3.551  0.00  0.00     0.096 A 
ATOM     20  H17 NON d   1     -42.299  26.178  -3.057  0.00  0.00     0.165 HD
ENDBRANCH  10  11
ENDBRANCH   9  10
ENDBRANCH   5   9
BRANCH   6  21
ATOM     21  C19 NON d   1     -39.498  21.701   0.028  0.00  0.00     0.049 C 
ATOM     22  C20 NON d   1     -38.275  21.811   0.693  0.00  0.00     0.030 C 
ATOM     23  C21 NON d   1     -38.109  22.729   1.737  0.00  0.00     0.002 C 
ATOM     24  C22 NON d   1     -39.141  23.606   2.066  0.00  0.00     0.000 C 
ATOM     25  C23 NON d   1     -40.324  23.584   1.335  0.00  0.00     0.002 C 
ATOM     26  C24 NON d   1     -40.496  22.642   0.321  0.00  0.00     0.030 C 
ENDBRANCH   6  21
BRANCH   1  27
ATOM     27  C6  NON d   1     -41.640  17.418  -2.982  0.00  0.00     0.142 C 
BRANCH  27  28
ATOM     28  C5  NON d   1     -43.038  17.429  -3.607  0.00  0.00    -0.047 A 
ATOM     29  C4  NON d   1     -43.223  18.212  -4.758  0.00  0.00     0.010 A 
ATOM     30  C3  NON d   1     -44.450  18.239  -5.435  0.00  0.00     0.040 A 
ATOM     31  C2  NON d   1     -45.542  17.477  -5.007  0.00  0.00     0.101 A 
ATOM     32  C26 NON d   1     -45.384  16.702  -3.854  0.00  0.00     0.102 A 
ATOM     33  C25 NON d   1     -44.135  16.655  -3.186  0.00  0.00     0.047 A 
BRANCH  31  34
ATOM     34  O1  NON d   1     -46.635  17.630  -5.810  0.00  0.00    -0.353 OA
ATOM     35  C1  NON d   1     -47.662  16.648  -5.810  0.00  0.00     0.210 C 
ENDBRANCH  31  34
BRANCH  32  36
ATOM     36  O3  NON d   1     -46.368  15.884  -3.359  0.00  0.00    -0.353 OA
ATOM     37  C27 NON d   1     -47.442  16.621  -2.770  0.00  0.00     0.210 C 
ENDBRANCH  32  36
ENDBRANCH  27  28
ENDBRANCH   1  27
TORSDOF 8
ENDMDL
MODEL 8
REMARK VINA RESULT:   -10.216      2.804      4.300
REMARK INTER + INTRA:         -14.904
REMARK INTER:                 -12.603
REMARK INTRA:                  -2.302
REMARK CONF_INDEPENDENT:        2.386
REMARK UNBOUND:                -2.302
REMARK  8 active torsions:
REMARK  status: ('A' for Active; 'I' for Inactive)
REMARK    1  A    between atoms: O1_2  and  C2_3 
REMARK    2  A    between atoms: C5_6  and  C6_7 
REMARK    3  A    between atoms: C6_7  and  C7_8 
REMARK       I    between atoms: C7_8  and  N1_10 
REMARK       I    between atoms: N1_10  and  C8_11 
REMARK       I    between atoms: C8_11  and  N4_24 
REMARK    4  A    between atoms: N2_12  and  C9_13 
REMARK    5  A    between atoms: C9_13  and  C10_14 
REMARK    6  A    between atoms: C10_14  and  C11_15 
REMARK    7  A    between atoms: N4_24  and  C19_25 
REMARK    8  A    between atoms: C26_32  and  O3_33 
ROOT
ATOM      1  C7  NON d   1     -45.738  16.810  -5.299  0.00  0.00     0.240 C 
ATOM      2  O2  NON d   1     -45.580  17.649  -6.184  0.00  0.00    -0.272 OA
ATOM      3  N1  NON d   1     -44.734  16.559  -4.344  0.00  0.00    -0.158 N 
ATOM      4  C8  NON d   1     -43.594  17.332  -4.097  0.00  0.00     0.702 C 
ATOM      5  N2  NON d   1     -42.919  16.913  -3.070  0.00  0.00    -0.107 NA
ATOM      6  N4  NON d   1     -43.471  18.426  -4.920  0.00  0.00    -0.190 N 
ATOM      7  H8  NON d   1     -44.861  15.825  -3.662  0.00  0.00     0.187 HD
ATOM      8  H19 NON d   1     -44.225  18.510  -5.607  0.00  0.00     0.184 HD
ENDROOT
BRANCH   5   9
ATOM      9  C9  NON d   1     -41.822  17.775  -2.587  0.00  0.00     0.173 C 
BRANCH   9  10
ATOM     10  C10 NON d   1     -40.381  17.258  -2.781  0.00  0.00     0.063 C 
BRANCH  10  11
ATOM     11  C11 NON d   1     -39.394  18.410  -3.009  0.00  0.00    -0.029 A 
ATOM     12  C12 NON d   1     -39.346  19.696  -2.352  0.00  0.00    -0.002 A 
ATOM     13  C13 NON d   1     -40.126  20.347  -1.374  0.00  0.00     0.014 A 
ATOM     14  C17 NON d   1     -38.233  20.389  -2.850  0.00  0.00     0.042 A 
ATOM     15  C14 NON d   1     -39.776  21.640  -0.945  0.00  0.00     0.001 A 
ATOM     16  C15 NON d   1     -38.658  22.289  -1.462  0.00  0.00     0.002 A 
ATOM     17  C16 NON d   1     -37.861  21.674  -2.428  0.00  0.00     0.030 A 
ATOM     18  N3  NON d   1     -37.634  19.576  -3.777  0.00  0.00    -0.365 N 
ATOM     19  C18 NON d   1     -38.330  18.408  -3.899  0.00  0.00     0.096 A 
ATOM     20  H17 NON d   1     -36.798  19.812  -4.295  0.00  0.00     0.165 HD
ENDBRANCH  10  11
ENDBRANCH   9  10
ENDBRANCH   5   9
BRANCH   6  21
ATOM     21  C19 NON d   1     -42.420  19.286  -5.269  0.00  0.00     0.049 C 
ATOM     22  C20 NON d   1     -41.618  19.138  -6.404  0.00  0.00     0.030 C 
ATOM     23  C21 NON d   1     -40.506  19.965  -6.605  0.00  0.00     0.002 C 
ATOM     24  C22 NON d   1     -40.238  21.003  -5.715  0.00  0.00     0.000 C 
ATOM     25  C23 NON d   1     -41.095  21.233  -4.644  0.00  0.00     0.002 C 
ATOM     26  C24 NON d   1     -42.179  20.383  -4.429  0.00  0.00     0.030 C 
ENDBRANCH   6  21
BRANCH   1  27
ATOM     27  C6  NON d   1     -46.994  15.961  -5.148  0.00  0.00     0.142 C 
BRANCH  27  28
ATOM     28  C5  NON d   1     -47.923  16.190  -3.953  0.00  0.00    -0.047 A 
ATOM     29  C4  NON d   1     -47.404  16.903  -2.860  0.00  0.00     0.010 A 
ATOM     30  C3  NON d   1     -48.196  17.214  -1.747  0.00  0.00     0.040 A 
ATOM     31  C2  NON d   1     -49.544  16.844  -1.677  0.00  0.00     0.101 A 
ATOM     32  C26 NON d   1     -50.077  16.121  -2.748  0.00  0.00     0.102 A 
ATOM     33  C25 NON d   1     -49.282  15.830  -3.885  0.00  0.00     0.047 A 
BRANCH  31  34
ATOM     34  O1  NON d   1     -50.142  17.256  -0.521  0.00  0.00    -0.353 OA
ATOM     35  C1  NON d   1     -49.624  18.371   0.190  0.00  0.00     0.210 C 
ENDBRANCH  31  34
BRANCH  32  36
ATOM     36  O3  NON d   1     -51.393  15.736  -2.813  0.00  0.00    -0.353 OA
ATOM     37  C27 NON d   1     -52.285  16.785  -2.428  0.00  0.00     0.210 C 
ENDBRANCH  32  36
ENDBRANCH  27  28
ENDBRANCH   1  27
TORSDOF 8
ENDMDL
MODEL 9
REMARK VINA RESULT:   -10.205      1.451      2.866
REMARK INTER + INTRA:         -14.893
REMARK INTER:                 -12.591
REMARK INTRA:                  -2.302
REMARK CONF_INDEPENDENT:        2.386
REMARK UNBOUND:                -2.302
REMARK  8 active torsions:
REMARK  status: ('A' for Active; 'I' for Inactive)
REMARK    1  A    between atoms: O1_2  and  C2_3 
REMARK    2  A    between atoms: C5_6  and  C6_7 
REMARK    3  A    between atoms: C6_7  and  C7_8 
REMARK       I    between atoms: C7_8  and  N1_10 
REMARK       I    between atoms: N1_10  and  C8_11 
REMARK       I    between atoms: C8_11  and  N4_24 
REMARK    4  A    between atoms: N2_12  and  C9_13 
REMARK    5  A    between atoms: C9_13  and  C10_14 
REMARK    6  A    between atoms: C10_14  and  C11_15 
REMARK    7  A    between atoms: N4_24  and  C19_25 
REMARK    8  A    between atoms: C26_32  and  O3_33 
ROOT
ATOM      1  C7  NON d   1     -42.218  17.810  -4.107  0.00  0.00     0.240 C 
ATOM      2  O2  NON d   1     -41.708  17.481  -3.037  0.00  0.00    -0.272 OA
ATOM      3  N1  NON d   1     -42.025  19.098  -4.641  0.00  0.00    -0.158 N 
ATOM      4  C8  NON d   1     -41.093  20.054  -4.221  0.00  0.00     0.702 C 
ATOM      5  N2  NON d   1     -41.071  21.101  -4.989  0.00  0.00    -0.107 NA
ATOM      6  N4  NON d   1     -40.328  19.656  -3.151  0.00  0.00    -0.190 N 
ATOM      7  H8  NON d   1     -42.500  19.366  -5.491  0.00  0.00     0.187 HD
ATOM      8  H19 NON d   1     -40.560  18.722  -2.804  0.00  0.00     0.184 HD
ENDROOT
BRANCH   5   9
ATOM      9  C9  NON d   1     -39.982  22.073  -4.771  0.00  0.00     0.173 C 
BRANCH   9  10
ATOM     10  C10 NON d   1     -40.362  23.569  -4.765  0.00  0.00     0.063 C 
BRANCH  10  11
ATOM     11  C11 NON d   1     -39.846  24.278  -3.506  0.00  0.00    -0.029 A 
ATOM     12  C12 NON d   1     -40.356  24.201  -2.157  0.00  0.00    -0.002 A 
ATOM     13  C13 NON d   1     -41.440  23.545  -1.536  0.00  0.00     0.014 A 
ATOM     14  C17 NON d   1     -39.521  24.974  -1.339  0.00  0.00     0.042 A 
ATOM     15  C14 NON d   1     -41.646  23.689  -0.153  0.00  0.00     0.001 A 
ATOM     16  C15 NON d   1     -40.787  24.462   0.624  0.00  0.00     0.002 A 
ATOM     17  C16 NON d   1     -39.703  25.122   0.045  0.00  0.00     0.030 A 
ATOM     18  N3  NON d   1     -38.551  25.511  -2.145  0.00  0.00    -0.365 N 
ATOM     19  C18 NON d   1     -38.749  25.126  -3.440  0.00  0.00     0.096 A 
ATOM     20  H17 NON d   1     -37.801  26.108  -1.824  0.00  0.00     0.165 HD
ENDBRANCH  10  11
ENDBRANCH   9  10
ENDBRANCH   5   9
BRANCH   6  21
ATOM     21  C19 NON d   1     -39.522  20.318  -2.213  0.00  0.00     0.049 C 
ATOM     22  C20 NON d   1     -39.923  20.649  -0.917  0.00  0.00     0.030 C 
ATOM     23  C21 NON d   1     -39.102  21.428  -0.092  0.00  0.00     0.002 C 
ATOM     24  C22 NON d   1     -37.834  21.808  -0.528  0.00  0.00     0.000 C 
ATOM     25  C23 NON d   1     -37.377  21.386  -1.772  0.00  0.00     0.002 C 
ATOM     26  C24 NON d   1     -38.214  20.643  -2.604  0.00  0.00     0.030 C 
ENDBRANCH   6  21
BRANCH   1  27
ATOM     27  C6  NON d   1     -43.101  16.893  -4.943  0.00  0.00     0.142 C 
BRANCH  27  28
ATOM     28  C5  NON d   1     -44.586  16.750  -4.596  0.00  0.00    -0.047 A 
ATOM     29  C4  NON d   1     -45.017  17.284  -3.371  0.00  0.00     0.010 A 
ATOM     30  C3  NON d   1     -46.366  17.255  -2.994  0.00  0.00     0.040 A 
ATOM     31  C2  NON d   1     -47.350  16.707  -3.825  0.00  0.00     0.101 A 
ATOM     32  C26 NON d   1     -46.941  16.155  -5.043  0.00  0.00     0.102 A 
ATOM     33  C25 NON d   1     -45.580  16.210  -5.435  0.00  0.00     0.047 A 
BRANCH  31  34
ATOM     34  O1  NON d   1     -48.600  16.791  -3.283  0.00  0.00    -0.353 OA
ATOM     35  C1  NON d   1     -48.892  16.130  -2.060  0.00  0.00     0.210 C 
ENDBRANCH  31  34
BRANCH  32  36
ATOM     36  O3  NON d   1     -47.815  15.625  -5.957  0.00  0.00    -0.353 OA
ATOM     37  C27 NON d   1     -48.940  15.001  -5.335  0.00  0.00     0.210 C 
ENDBRANCH  32  36
ENDBRANCH  27  28
ENDBRANCH   1  27
TORSDOF 8
ENDMDL
