MODEL 1
REMARK VINA RESULT:   -28.367      0.000      0.000
REMARK INTER + INTRA:         -29.968
REMARK INTER:                 -29.858
REMARK INTRA:                  -0.110
REMARK CONF_INDEPENDENT:        1.492
REMARK UNBOUND:                -0.110
REMARK  5 active torsions:
REMARK  status: ('A' for Active; 'I' for Inactive)
REMARK    1  A    between atoms: C3_4  and  N2_5 
REMARK    2  A    between atoms: C6_9  and  N4_10 
REMARK    3  A    between atoms: N4_10  and  C7_11 
REMARK    4  A    between atoms: C7_11  and  C8_12 
REMARK    5  A    between atoms: C8_12  and  C9_13 
ROOT
ATOM      1  N4  NON d   1     -42.919  18.252  -4.229  0.00  0.00    -0.373 N 
ATOM      2  H11 NON d   1     -43.069  18.191  -3.220  0.00  0.00     0.161 HD
ENDROOT
BRANCH   1   3
ATOM      3  C6  NON d   1     -41.560  18.520  -4.436  0.00  0.00     0.150 A 
ATOM      4  N3  NON d   1     -41.292  18.908  -5.744  0.00  0.00    -0.047 NA
ATOM      5  C3  NON d   1     -40.001  19.140  -6.183  0.00  0.00     0.703 A 
ATOM      6  N1  NON d   1     -39.006  19.029  -5.148  0.00  0.00    -0.193 N 
ATOM      7  C2  NON d   1     -39.226  18.661  -3.735  0.00  0.00     0.032 A 
ATOM      8  H4  NON d   1     -38.057  19.228  -5.441  0.00  0.00     0.184 HD
ATOM      9  C1  NON d   1     -38.075  18.469  -2.731  0.00  0.00     0.069 C 
ATOM     10  C17 NON d   1     -40.562  18.335  -3.433  0.00  0.00     0.007 A 
ATOM     11  C18 NON d   1     -40.841  17.789  -2.053  0.00  0.00     0.054 C 
BRANCH   5  12
ATOM     12  N2  NON d   1     -39.759  19.500  -7.686  0.00  0.00    -0.225 N 
ATOM     13  C4  NON d   1     -38.962  18.557  -8.440  0.00  0.00     0.168 C 
ATOM     14  C5  NON d   1     -40.546  20.607  -8.413  0.00  0.00     0.168 C 
ENDBRANCH   5  12
ENDBRANCH   1   3
BRANCH   1  15
ATOM     15  C7  NON d   1     -43.711  17.315  -5.044  0.00  0.00     0.129 C 
BRANCH  15  16
ATOM     16  C8  NON d   1     -45.075  17.849  -5.467  0.00  0.00     0.098 C 
BRANCH  16  17
ATOM     17  C9  NON d   1     -46.286  17.255  -4.767  0.00  0.00     0.108 A 
ATOM     18  N5  NON d   1     -47.103  16.505  -5.435  0.00  0.00    -0.234 NA
ATOM     19  C10 NON d   1     -48.154  15.875  -4.741  0.00  0.00     0.074 A 
ATOM     20  C11 NON d   1     -49.013  15.021  -5.435  0.00  0.00     0.032 A 
ATOM     21  C15 NON d   1     -48.349  16.045  -3.369  0.00  0.00     0.061 A 
ATOM     22  C12 NON d   1     -50.036  14.336  -4.766  0.00  0.00     0.002 A 
ATOM     23  C13 NON d   1     -50.212  14.507  -3.392  0.00  0.00     0.001 A 
ATOM     24  C14 NON d   1     -49.371  15.373  -2.688  0.00  0.00     0.019 A 
ATOM     25  C16 NON d   1     -47.420  16.945  -2.666  0.00  0.00     0.259 A 
ATOM     26  O1  NON d   1     -47.532  17.203  -1.473  0.00  0.00    -0.267 OA
ATOM     27  N6  NON d   1     -46.412  17.482  -3.426  0.00  0.00    -0.311 N 
ATOM     28  H20 NON d   1     -45.778  18.098  -2.937  0.00  0.00     0.170 HD
ENDBRANCH  16  17
ENDBRANCH  15  16
ENDBRANCH   1  15
TORSDOF 5
ENDMDL
MODEL 2
REMARK VINA RESULT:   -27.710      1.005      2.989
REMARK INTER + INTRA:         -29.264
REMARK INTER:                 -29.202
REMARK INTRA:                  -0.062
REMARK CONF_INDEPENDENT:        1.492
REMARK UNBOUND:                -0.062
REMARK  5 active torsions:
REMARK  status: ('A' for Active; 'I' for Inactive)
REMARK    1  A    between atoms: C3_4  and  N2_5 
REMARK    2  A    between atoms: C6_9  and  N4_10 
REMARK    3  A    between atoms: N4_10  and  C7_11 
REMARK    4  A    between atoms: C7_11  and  C8_12 
REMARK    5  A    between atoms: C8_12  and  C9_13 
ROOT
ATOM      1  N4  NON d   1     -42.922  19.088  -5.096  0.00  0.00    -0.373 N 
ATOM      2  H11 NON d   1     -43.143  20.018  -4.735  0.00  0.00     0.161 HD
ENDROOT
BRANCH   1   3
ATOM      3  C6  NON d   1     -41.527  18.984  -5.161  0.00  0.00     0.150 A 
ATOM      4  N3  NON d   1     -40.992  18.355  -4.042  0.00  0.00    -0.047 NA
ATOM      5  C3  NON d   1     -39.627  18.224  -3.865  0.00  0.00     0.703 A 
ATOM      6  N1  NON d   1     -38.847  18.711  -4.974  0.00  0.00    -0.193 N 
ATOM      7  C2  NON d   1     -39.352  19.351  -6.205  0.00  0.00     0.032 A 
ATOM      8  H4  NON d   1     -37.846  18.593  -4.879  0.00  0.00     0.184 HD
ATOM      9  C1  NON d   1     -38.423  19.932  -7.287  0.00  0.00     0.069 C 
ATOM     10  C17 NON d   1     -40.747  19.535  -6.221  0.00  0.00     0.007 A 
ATOM     11  C18 NON d   1     -41.322  20.331  -7.368  0.00  0.00     0.054 C 
BRANCH   5  12
ATOM     12  N2  NON d   1     -39.087  17.574  -2.548  0.00  0.00    -0.225 N 
ATOM     13  C4  NON d   1     -40.084  16.978  -1.685  0.00  0.00     0.168 C 
ATOM     14  C5  NON d   1     -37.590  17.306  -2.306  0.00  0.00     0.168 C 
ENDBRANCH   5  12
ENDBRANCH   1   3
BRANCH   1  15
ATOM     15  C7  NON d   1     -43.813  18.005  -4.643  0.00  0.00     0.129 C 
BRANCH  15  16
ATOM     16  C8  NON d   1     -45.081  17.847  -5.474  0.00  0.00     0.098 C 
BRANCH  16  17
ATOM     17  C9  NON d   1     -46.286  17.248  -4.768  0.00  0.00     0.108 A 
ATOM     18  N5  NON d   1     -47.111  16.505  -5.436  0.00  0.00    -0.234 NA
ATOM     19  C10 NON d   1     -48.156  15.871  -4.738  0.00  0.00     0.074 A 
ATOM     20  C11 NON d   1     -49.023  15.024  -5.433  0.00  0.00     0.032 A 
ATOM     21  C15 NON d   1     -48.339  16.027  -3.363  0.00  0.00     0.061 A 
ATOM     22  C12 NON d   1     -50.041  14.334  -4.761  0.00  0.00     0.002 A 
ATOM     23  C13 NON d   1     -50.204  14.493  -3.384  0.00  0.00     0.001 A 
ATOM     24  C14 NON d   1     -49.355  15.351  -2.679  0.00  0.00     0.019 A 
ATOM     25  C16 NON d   1     -47.402  16.920  -2.660  0.00  0.00     0.259 A 
ATOM     26  O1  NON d   1     -47.503  17.167  -1.464  0.00  0.00    -0.267 OA
ATOM     27  N6  NON d   1     -46.400  17.462  -3.424  0.00  0.00    -0.311 N 
ATOM     28  H20 NON d   1     -45.760  18.073  -2.935  0.00  0.00     0.170 HD
ENDBRANCH  16  17
ENDBRANCH  15  16
ENDBRANCH   1  15
TORSDOF 5
ENDMDL
MODEL 3
REMARK VINA RESULT:   -26.875      1.467      1.533
REMARK INTER + INTRA:         -28.309
REMARK INTER:                 -28.367
REMARK INTRA:                   0.058
REMARK CONF_INDEPENDENT:        1.492
REMARK UNBOUND:                 0.058
REMARK  5 active torsions:
REMARK  status: ('A' for Active; 'I' for Inactive)
REMARK    1  A    between atoms: C3_4  and  N2_5 
REMARK    2  A    between atoms: C6_9  and  N4_10 
REMARK    3  A    between atoms: N4_10  and  C7_11 
REMARK    4  A    between atoms: C7_11  and  C8_12 
REMARK    5  A    between atoms: C8_12  and  C9_13 
ROOT
ATOM      1  N4  NON d   1     -42.741  18.642  -5.421  0.00  0.00    -0.373 N 
ATOM      2  H11 NON d   1     -42.939  18.945  -6.377  0.00  0.00     0.161 HD
ENDROOT
BRANCH   1   3
ATOM      3  C6  NON d   1     -41.758  19.496  -4.906  0.00  0.00     0.150 A 
ATOM      4  N3  NON d   1     -41.233  20.341  -5.878  0.00  0.00    -0.047 NA
ATOM      5  C3  NON d   1     -40.191  21.208  -5.600  0.00  0.00     0.703 A 
ATOM      6  N1  NON d   1     -39.784  21.206  -4.219  0.00  0.00    -0.193 N 
ATOM      7  C2  NON d   1     -40.325  20.365  -3.132  0.00  0.00     0.032 A 
ATOM      8  H4  NON d   1     -39.045  21.858  -3.988  0.00  0.00     0.184 HD
ATOM      9  C1  NON d   1     -39.745  20.367  -1.706  0.00  0.00     0.069 C 
ATOM     10  C17 NON d   1     -41.298  19.442  -3.557  0.00  0.00     0.007 A 
ATOM     11  C18 NON d   1     -41.779  18.435  -2.540  0.00  0.00     0.054 C 
BRANCH   5  12
ATOM     12  N2  NON d   1     -39.594  22.078  -6.756  0.00  0.00    -0.225 N 
ATOM     13  C4  NON d   1     -38.866  21.356  -7.777  0.00  0.00     0.168 C 
ATOM     14  C5  NON d   1     -39.991  23.549  -6.979  0.00  0.00     0.168 C 
ENDBRANCH   5  12
ENDBRANCH   1   3
BRANCH   1  15
ATOM     15  C7  NON d   1     -43.904  18.162  -4.655  0.00  0.00     0.129 C 
BRANCH  15  16
ATOM     16  C8  NON d   1     -45.135  17.864  -5.504  0.00  0.00     0.098 C 
BRANCH  16  17
ATOM     17  C9  NON d   1     -46.325  17.250  -4.785  0.00  0.00     0.108 A 
ATOM     18  N5  NON d   1     -47.153  16.505  -5.446  0.00  0.00    -0.234 NA
ATOM     19  C10 NON d   1     -48.183  15.857  -4.738  0.00  0.00     0.074 A 
ATOM     20  C11 NON d   1     -49.053  15.008  -5.426  0.00  0.00     0.032 A 
ATOM     21  C15 NON d   1     -48.347  16.003  -3.360  0.00  0.00     0.061 A 
ATOM     22  C12 NON d   1     -50.055  14.305  -4.744  0.00  0.00     0.002 A 
ATOM     23  C13 NON d   1     -50.199  14.453  -3.364  0.00  0.00     0.001 A 
ATOM     24  C14 NON d   1     -49.348  15.314  -2.665  0.00  0.00     0.019 A 
ATOM     25  C16 NON d   1     -47.408  16.899  -2.664  0.00  0.00     0.259 A 
ATOM     26  O1  NON d   1     -47.494  17.137  -1.464  0.00  0.00    -0.267 OA
ATOM     27  N6  NON d   1     -46.422  17.455  -3.439  0.00  0.00    -0.311 N 
ATOM     28  H20 NON d   1     -45.780  18.068  -2.954  0.00  0.00     0.170 HD
ENDBRANCH  16  17
ENDBRANCH  15  16
ENDBRANCH   1  15
TORSDOF 5
ENDMDL
MODEL 4
REMARK VINA RESULT:   -26.551      1.629      1.877
REMARK INTER + INTRA:         -28.076
REMARK INTER:                 -28.042
REMARK INTRA:                  -0.034
REMARK CONF_INDEPENDENT:        1.492
REMARK UNBOUND:                -0.034
REMARK  5 active torsions:
REMARK  status: ('A' for Active; 'I' for Inactive)
REMARK    1  A    between atoms: C3_4  and  N2_5 
REMARK    2  A    between atoms: C6_9  and  N4_10 
REMARK    3  A    between atoms: N4_10  and  C7_11 
REMARK    4  A    between atoms: C7_11  and  C8_12 
REMARK    5  A    between atoms: C8_12  and  C9_13 
ROOT
ATOM      1  N4  NON d   1     -42.628  18.502  -5.349  0.00  0.00    -0.373 N 
ATOM      2  H11 NON d   1     -42.835  18.930  -6.253  0.00  0.00     0.161 HD
ENDROOT
BRANCH   1   3
ATOM      3  C6  NON d   1     -41.575  19.225  -4.775  0.00  0.00     0.150 A 
ATOM      4  N3  NON d   1     -41.432  20.487  -5.341  0.00  0.00    -0.047 NA
ATOM      5  C3  NON d   1     -40.400  21.334  -4.977  0.00  0.00     0.703 A 
ATOM      6  N1  NON d   1     -39.572  20.820  -3.917  0.00  0.00    -0.193 N 
ATOM      7  C2  NON d   1     -39.693  19.511  -3.247  0.00  0.00     0.032 A 
ATOM      8  H4  NON d   1     -38.832  21.440  -3.612  0.00  0.00     0.184 HD
ATOM      9  C1  NON d   1     -38.687  19.014  -2.191  0.00  0.00     0.069 C 
ATOM     10  C17 NON d   1     -40.705  18.689  -3.780  0.00  0.00     0.007 A 
ATOM     11  C18 NON d   1     -40.783  17.273  -3.261  0.00  0.00     0.054 C 
BRANCH   5  12
ATOM     12  N2  NON d   1     -40.250  22.711  -5.706  0.00  0.00    -0.225 N 
ATOM     13  C4  NON d   1     -40.897  23.836  -5.067  0.00  0.00     0.168 C 
ATOM     14  C5  NON d   1     -39.246  22.940  -6.851  0.00  0.00     0.168 C 
ENDBRANCH   5  12
ENDBRANCH   1   3
BRANCH   1  15
ATOM     15  C7  NON d   1     -43.795  18.005  -4.601  0.00  0.00     0.129 C 
BRANCH  15  16
ATOM     16  C8  NON d   1     -45.070  17.893  -5.430  0.00  0.00     0.098 C 
BRANCH  16  17
ATOM     17  C9  NON d   1     -46.271  17.260  -4.748  0.00  0.00     0.108 A 
ATOM     18  N5  NON d   1     -47.068  16.505  -5.435  0.00  0.00    -0.234 NA
ATOM     19  C10 NON d   1     -48.109  15.840  -4.760  0.00  0.00     0.074 A 
ATOM     20  C11 NON d   1     -48.946  14.979  -5.475  0.00  0.00     0.032 A 
ATOM     21  C15 NON d   1     -48.316  15.979  -3.387  0.00  0.00     0.061 A 
ATOM     22  C12 NON d   1     -49.957  14.260  -4.825  0.00  0.00     0.002 A 
ATOM     23  C13 NON d   1     -50.144  14.402  -3.450  0.00  0.00     0.001 A 
ATOM     24  C14 NON d   1     -49.326  15.273  -2.724  0.00  0.00     0.019 A 
ATOM     25  C16 NON d   1     -47.411  16.887  -2.661  0.00  0.00     0.259 A 
ATOM     26  O1  NON d   1     -47.536  17.120  -1.464  0.00  0.00    -0.267 OA
ATOM     27  N6  NON d   1     -46.411  17.459  -3.405  0.00  0.00    -0.311 N 
ATOM     28  H20 NON d   1     -45.793  18.080  -2.900  0.00  0.00     0.170 HD
ENDBRANCH  16  17
ENDBRANCH  15  16
ENDBRANCH   1  15
TORSDOF 5
ENDMDL
