MODEL 1
REMARK VINA RESULT:    -6.941      0.000      0.000
REMARK INTER + INTRA:          -9.561
REMARK INTER:                  -8.433
REMARK INTRA:                  -1.128
REMARK CONF_INDEPENDENT:        1.492
REMARK UNBOUND:                -1.128
REMARK  5 active torsions:
REMARK  status: ('A' for Active; 'I' for Inactive)
REMARK    1  A    between atoms: C2_2  and  O1_3 
REMARK    2  A    between atoms: O1_3  and  C3_4 
REMARK    3  A    between atoms: C6_7  and  C5_6 
REMARK    4  A    between atoms: C8_9  and  C9_10 
REMARK    5  A    between atoms: C21_26  and  O3_27 
ROOT
ATOM      1  C6  NON d   1     -38.738  18.380  -4.809  0.00  0.00     0.158 A 
ATOM      2  C7  NON d   1     -39.639  18.806  -3.707  0.00  0.00     0.034 A 
ATOM      3  C8  NON d   1     -40.950  18.769  -3.199  0.00  0.00     0.098 A 
ATOM      4  N1  NON d   1     -40.980  19.273  -1.942  0.00  0.00    -0.173 NA
ATOM      5  N2  NON d   1     -39.712  19.662  -1.685  0.00  0.00    -0.272 N 
ATOM      6  C16 NON d   1     -38.904  19.408  -2.723  0.00  0.00     0.129 A 
ATOM      7  C17 NON d   1     -37.536  19.536  -3.049  0.00  0.00     0.273 A 
ATOM      8  O2  NON d   1     -36.646  20.019  -2.368  0.00  0.00    -0.266 OA
ATOM      9  N3  NON d   1     -37.450  18.968  -4.325  0.00  0.00    -0.338 N 
ATOM     10  C18 NON d   1     -36.190  18.784  -5.007  0.00  0.00     0.154 C 
ATOM     11  H15 NON d   1     -39.488  20.061  -0.779  0.00  0.00     0.189 HD
ENDROOT
BRANCH   1  12
ATOM     12  C5  NON d   1     -39.252  18.857  -6.143  0.00  0.00    -0.028 A 
ATOM     13  C4  NON d   1     -38.381  18.829  -7.251  0.00  0.00     0.049 A 
ATOM     14  C3  NON d   1     -38.746  19.331  -8.508  0.00  0.00     0.102 A 
ATOM     15  C21 NON d   1     -39.974  19.978  -8.634  0.00  0.00     0.099 A 
ATOM     16  C20 NON d   1     -40.869  19.996  -7.563  0.00  0.00     0.040 A 
ATOM     17  C19 NON d   1     -40.524  19.409  -6.340  0.00  0.00     0.012 A 
BRANCH  14  18
ATOM     18  O1  NON d   1     -37.797  19.134  -9.473  0.00  0.00    -0.349 OA
BRANCH  18  19
ATOM     19  C2  NON d   1     -36.512  19.716  -9.258  0.00  0.00     0.171 C 
ATOM     20  C1  NON d   1     -36.592  21.195  -9.600  0.00  0.00     0.034 C 
ENDBRANCH  18  19
ENDBRANCH  14  18
BRANCH  15  21
ATOM     21  O3  NON d   1     -40.313  20.630  -9.788  0.00  0.00    -0.358 OA
ATOM     22  H21 NON d   1     -40.707  21.488  -9.560  0.00  0.00     0.217 HD
ENDBRANCH  15  21
ENDBRANCH   1  12
BRANCH   3  23
ATOM     23  C9  NON d   1     -42.181  18.295  -3.810  0.00  0.00    -0.005 A 
ATOM     24  C10 NON d   1     -42.944  19.158  -4.601  0.00  0.00     0.014 A 
ATOM     25  C11 NON d   1     -44.158  18.732  -5.144  0.00  0.00     0.007 A 
ATOM     26  C12 NON d   1     -44.629  17.437  -4.901  0.00  0.00    -0.062 A 
ATOM     27  C13 NON d   1     -45.962  17.003  -5.435  0.00  0.00     0.048 C 
ATOM     28  C14 NON d   1     -43.877  16.582  -4.087  0.00  0.00     0.007 A 
ATOM     29  C15 NON d   1     -42.659  17.007  -3.544  0.00  0.00     0.014 A 
ENDBRANCH   3  23
TORSDOF 5
ENDMDL
MODEL 2
REMARK VINA RESULT:    -6.815      3.387      6.329
REMARK INTER + INTRA:          -9.843
REMARK INTER:                  -8.307
REMARK INTRA:                  -1.537
REMARK CONF_INDEPENDENT:        1.492
REMARK UNBOUND:                -1.537
REMARK  5 active torsions:
REMARK  status: ('A' for Active; 'I' for Inactive)
REMARK    1  A    between atoms: C2_2  and  O1_3 
REMARK    2  A    between atoms: O1_3  and  C3_4 
REMARK    3  A    between atoms: C6_7  and  C5_6 
REMARK    4  A    between atoms: C8_9  and  C9_10 
REMARK    5  A    between atoms: C21_26  and  O3_27 
ROOT
ATOM      1  C6  NON d   1     -39.780  19.658  -5.957  0.00  0.00     0.158 A 
ATOM      2  C7  NON d   1     -40.052  21.118  -5.893  0.00  0.00     0.034 A 
ATOM      3  C8  NON d   1     -40.192  22.237  -5.053  0.00  0.00     0.098 A 
ATOM      4  N1  NON d   1     -40.266  23.371  -5.791  0.00  0.00    -0.173 NA
ATOM      5  N2  NON d   1     -40.218  22.960  -7.077  0.00  0.00    -0.272 N 
ATOM      6  C16 NON d   1     -40.107  21.628  -7.161  0.00  0.00     0.129 A 
ATOM      7  C17 NON d   1     -39.979  20.643  -8.164  0.00  0.00     0.273 A 
ATOM      8  O2  NON d   1     -39.980  20.801  -9.374  0.00  0.00    -0.266 OA
ATOM      9  N3  NON d   1     -39.838  19.455  -7.438  0.00  0.00    -0.338 N 
ATOM     10  C18 NON d   1     -39.564  18.187  -8.075  0.00  0.00     0.154 C 
ATOM     11  H15 NON d   1     -40.242  23.651  -7.821  0.00  0.00     0.189 HD
ENDROOT
BRANCH   1  12
ATOM     12  C5  NON d   1     -40.766  18.886  -5.118  0.00  0.00    -0.028 A 
ATOM     13  C4  NON d   1     -42.103  18.801  -5.558  0.00  0.00     0.049 A 
ATOM     14  C3  NON d   1     -43.105  18.177  -4.801  0.00  0.00     0.102 A 
ATOM     15  C21 NON d   1     -42.787  17.722  -3.523  0.00  0.00     0.099 A 
ATOM     16  C20 NON d   1     -41.466  17.768  -3.072  0.00  0.00     0.040 A 
ATOM     17  C19 NON d   1     -40.460  18.313  -3.878  0.00  0.00     0.012 A 
BRANCH  14  18
ATOM     18  O1  NON d   1     -44.316  18.121  -5.435  0.00  0.00    -0.349 OA
BRANCH  18  19
ATOM     19  C2  NON d   1     -45.198  17.060  -5.070  0.00  0.00     0.171 C 
ATOM     20  C1  NON d   1     -46.512  17.255  -5.809  0.00  0.00     0.034 C 
ENDBRANCH  18  19
ENDBRANCH  14  18
BRANCH  15  21
ATOM     21  O3  NON d   1     -43.756  17.256  -2.677  0.00  0.00    -0.358 OA
ATOM     22  H21 NON d   1     -44.621  17.564  -2.990  0.00  0.00     0.217 HD
ENDBRANCH  15  21
ENDBRANCH   1  12
BRANCH   3  23
ATOM     23  C9  NON d   1     -40.263  22.320  -3.603  0.00  0.00    -0.005 A 
ATOM     24  C10 NON d   1     -41.016  23.331  -2.999  0.00  0.00     0.014 A 
ATOM     25  C11 NON d   1     -41.044  23.457  -1.609  0.00  0.00     0.007 A 
ATOM     26  C12 NON d   1     -40.315  22.577  -0.801  0.00  0.00    -0.062 A 
ATOM     27  C13 NON d   1     -40.298  22.753   0.688  0.00  0.00     0.048 C 
ATOM     28  C14 NON d   1     -39.541  21.581  -1.408  0.00  0.00     0.007 A 
ATOM     29  C15 NON d   1     -39.515  21.452  -2.801  0.00  0.00     0.014 A 
ENDBRANCH   3  23
TORSDOF 5
ENDMDL
MODEL 3
REMARK VINA RESULT:    -6.674      3.441      6.105
REMARK INTER + INTRA:          -9.432
REMARK INTER:                  -8.165
REMARK INTRA:                  -1.267
REMARK CONF_INDEPENDENT:        1.492
REMARK UNBOUND:                -1.267
REMARK  5 active torsions:
REMARK  status: ('A' for Active; 'I' for Inactive)
REMARK    1  A    between atoms: C2_2  and  O1_3 
REMARK    2  A    between atoms: O1_3  and  C3_4 
REMARK    3  A    between atoms: C6_7  and  C5_6 
REMARK    4  A    between atoms: C8_9  and  C9_10 
REMARK    5  A    between atoms: C21_26  and  O3_27 
ROOT
ATOM      1  C6  NON d   1     -40.374  22.235  -5.158  0.00  0.00     0.158 A 
ATOM      2  C7  NON d   1     -40.385  21.021  -6.015  0.00  0.00     0.034 A 
ATOM      3  C8  NON d   1     -41.033  19.806  -6.299  0.00  0.00     0.098 A 
ATOM      4  N1  NON d   1     -40.538  19.265  -7.438  0.00  0.00    -0.173 NA
ATOM      5  N2  NON d   1     -39.562  20.110  -7.836  0.00  0.00    -0.272 N 
ATOM      6  C16 NON d   1     -39.444  21.149  -6.999  0.00  0.00     0.129 A 
ATOM      7  C17 NON d   1     -38.678  22.330  -6.888  0.00  0.00     0.273 A 
ATOM      8  O2  NON d   1     -37.781  22.713  -7.622  0.00  0.00    -0.266 OA
ATOM      9  N3  NON d   1     -39.201  22.952  -5.750  0.00  0.00    -0.338 N 
ATOM     10  C18 NON d   1     -38.780  24.266  -5.323  0.00  0.00     0.154 C 
ATOM     11  H15 NON d   1     -39.053  19.913  -8.692  0.00  0.00     0.189 HD
ENDROOT
BRANCH   1  12
ATOM     12  C5  NON d   1     -40.289  21.867  -3.699  0.00  0.00    -0.028 A 
ATOM     13  C4  NON d   1     -40.344  22.897  -2.738  0.00  0.00     0.049 A 
ATOM     14  C3  NON d   1     -40.188  22.656  -1.367  0.00  0.00     0.102 A 
ATOM     15  C21 NON d   1     -39.859  21.367  -0.952  0.00  0.00     0.099 A 
ATOM     16  C20 NON d   1     -39.825  20.321  -1.876  0.00  0.00     0.040 A 
ATOM     17  C19 NON d   1     -40.074  20.564  -3.232  0.00  0.00     0.012 A 
BRANCH  14  18
ATOM     18  O1  NON d   1     -40.359  23.770  -0.591  0.00  0.00    -0.349 OA
BRANCH  18  19
ATOM     19  C2  NON d   1     -41.355  23.711   0.429  0.00  0.00     0.171 C 
ATOM     20  C1  NON d   1     -41.073  24.813   1.438  0.00  0.00     0.034 C 
ENDBRANCH  18  19
ENDBRANCH  14  18
BRANCH  15  21
ATOM     21  O3  NON d   1     -39.532  21.106   0.351  0.00  0.00    -0.358 OA
ATOM     22  H21 NON d   1     -39.068  20.255   0.395  0.00  0.00     0.217 HD
ENDBRANCH  15  21
ENDBRANCH   1  12
BRANCH   3  23
ATOM     23  C9  NON d   1     -42.086  19.112  -5.575  0.00  0.00    -0.005 A 
ATOM     24  C10 NON d   1     -41.778  17.987  -4.805  0.00  0.00     0.014 A 
ATOM     25  C11 NON d   1     -42.789  17.278  -4.153  0.00  0.00     0.007 A 
ATOM     26  C12 NON d   1     -44.125  17.680  -4.267  0.00  0.00    -0.062 A 
ATOM     27  C13 NON d   1     -45.215  16.880  -3.616  0.00  0.00     0.048 C 
ATOM     28  C14 NON d   1     -44.435  18.791  -5.060  0.00  0.00     0.007 A 
ATOM     29  C15 NON d   1     -43.423  19.504  -5.711  0.00  0.00     0.014 A 
ENDBRANCH   3  23
TORSDOF 5
ENDMDL
MODEL 4
REMARK VINA RESULT:    -6.493      3.564      6.205
REMARK INTER + INTRA:          -9.932
REMARK INTER:                  -7.984
REMARK INTRA:                  -1.948
REMARK CONF_INDEPENDENT:        1.492
REMARK UNBOUND:                -1.948
REMARK  5 active torsions:
REMARK  status: ('A' for Active; 'I' for Inactive)
REMARK    1  A    between atoms: C2_2  and  O1_3 
REMARK    2  A    between atoms: O1_3  and  C3_4 
REMARK    3  A    between atoms: C6_7  and  C5_6 
REMARK    4  A    between atoms: C8_9  and  C9_10 
REMARK    5  A    between atoms: C21_26  and  O3_27 
ROOT
ATOM      1  C6  NON d   1     -40.021  19.876  -6.118  0.00  0.00     0.158 A 
ATOM      2  C7  NON d   1     -40.110  21.359  -6.078  0.00  0.00     0.034 A 
ATOM      3  C8  NON d   1     -40.186  22.496  -5.254  0.00  0.00     0.098 A 
ATOM      4  N1  NON d   1     -40.044  23.621  -5.994  0.00  0.00    -0.173 NA
ATOM      5  N2  NON d   1     -39.926  23.194  -7.271  0.00  0.00    -0.272 N 
ATOM      6  C16 NON d   1     -39.979  21.858  -7.345  0.00  0.00     0.129 A 
ATOM      7  C17 NON d   1     -39.882  20.853  -8.332  0.00  0.00     0.273 A 
ATOM      8  O2  NON d   1     -39.748  20.997  -9.537  0.00  0.00    -0.266 OA
ATOM      9  N3  NON d   1     -39.964  19.665  -7.598  0.00  0.00    -0.338 N 
ATOM     10  C18 NON d   1     -39.794  18.366  -8.207  0.00  0.00     0.154 C 
ATOM     11  H15 NON d   1     -39.791  23.874  -8.012  0.00  0.00     0.189 HD
ENDROOT
BRANCH   1  12
ATOM     12  C5  NON d   1     -41.174  19.245  -5.379  0.00  0.00    -0.028 A 
ATOM     13  C4  NON d   1     -40.895  18.270  -4.399  0.00  0.00     0.049 A 
ATOM     14  C3  NON d   1     -41.905  17.571  -3.724  0.00  0.00     0.102 A 
ATOM     15  C21 NON d   1     -43.227  17.773  -4.114  0.00  0.00     0.099 A 
ATOM     16  C20 NON d   1     -43.537  18.752  -5.061  0.00  0.00     0.040 A 
ATOM     17  C19 NON d   1     -42.521  19.505  -5.660  0.00  0.00     0.012 A 
BRANCH  14  18
ATOM     18  O1  NON d   1     -41.434  16.731  -2.752  0.00  0.00    -0.349 OA
BRANCH  18  19
ATOM     19  C2  NON d   1     -40.628  17.304  -1.724  0.00  0.00     0.171 C 
ATOM     20  C1  NON d   1     -41.440  18.380  -1.022  0.00  0.00     0.034 C 
ENDBRANCH  18  19
ENDBRANCH  14  18
BRANCH  15  21
ATOM     21  O3  NON d   1     -44.238  17.002  -3.609  0.00  0.00    -0.358 OA
ATOM     22  H21 NON d   1     -43.862  16.351  -2.996  0.00  0.00     0.217 HD
ENDBRANCH  15  21
ENDBRANCH   1  12
BRANCH   3  23
ATOM     23  C9  NON d   1     -40.383  22.603  -3.818  0.00  0.00    -0.005 A 
ATOM     24  C10 NON d   1     -40.927  23.771  -3.275  0.00  0.00     0.014 A 
ATOM     25  C11 NON d   1     -41.066  23.909  -1.892  0.00  0.00     0.007 A 
ATOM     26  C12 NON d   1     -40.660  22.883  -1.032  0.00  0.00    -0.062 A 
ATOM     27  C13 NON d   1     -40.754  23.059   0.456  0.00  0.00     0.048 C 
ATOM     28  C14 NON d   1     -40.092  21.725  -1.575  0.00  0.00     0.007 A 
ATOM     29  C15 NON d   1     -39.954  21.584  -2.961  0.00  0.00     0.014 A 
ENDBRANCH   3  23
TORSDOF 5
ENDMDL
MODEL 5
REMARK VINA RESULT:    -6.444      2.815      5.441
REMARK INTER + INTRA:          -9.984
REMARK INTER:                  -7.935
REMARK INTRA:                  -2.048
REMARK CONF_INDEPENDENT:        1.492
REMARK UNBOUND:                -2.048
REMARK  5 active torsions:
REMARK  status: ('A' for Active; 'I' for Inactive)
REMARK    1  A    between atoms: C2_2  and  O1_3 
REMARK    2  A    between atoms: O1_3  and  C3_4 
REMARK    3  A    between atoms: C6_7  and  C5_6 
REMARK    4  A    between atoms: C8_9  and  C9_10 
REMARK    5  A    between atoms: C21_26  and  O3_27 
ROOT
ATOM      1  C6  NON d   1     -40.265  22.321  -5.780  0.00  0.00     0.158 A 
ATOM      2  C7  NON d   1     -40.253  21.042  -6.538  0.00  0.00     0.034 A 
ATOM      3  C8  NON d   1     -40.845  19.775  -6.688  0.00  0.00     0.098 A 
ATOM      4  N1  NON d   1     -40.383  19.171  -7.809  0.00  0.00    -0.173 NA
ATOM      5  N2  NON d   1     -39.479  20.031  -8.328  0.00  0.00    -0.272 N 
ATOM      6  C16 NON d   1     -39.375  21.139  -7.583  0.00  0.00     0.129 A 
ATOM      7  C17 NON d   1     -38.673  22.364  -7.609  0.00  0.00     0.273 A 
ATOM      8  O2  NON d   1     -37.841  22.733  -8.423  0.00  0.00    -0.266 OA
ATOM      9  N3  NON d   1     -39.168  23.048  -6.494  0.00  0.00    -0.338 N 
ATOM     10  C18 NON d   1     -38.800  24.413  -6.197  0.00  0.00     0.154 C 
ATOM     11  H15 NON d   1     -39.007  19.793  -9.195  0.00  0.00     0.189 HD
ENDROOT
BRANCH   1  12
ATOM     12  C5  NON d   1     -40.079  22.076  -4.304  0.00  0.00    -0.028 A 
ATOM     13  C4  NON d   1     -39.547  20.840  -3.887  0.00  0.00     0.049 A 
ATOM     14  C3  NON d   1     -39.419  20.494  -2.535  0.00  0.00     0.102 A 
ATOM     15  C21 NON d   1     -39.936  21.362  -1.575  0.00  0.00     0.099 A 
ATOM     16  C20 NON d   1     -40.443  22.606  -1.956  0.00  0.00     0.040 A 
ATOM     17  C19 NON d   1     -40.480  22.973  -3.307  0.00  0.00     0.012 A 
BRANCH  14  18
ATOM     18  O1  NON d   1     -38.802  19.290  -2.333  0.00  0.00    -0.349 OA
BRANCH  18  19
ATOM     19  C2  NON d   1     -39.565  18.111  -2.590  0.00  0.00     0.171 C 
ATOM     20  C1  NON d   1     -40.812  18.149  -1.722  0.00  0.00     0.034 C 
ENDBRANCH  18  19
ENDBRANCH  14  18
BRANCH  15  21
ATOM     21  O3  NON d   1     -39.989  21.005  -0.255  0.00  0.00    -0.358 OA
ATOM     22  H21 NON d   1     -39.534  20.155  -0.140  0.00  0.00     0.217 HD
ENDBRANCH  15  21
ENDBRANCH   1  12
BRANCH   3  23
ATOM     23  C9  NON d   1     -41.816  19.088  -5.852  0.00  0.00    -0.005 A 
ATOM     24  C10 NON d   1     -41.438  17.946  -5.140  0.00  0.00     0.014 A 
ATOM     25  C11 NON d   1     -42.376  17.244  -4.381  0.00  0.00     0.007 A 
ATOM     26  C12 NON d   1     -43.708  17.670  -4.326  0.00  0.00    -0.062 A 
ATOM     27  C13 NON d   1     -44.726  16.879  -3.560  0.00  0.00     0.048 C 
ATOM     28  C14 NON d   1     -44.091  18.799  -5.060  0.00  0.00     0.007 A 
ATOM     29  C15 NON d   1     -43.151  19.505  -5.819  0.00  0.00     0.014 A 
ENDBRANCH   3  23
TORSDOF 5
ENDMDL
MODEL 6
REMARK VINA RESULT:    -6.169      3.329      6.169
REMARK INTER + INTRA:          -9.079
REMARK INTER:                  -7.661
REMARK INTRA:                  -1.418
REMARK CONF_INDEPENDENT:        1.492
REMARK UNBOUND:                -1.418
REMARK  5 active torsions:
REMARK  status: ('A' for Active; 'I' for Inactive)
REMARK    1  A    between atoms: C2_2  and  O1_3 
REMARK    2  A    between atoms: O1_3  and  C3_4 
REMARK    3  A    between atoms: C6_7  and  C5_6 
REMARK    4  A    between atoms: C8_9  and  C9_10 
REMARK    5  A    between atoms: C21_26  and  O3_27 
ROOT
ATOM      1  C6  NON d   1     -38.077  20.016  -5.931  0.00  0.00     0.158 A 
ATOM      2  C7  NON d   1     -39.027  21.078  -6.354  0.00  0.00     0.034 A 
ATOM      3  C8  NON d   1     -39.815  22.165  -5.935  0.00  0.00     0.098 A 
ATOM      4  N1  NON d   1     -40.315  22.823  -7.008  0.00  0.00    -0.173 NA
ATOM      5  N2  NON d   1     -39.882  22.128  -8.083  0.00  0.00    -0.272 N 
ATOM      6  C16 NON d   1     -39.130  21.082  -7.718  0.00  0.00     0.129 A 
ATOM      7  C17 NON d   1     -38.392  20.048  -8.335  0.00  0.00     0.273 A 
ATOM      8  O2  NON d   1     -38.287  19.812  -9.528  0.00  0.00    -0.266 OA
ATOM      9  N3  NON d   1     -37.807  19.376  -7.256  0.00  0.00    -0.338 N 
ATOM     10  C18 NON d   1     -36.862  18.299  -7.437  0.00  0.00     0.154 C 
ATOM     11  H15 NON d   1     -40.124  22.451  -9.014  0.00  0.00     0.189 HD
ENDROOT
BRANCH   1  12
ATOM     12  C5  NON d   1     -38.682  19.145  -4.859  0.00  0.00    -0.028 A 
ATOM     13  C4  NON d   1     -40.026  18.743  -4.995  0.00  0.00     0.049 A 
ATOM     14  C3  NON d   1     -40.694  18.005  -4.009  0.00  0.00     0.102 A 
ATOM     15  C21 NON d   1     -40.036  17.755  -2.806  0.00  0.00     0.099 A 
ATOM     16  C20 NON d   1     -38.696  18.116  -2.653  0.00  0.00     0.040 A 
ATOM     17  C19 NON d   1     -38.016  18.773  -3.685  0.00  0.00     0.012 A 
BRANCH  14  18
ATOM     18  O1  NON d   1     -41.963  17.638  -4.364  0.00  0.00    -0.349 OA
BRANCH  18  19
ATOM     19  C2  NON d   1     -42.955  17.630  -3.337  0.00  0.00     0.171 C 
ATOM     20  C1  NON d   1     -44.288  17.255  -3.962  0.00  0.00     0.034 C 
ENDBRANCH  18  19
ENDBRANCH  14  18
BRANCH  15  21
ATOM     21  O3  NON d   1     -40.690  17.186  -1.748  0.00  0.00    -0.358 OA
ATOM     22  H21 NON d   1     -40.171  17.333  -0.941  0.00  0.00     0.217 HD
ENDBRANCH  15  21
ENDBRANCH   1  12
BRANCH   3  23
ATOM     23  C9  NON d   1     -40.135  22.632  -4.596  0.00  0.00    -0.005 A 
ATOM     24  C10 NON d   1     -39.956  21.782  -3.500  0.00  0.00     0.014 A 
ATOM     25  C11 NON d   1     -40.316  22.199  -2.217  0.00  0.00     0.007 A 
ATOM     26  C12 NON d   1     -40.862  23.470  -2.010  0.00  0.00    -0.062 A 
ATOM     27  C13 NON d   1     -41.304  23.891  -0.639  0.00  0.00     0.048 C 
ATOM     28  C14 NON d   1     -41.065  24.310  -3.111  0.00  0.00     0.007 A 
ATOM     29  C15 NON d   1     -40.702  23.895  -4.397  0.00  0.00     0.014 A 
ENDBRANCH   3  23
TORSDOF 5
ENDMDL
MODEL 7
REMARK VINA RESULT:    -5.986      3.477      5.111
REMARK INTER + INTRA:          -9.188
REMARK INTER:                  -7.477
REMARK INTRA:                  -1.711
REMARK CONF_INDEPENDENT:        1.492
REMARK UNBOUND:                -1.711
REMARK  5 active torsions:
REMARK  status: ('A' for Active; 'I' for Inactive)
REMARK    1  A    between atoms: C2_2  and  O1_3 
REMARK    2  A    between atoms: O1_3  and  C3_4 
REMARK    3  A    between atoms: C6_7  and  C5_6 
REMARK    4  A    between atoms: C8_9  and  C9_10 
REMARK    5  A    between atoms: C21_26  and  O3_27 
ROOT
ATOM      1  C6  NON d   1     -41.504  19.783  -4.730  0.00  0.00     0.158 A 
ATOM      2  C7  NON d   1     -40.720  20.344  -3.600  0.00  0.00     0.034 A 
ATOM      3  C8  NON d   1     -40.167  21.507  -3.035  0.00  0.00     0.098 A 
ATOM      4  N1  NON d   1     -39.701  21.247  -1.790  0.00  0.00    -0.173 NA
ATOM      5  N2  NON d   1     -39.919  19.928  -1.597  0.00  0.00    -0.272 N 
ATOM      6  C16 NON d   1     -40.508  19.370  -2.663  0.00  0.00     0.129 A 
ATOM      7  C17 NON d   1     -41.005  18.106  -3.051  0.00  0.00     0.273 A 
ATOM      8  O2  NON d   1     -40.969  17.062  -2.420  0.00  0.00    -0.266 OA
ATOM      9  N3  NON d   1     -41.552  18.345  -4.316  0.00  0.00    -0.338 N 
ATOM     10  C18 NON d   1     -42.281  17.334  -5.047  0.00  0.00     0.154 C 
ATOM     11  H15 NON d   1     -39.661  19.505  -0.711  0.00  0.00     0.189 HD
ENDROOT
BRANCH   1  12
ATOM     12  C5  NON d   1     -40.849  20.094  -6.052  0.00  0.00    -0.028 A 
ATOM     13  C4  NON d   1     -40.634  21.444  -6.396  0.00  0.00     0.049 A 
ATOM     14  C3  NON d   1     -40.110  21.830  -7.637  0.00  0.00     0.102 A 
ATOM     15  C21 NON d   1     -39.896  20.847  -8.603  0.00  0.00     0.099 A 
ATOM     16  C20 NON d   1     -40.073  19.500  -8.281  0.00  0.00     0.040 A 
ATOM     17  C19 NON d   1     -40.512  19.127  -7.005  0.00  0.00     0.012 A 
BRANCH  14  18
ATOM     18  O1  NON d   1     -39.895  23.176  -7.748  0.00  0.00    -0.349 OA
BRANCH  18  19
ATOM     19  C2  NON d   1     -40.315  23.810  -8.956  0.00  0.00     0.171 C 
ATOM     20  C1  NON d   1     -40.180  25.314  -8.780  0.00  0.00     0.034 C 
ENDBRANCH  18  19
ENDBRANCH  14  18
BRANCH  15  21
ATOM     21  O3  NON d   1     -39.544  21.179  -9.882  0.00  0.00    -0.358 OA
ATOM     22  H21 NON d   1     -40.306  21.589 -10.322  0.00  0.00     0.217 HD
ENDBRANCH  15  21
ENDBRANCH   1  12
BRANCH   3  23
ATOM     23  C9  NON d   1     -40.042  22.849  -3.581  0.00  0.00    -0.005 A 
ATOM     24  C10 NON d   1     -41.158  23.691  -3.620  0.00  0.00     0.014 A 
ATOM     25  C11 NON d   1     -41.065  24.959  -4.197  0.00  0.00     0.007 A 
ATOM     26  C12 NON d   1     -39.857  25.403  -4.746  0.00  0.00    -0.062 A 
ATOM     27  C13 NON d   1     -39.778  26.742  -5.419  0.00  0.00     0.048 C 
ATOM     28  C14 NON d   1     -38.748  24.549  -4.730  0.00  0.00     0.007 A 
ATOM     29  C15 NON d   1     -38.839  23.279  -4.150  0.00  0.00     0.014 A 
ENDBRANCH   3  23
TORSDOF 5
ENDMDL
MODEL 8
REMARK VINA RESULT:    -5.901      3.035      4.710
REMARK INTER + INTRA:          -9.331
REMARK INTER:                  -7.392
REMARK INTRA:                  -1.939
REMARK CONF_INDEPENDENT:        1.492
REMARK UNBOUND:                -1.939
REMARK  5 active torsions:
REMARK  status: ('A' for Active; 'I' for Inactive)
REMARK    1  A    between atoms: C2_2  and  O1_3 
REMARK    2  A    between atoms: O1_3  and  C3_4 
REMARK    3  A    between atoms: C6_7  and  C5_6 
REMARK    4  A    between atoms: C8_9  and  C9_10 
REMARK    5  A    between atoms: C21_26  and  O3_27 
ROOT
ATOM      1  C6  NON d   1     -41.750  19.422  -4.957  0.00  0.00     0.158 A 
ATOM      2  C7  NON d   1     -40.953  20.055  -3.874  0.00  0.00     0.034 A 
ATOM      3  C8  NON d   1     -40.378  21.248  -3.401  0.00  0.00     0.098 A 
ATOM      4  N1  NON d   1     -39.914  21.078  -2.140  0.00  0.00    -0.173 NA
ATOM      5  N2  NON d   1     -40.157  19.782  -1.845  0.00  0.00    -0.272 N 
ATOM      6  C16 NON d   1     -40.757  19.153  -2.864  0.00  0.00     0.129 A 
ATOM      7  C17 NON d   1     -41.278  17.873  -3.152  0.00  0.00     0.273 A 
ATOM      8  O2  NON d   1     -41.261  16.880  -2.442  0.00  0.00    -0.266 OA
ATOM      9  N3  NON d   1     -41.823  18.022  -4.431  0.00  0.00    -0.338 N 
ATOM     10  C18 NON d   1     -42.572  16.971  -5.081  0.00  0.00     0.154 C 
ATOM     11  H15 NON d   1     -39.904  19.425  -0.929  0.00  0.00     0.189 HD
ENDROOT
BRANCH   1  12
ATOM     12  C5  NON d   1     -41.092  19.618  -6.299  0.00  0.00    -0.028 A 
ATOM     13  C4  NON d   1     -40.003  18.791  -6.643  0.00  0.00     0.049 A 
ATOM     14  C3  NON d   1     -39.278  18.958  -7.830  0.00  0.00     0.102 A 
ATOM     15  C21 NON d   1     -39.579  20.047  -8.646  0.00  0.00     0.099 A 
ATOM     16  C20 NON d   1     -40.670  20.866  -8.346  0.00  0.00     0.040 A 
ATOM     17  C19 NON d   1     -41.440  20.630  -7.201  0.00  0.00     0.012 A 
BRANCH  14  18
ATOM     18  O1  NON d   1     -38.316  18.005  -8.024  0.00  0.00    -0.349 OA
BRANCH  18  19
ATOM     19  C2  NON d   1     -36.954  18.412  -7.891  0.00  0.00     0.171 C 
ATOM     20  C1  NON d   1     -36.699  18.761  -6.433  0.00  0.00     0.034 C 
ENDBRANCH  18  19
ENDBRANCH  14  18
BRANCH  15  21
ATOM     21  O3  NON d   1     -38.802  20.356  -9.728  0.00  0.00    -0.358 OA
ATOM     22  H21 NON d   1     -38.097  19.693  -9.809  0.00  0.00     0.217 HD
ENDBRANCH  15  21
ENDBRANCH   1  12
BRANCH   3  23
ATOM     23  C9  NON d   1     -40.230  22.541  -4.050  0.00  0.00    -0.005 A 
ATOM     24  C10 NON d   1     -40.940  23.646  -3.572  0.00  0.00     0.014 A 
ATOM     25  C11 NON d   1     -40.852  24.878  -4.223  0.00  0.00     0.007 A 
ATOM     26  C12 NON d   1     -40.057  25.023  -5.365  0.00  0.00    -0.062 A 
ATOM     27  C13 NON d   1     -40.013  26.331  -6.097  0.00  0.00     0.048 C 
ATOM     28  C14 NON d   1     -39.367  23.909  -5.859  0.00  0.00     0.007 A 
ATOM     29  C15 NON d   1     -39.452  22.674  -5.205  0.00  0.00     0.014 A 
ENDBRANCH   3  23
TORSDOF 5
ENDMDL
MODEL 9
REMARK VINA RESULT:    -5.450      3.422      6.261
REMARK INTER + INTRA:          -8.960
REMARK INTER:                  -6.941
REMARK INTRA:                  -2.019
REMARK CONF_INDEPENDENT:        1.492
REMARK UNBOUND:                -2.019
REMARK  5 active torsions:
REMARK  status: ('A' for Active; 'I' for Inactive)
REMARK    1  A    between atoms: C2_2  and  O1_3 
REMARK    2  A    between atoms: O1_3  and  C3_4 
REMARK    3  A    between atoms: C6_7  and  C5_6 
REMARK    4  A    between atoms: C8_9  and  C9_10 
REMARK    5  A    between atoms: C21_26  and  O3_27 
ROOT
ATOM      1  C6  NON d   1     -39.940  23.120  -6.909  0.00  0.00     0.158 A 
ATOM      2  C7  NON d   1     -40.152  21.821  -7.599  0.00  0.00     0.034 A 
ATOM      3  C8  NON d   1     -40.548  20.479  -7.453  0.00  0.00     0.098 A 
ATOM      4  N1  NON d   1     -40.673  19.892  -8.667  0.00  0.00    -0.173 NA
ATOM      5  N2  NON d   1     -40.315  20.842  -9.559  0.00  0.00    -0.272 N 
ATOM      6  C16 NON d   1     -39.988  21.987  -8.947  0.00  0.00     0.129 A 
ATOM      7  C17 NON d   1     -39.588  23.295  -9.302  0.00  0.00     0.273 A 
ATOM      8  O2  NON d   1     -39.377  23.735 -10.421  0.00  0.00    -0.266 OA
ATOM      9  N3  NON d   1     -39.506  23.956  -8.072  0.00  0.00    -0.338 N 
ATOM     10  C18 NON d   1     -39.232  25.371  -7.971  0.00  0.00     0.154 C 
ATOM     11  H15 NON d   1     -40.348  20.630 -10.551  0.00  0.00     0.189 HD
ENDROOT
BRANCH   1  12
ATOM     12  C5  NON d   1     -38.966  22.973  -5.768  0.00  0.00    -0.028 A 
ATOM     13  C4  NON d   1     -39.474  22.858  -4.458  0.00  0.00     0.049 A 
ATOM     14  C3  NON d   1     -38.643  22.802  -3.331  0.00  0.00     0.102 A 
ATOM     15  C21 NON d   1     -37.272  22.977  -3.507  0.00  0.00     0.099 A 
ATOM     16  C20 NON d   1     -36.737  23.065  -4.794  0.00  0.00     0.040 A 
ATOM     17  C19 NON d   1     -37.574  23.027  -5.914  0.00  0.00     0.012 A 
BRANCH  14  18
ATOM     18  O1  NON d   1     -39.321  22.604  -2.159  0.00  0.00    -0.349 OA
BRANCH  18  19
ATOM     19  C2  NON d   1     -39.473  21.258  -1.710  0.00  0.00     0.171 C 
ATOM     20  C1  NON d   1     -39.940  21.286  -0.264  0.00  0.00     0.034 C 
ENDBRANCH  18  19
ENDBRANCH  14  18
BRANCH  15  21
ATOM     21  O3  NON d   1     -36.431  23.098  -2.435  0.00  0.00    -0.358 OA
ATOM     22  H21 NON d   1     -36.946  22.996  -1.618  0.00  0.00     0.217 HD
ENDBRANCH  15  21
ENDBRANCH   1  12
BRANCH   3  23
ATOM     23  C9  NON d   1     -40.818  19.706  -6.252  0.00  0.00    -0.005 A 
ATOM     24  C10 NON d   1     -42.138  19.480  -5.851  0.00  0.00     0.014 A 
ATOM     25  C11 NON d   1     -42.409  18.789  -4.668  0.00  0.00     0.007 A 
ATOM     26  C12 NON d   1     -41.363  18.318  -3.865  0.00  0.00    -0.062 A 
ATOM     27  C13 NON d   1     -41.657  17.631  -2.564  0.00  0.00     0.048 C 
ATOM     28  C14 NON d   1     -40.042  18.568  -4.255  0.00  0.00     0.007 A 
ATOM     29  C15 NON d   1     -39.770  19.257  -5.442  0.00  0.00     0.014 A 
ENDBRANCH   3  23
TORSDOF 5
ENDMDL
