MODEL 1
REMARK VINA RESULT:   -11.797      0.000      0.000
REMARK INTER + INTRA:         -17.323
REMARK INTER:                 -14.780
REMARK INTRA:                  -2.543
REMARK CONF_INDEPENDENT:        2.983
REMARK UNBOUND:                -2.543
REMARK  10 active torsions:
REMARK  status: ('A' for Active; 'I' for Inactive)
REMARK    1  A    between atoms: O1_2  and  C2_3 
REMARK    2  A    between atoms: C5_6  and  C6_7 
REMARK    3  A    between atoms: C6_7  and  O2_8 
REMARK    4  A    between atoms: C6_7  and  C18_27 
REMARK    5  A    between atoms: C6_7  and  C24_33 
REMARK    6  A    between atoms: O2_8  and  C7_9 
REMARK    7  A    between atoms: C8_10  and  C7_9 
REMARK    8  A    between atoms: C9_12  and  N1_13 
REMARK    9  A    between atoms: C17_25  and  O6_26 
REMARK   10  A    between atoms: C27_36  and  O7_37 
ROOT
ATOM      1  C6  NON d   1     -40.433  19.564  -4.721  0.00  0.00     0.142 C 
ENDROOT
BRANCH   1   2
ATOM      2  C5  NON d   1     -40.703  20.729  -3.749  0.00  0.00    -0.014 C 
ATOM      3  C4  NON d   1     -41.217  22.036  -3.936  0.00  0.00     0.013 C 
ATOM      4  C3  NON d   1     -41.440  23.002  -2.907  0.00  0.00     0.037 C 
ATOM      5  C2  NON d   1     -40.926  22.861  -1.632  0.00  0.00     0.068 C 
ATOM      6  C32 NON d   1     -40.315  21.663  -1.369  0.00  0.00     0.037 C 
ATOM      7  C31 NON d   1     -40.310  20.627  -2.353  0.00  0.00     0.013 C 
BRANCH   5   8
ATOM      8  O1  NON d   1     -41.108  23.936  -0.823  0.00  0.00    -0.356 OA
ATOM      9  C1  NON d   1     -41.220  23.784   0.585  0.00  0.00     0.210 C 
ENDBRANCH   5   8
ENDBRANCH   1   2
BRANCH   1  10
ATOM     10  O2  NON d   1     -40.164  18.400  -5.692  0.00  0.00    -0.363 OA
BRANCH  10  11
ATOM     11  C7  NON d   1     -39.608  18.644  -7.094  0.00  0.00     0.204 C 
BRANCH  11  12
ATOM     12  C8  NON d   1     -39.015  20.002  -7.807  0.00  0.00     0.176 C 
ATOM     13  O3  NON d   1     -38.310  19.944  -9.183  0.00  0.00    -0.356 OA
ATOM     14  C9  NON d   1     -38.942  21.005 -10.035  0.00  0.00     0.232 C 
ATOM     15  C16 NON d   1     -39.431  22.004  -9.013  0.00  0.00     0.088 C 
ATOM     16  C17 NON d   1     -40.052  21.036  -8.071  0.00  0.00     0.153 C 
BRANCH  14  17
ATOM     17  N1  NON d   1     -38.201  21.710 -11.106  0.00  0.00    -0.315 N 
ATOM     18  C10 NON d   1     -36.922  21.515 -11.538  0.00  0.00     0.096 A 
ATOM     19  C11 NON d   1     -36.653  22.398 -12.590  0.00  0.00     0.038 A 
ATOM     20  C12 NON d   1     -37.830  23.161 -12.799  0.00  0.00     0.078 A 
ATOM     21  C13 NON d   1     -38.132  24.215 -13.757  0.00  0.00     0.263 A 
ATOM     22  C15 NON d   1     -38.763  22.707 -11.915  0.00  0.00     0.129 A 
ATOM     23  O4  NON d   1     -37.328  24.640 -14.585  0.00  0.00    -0.267 OA
ATOM     24  N2  NON d   1     -39.399  24.727 -13.681  0.00  0.00    -0.275 N 
ATOM     25  C14 NON d   1     -40.374  24.318 -12.845  0.00  0.00     0.328 A 
ATOM     26  H12 NON d   1     -39.620  25.460 -14.334  0.00  0.00     0.173 HD
ATOM     27  O5  NON d   1     -41.521  24.735 -12.764  0.00  0.00    -0.247 OA
ATOM     28  N3  NON d   1     -40.035  23.255 -11.946  0.00  0.00    -0.293 N 
ATOM     29  H13 NON d   1     -40.784  22.934 -11.349  0.00  0.00     0.172 HD
ENDBRANCH  14  17
BRANCH  16  30
ATOM     30  O6  NON d   1     -41.067  20.375  -8.811  0.00  0.00    -0.393 OA
ATOM     31  H17 NON d   1     -41.119  20.737  -9.704  0.00  0.00     0.210 HD
ENDBRANCH  16  30
ENDBRANCH  11  12
ENDBRANCH  10  11
ENDBRANCH   1  10
BRANCH   1  32
ATOM     32  C18 NON d   1     -38.968  19.153  -4.299  0.00  0.00    -0.015 A 
ATOM     33  C19 NON d   1     -37.765  19.699  -4.787  0.00  0.00     0.011 A 
ATOM     34  C20 NON d   1     -36.531  19.231  -4.315  0.00  0.00     0.001 A 
ATOM     35  C21 NON d   1     -36.466  18.173  -3.404  0.00  0.00     0.000 A 
ATOM     36  C22 NON d   1     -37.634  17.628  -2.889  0.00  0.00     0.001 A 
ATOM     37  C23 NON d   1     -38.863  18.154  -3.279  0.00  0.00     0.011 A 
ENDBRANCH   1  32
BRANCH   1  38
ATOM     38  C24 NON d   1     -41.982  18.897  -4.524  0.00  0.00    -0.014 C 
ATOM     39  C25 NON d   1     -43.075  19.505  -5.240  0.00  0.00     0.013 C 
ATOM     40  C26 NON d   1     -44.383  19.048  -5.435  0.00  0.00     0.037 C 
ATOM     41  C27 NON d   1     -44.646  17.766  -5.060  0.00  0.00     0.068 C 
ATOM     42  C29 NON d   1     -43.676  17.106  -4.280  0.00  0.00     0.037 C 
ATOM     43  C30 NON d   1     -42.371  17.664  -3.989  0.00  0.00     0.013 C 
BRANCH  41  44
ATOM     44  O7  NON d   1     -45.768  17.109  -5.497  0.00  0.00    -0.356 OA
ATOM     45  C28 NON d   1     -46.493  16.417  -4.463  0.00  0.00     0.210 C 
ENDBRANCH  41  44
ENDBRANCH   1  38
TORSDOF 10
ENDMDL
MODEL 2
REMARK VINA RESULT:   -11.292      1.434      2.222
REMARK INTER + INTRA:         -17.553
REMARK INTER:                 -14.275
REMARK INTRA:                  -3.278
REMARK CONF_INDEPENDENT:        2.983
REMARK UNBOUND:                -3.278
REMARK  10 active torsions:
REMARK  status: ('A' for Active; 'I' for Inactive)
REMARK    1  A    between atoms: O1_2  and  C2_3 
REMARK    2  A    between atoms: C5_6  and  C6_7 
REMARK    3  A    between atoms: C6_7  and  O2_8 
REMARK    4  A    between atoms: C6_7  and  C18_27 
REMARK    5  A    between atoms: C6_7  and  C24_33 
REMARK    6  A    between atoms: O2_8  and  C7_9 
REMARK    7  A    between atoms: C8_10  and  C7_9 
REMARK    8  A    between atoms: C9_12  and  N1_13 
REMARK    9  A    between atoms: C17_25  and  O6_26 
REMARK   10  A    between atoms: C27_36  and  O7_37 
ROOT
ATOM      1  C6  NON d   1     -40.494  19.377  -4.741  0.00  0.00     0.142 C 
ENDROOT
BRANCH   1   2
ATOM      2  C5  NON d   1     -40.746  20.606  -3.847  0.00  0.00    -0.014 C 
ATOM      3  C4  NON d   1     -41.265  21.898  -4.115  0.00  0.00     0.013 C 
ATOM      4  C3  NON d   1     -41.470  22.932  -3.151  0.00  0.00     0.037 C 
ATOM      5  C2  NON d   1     -40.932  22.880  -1.880  0.00  0.00     0.068 C 
ATOM      6  C32 NON d   1     -40.315  21.704  -1.546  0.00  0.00     0.037 C 
ATOM      7  C31 NON d   1     -40.327  20.601  -2.456  0.00  0.00     0.013 C 
BRANCH   5   8
ATOM      8  O1  NON d   1     -41.100  24.009  -1.144  0.00  0.00    -0.356 OA
ATOM      9  C1  NON d   1     -41.027  23.977   0.275  0.00  0.00     0.210 C 
ENDBRANCH   5   8
ENDBRANCH   1   2
BRANCH   1  10
ATOM     10  O2  NON d   1     -40.242  18.148  -5.634  0.00  0.00    -0.363 OA
BRANCH  10  11
ATOM     11  C7  NON d   1     -40.231  18.259  -7.158  0.00  0.00     0.204 C 
BRANCH  11  12
ATOM     12  C8  NON d   1     -40.094  19.562  -8.152  0.00  0.00     0.176 C 
ATOM     13  O3  NON d   1     -40.291  21.001  -7.622  0.00  0.00    -0.356 OA
ATOM     14  C9  NON d   1     -39.114  21.799  -8.096  0.00  0.00     0.232 C 
ATOM     15  C16 NON d   1     -38.693  21.062  -9.345  0.00  0.00     0.088 C 
ATOM     16  C17 NON d   1     -38.756  19.683  -8.791  0.00  0.00     0.153 C 
BRANCH  14  17
ATOM     17  N1  NON d   1     -39.200  23.251  -8.380  0.00  0.00    -0.315 N 
ATOM     18  C10 NON d   1     -38.898  24.304  -7.568  0.00  0.00     0.096 A 
ATOM     19  C11 NON d   1     -39.113  25.498  -8.266  0.00  0.00     0.038 A 
ATOM     20  C12 NON d   1     -39.568  25.142  -9.562  0.00  0.00     0.078 A 
ATOM     21  C13 NON d   1     -39.937  25.961 -10.708  0.00  0.00     0.263 A 
ATOM     22  C15 NON d   1     -39.582  23.780  -9.621  0.00  0.00     0.129 A 
ATOM     23  O4  NON d   1     -39.917  27.191 -10.706  0.00  0.00    -0.267 OA
ATOM     24  N2  NON d   1     -40.321  25.266 -11.823  0.00  0.00    -0.275 N 
ATOM     25  C14 NON d   1     -40.345  23.925 -11.956  0.00  0.00     0.328 A 
ATOM     26  H12 NON d   1     -40.584  25.821 -12.621  0.00  0.00     0.173 HD
ATOM     27  O5  NON d   1     -40.661  23.272 -12.940  0.00  0.00    -0.247 OA
ATOM     28  N3  NON d   1     -39.940  23.166 -10.810  0.00  0.00    -0.293 N 
ATOM     29  H13 NON d   1     -39.929  22.164 -10.933  0.00  0.00     0.172 HD
ENDBRANCH  14  17
BRANCH  16  30
ATOM     30  O6  NON d   1     -37.822  19.655  -7.723  0.00  0.00    -0.393 OA
ATOM     31  H17 NON d   1     -38.125  20.214  -6.998  0.00  0.00     0.210 HD
ENDBRANCH  16  30
ENDBRANCH  11  12
ENDBRANCH  10  11
ENDBRANCH   1  10
BRANCH   1  32
ATOM     32  C18 NON d   1     -39.097  18.887  -4.191  0.00  0.00    -0.015 A 
ATOM     33  C19 NON d   1     -38.876  17.971  -3.144  0.00  0.00     0.011 A 
ATOM     34  C20 NON d   1     -37.571  17.628  -2.765  0.00  0.00     0.001 A 
ATOM     35  C21 NON d   1     -36.466  18.233  -3.371  0.00  0.00     0.000 A 
ATOM     36  C22 NON d   1     -36.650  19.123  -4.420  0.00  0.00     0.001 A 
ATOM     37  C23 NON d   1     -37.942  19.394  -4.867  0.00  0.00     0.011 A 
ENDBRANCH   1  32
BRANCH   1  38
ATOM     38  C24 NON d   1     -42.097  18.830  -4.631  0.00  0.00    -0.014 C 
ATOM     39  C25 NON d   1     -43.096  19.502  -5.425  0.00  0.00     0.013 C 
ATOM     40  C26 NON d   1     -44.419  19.139  -5.694  0.00  0.00     0.037 C 
ATOM     41  C27 NON d   1     -44.801  17.887  -5.314  0.00  0.00     0.068 C 
ATOM     42  C29 NON d   1     -43.933  17.176  -4.463  0.00  0.00     0.037 C 
ATOM     43  C30 NON d   1     -42.610  17.641  -4.099  0.00  0.00     0.013 C 
BRANCH  41  44
ATOM     44  O7  NON d   1     -45.940  17.306  -5.809  0.00  0.00    -0.356 OA
ATOM     45  C28 NON d   1     -46.550  16.345  -4.927  0.00  0.00     0.210 C 
ENDBRANCH  41  44
ENDBRANCH   1  38
TORSDOF 10
ENDMDL
MODEL 3
REMARK VINA RESULT:   -10.799      1.726      2.659
REMARK INTER + INTRA:         -16.805
REMARK INTER:                 -13.782
REMARK INTRA:                  -3.023
REMARK CONF_INDEPENDENT:        2.983
REMARK UNBOUND:                -3.023
REMARK  10 active torsions:
REMARK  status: ('A' for Active; 'I' for Inactive)
REMARK    1  A    between atoms: O1_2  and  C2_3 
REMARK    2  A    between atoms: C5_6  and  C6_7 
REMARK    3  A    between atoms: C6_7  and  O2_8 
REMARK    4  A    between atoms: C6_7  and  C18_27 
REMARK    5  A    between atoms: C6_7  and  C24_33 
REMARK    6  A    between atoms: O2_8  and  C7_9 
REMARK    7  A    between atoms: C8_10  and  C7_9 
REMARK    8  A    between atoms: C9_12  and  N1_13 
REMARK    9  A    between atoms: C17_25  and  O6_26 
REMARK   10  A    between atoms: C27_36  and  O7_37 
ROOT
ATOM      1  C6  NON d   1     -40.815  19.917  -5.829  0.00  0.00     0.142 C 
ENDROOT
BRANCH   1   2
ATOM      2  C5  NON d   1     -40.541  20.465  -4.416  0.00  0.00    -0.014 C 
ATOM      3  C4  NON d   1     -40.211  19.837  -3.190  0.00  0.00     0.013 C 
ATOM      4  C3  NON d   1     -39.952  20.503  -1.952  0.00  0.00     0.037 C 
ATOM      5  C2  NON d   1     -40.257  21.835  -1.747  0.00  0.00     0.068 C 
ATOM      6  C32 NON d   1     -40.684  22.521  -2.853  0.00  0.00     0.037 C 
ATOM      7  C31 NON d   1     -40.714  21.880  -4.131  0.00  0.00     0.013 C 
BRANCH   5   8
ATOM      8  O1  NON d   1     -40.083  22.270  -0.473  0.00  0.00    -0.356 OA
ATOM      9  C1  NON d   1     -40.221  21.384   0.630  0.00  0.00     0.210 C 
ENDBRANCH   5   8
ENDBRANCH   1   2
BRANCH   1  10
ATOM     10  O2  NON d   1     -41.088  19.369  -7.242  0.00  0.00    -0.363 OA
BRANCH  10  11
ATOM     11  C7  NON d   1     -41.075  20.282  -8.468  0.00  0.00     0.204 C 
BRANCH  11  12
ATOM     12  C8  NON d   1     -39.837  21.026  -9.257  0.00  0.00     0.176 C 
ATOM     13  O3  NON d   1     -39.939  21.378 -10.760  0.00  0.00    -0.356 OA
ATOM     14  C9  NON d   1     -39.536  22.815 -10.893  0.00  0.00     0.232 C 
ATOM     15  C16 NON d   1     -38.626  23.017  -9.705  0.00  0.00     0.088 C 
ATOM     16  C17 NON d   1     -39.481  22.352  -8.686  0.00  0.00     0.153 C 
BRANCH  14  17
ATOM     17  N1  NON d   1     -38.888  23.349 -12.114  0.00  0.00    -0.315 N 
ATOM     18  C10 NON d   1     -38.817  24.637 -12.556  0.00  0.00     0.096 A 
ATOM     19  C11 NON d   1     -38.086  24.674 -13.748  0.00  0.00     0.038 A 
ATOM     20  C12 NON d   1     -37.700  23.340 -14.036  0.00  0.00     0.078 A 
ATOM     21  C13 NON d   1     -36.924  22.781 -15.135  0.00  0.00     0.263 A 
ATOM     22  C15 NON d   1     -38.165  22.560 -13.020  0.00  0.00     0.129 A 
ATOM     23  O4  NON d   1     -36.467  23.451 -16.060  0.00  0.00    -0.267 OA
ATOM     24  N2  NON d   1     -36.728  21.428 -15.083  0.00  0.00    -0.275 N 
ATOM     25  C14 NON d   1     -37.146  20.601 -14.104  0.00  0.00     0.328 A 
ATOM     26  H12 NON d   1     -36.198  21.029 -15.839  0.00  0.00     0.173 HD
ATOM     27  O5  NON d   1     -36.971  19.394 -14.013  0.00  0.00    -0.247 OA
ATOM     28  N3  NON d   1     -37.875  21.206 -13.029  0.00  0.00    -0.293 N 
ATOM     29  H13 NON d   1     -38.152  20.581 -12.285  0.00  0.00     0.172 HD
ENDBRANCH  14  17
BRANCH  16  30
ATOM     30  O6  NON d   1     -40.692  23.092  -8.658  0.00  0.00    -0.393 OA
ATOM     31  H17 NON d   1     -41.229  22.882  -9.430  0.00  0.00     0.210 HD
ENDBRANCH  16  30
ENDBRANCH  11  12
ENDBRANCH  10  11
ENDBRANCH   1  10
BRANCH   1  32
ATOM     32  C18 NON d   1     -39.344  19.647  -6.337  0.00  0.00    -0.015 A 
ATOM     33  C19 NON d   1     -38.174  20.313  -5.926  0.00  0.00     0.011 A 
ATOM     34  C20 NON d   1     -36.929  19.960  -6.467  0.00  0.00     0.001 A 
ATOM     35  C21 NON d   1     -36.832  18.991  -7.470  0.00  0.00     0.000 A 
ATOM     36  C22 NON d   1     -37.964  18.302  -7.880  0.00  0.00     0.001 A 
ATOM     37  C23 NON d   1     -39.189  18.578  -7.277  0.00  0.00     0.011 A 
ENDBRANCH   1  32
BRANCH   1  38
ATOM     38  C24 NON d   1     -42.117  18.954  -5.324  0.00  0.00    -0.014 C 
ATOM     39  C25 NON d   1     -43.446  19.501  -5.436  0.00  0.00     0.013 C 
ATOM     40  C26 NON d   1     -44.688  18.872  -5.305  0.00  0.00     0.037 C 
ATOM     41  C27 NON d   1     -44.682  17.512  -5.237  0.00  0.00     0.068 C 
ATOM     42  C29 NON d   1     -43.440  16.879  -5.040  0.00  0.00     0.037 C 
ATOM     43  C30 NON d   1     -42.173  17.581  -5.056  0.00  0.00     0.013 C 
BRANCH  41  44
ATOM     44  O7  NON d   1     -45.825  16.781  -5.440  0.00  0.00    -0.356 OA
ATOM     45  C28 NON d   1     -46.577  16.507  -4.244  0.00  0.00     0.210 C 
ENDBRANCH  41  44
ENDBRANCH   1  38
TORSDOF 10
ENDMDL
MODEL 4
REMARK VINA RESULT:   -10.707      4.083      9.184
REMARK INTER + INTRA:         -17.110
REMARK INTER:                 -13.690
REMARK INTRA:                  -3.420
REMARK CONF_INDEPENDENT:        2.983
REMARK UNBOUND:                -3.420
REMARK  10 active torsions:
REMARK  status: ('A' for Active; 'I' for Inactive)
REMARK    1  A    between atoms: O1_2  and  C2_3 
REMARK    2  A    between atoms: C5_6  and  C6_7 
REMARK    3  A    between atoms: C6_7  and  O2_8 
REMARK    4  A    between atoms: C6_7  and  C18_27 
REMARK    5  A    between atoms: C6_7  and  C24_33 
REMARK    6  A    between atoms: O2_8  and  C7_9 
REMARK    7  A    between atoms: C8_10  and  C7_9 
REMARK    8  A    between atoms: C9_12  and  N1_13 
REMARK    9  A    between atoms: C17_25  and  O6_26 
REMARK   10  A    between atoms: C27_36  and  O7_37 
ROOT
ATOM      1  C6  NON d   1     -40.936  19.198  -4.743  0.00  0.00     0.142 C 
ENDROOT
BRANCH   1   2
ATOM      2  C5  NON d   1     -42.285  18.467  -4.881  0.00  0.00    -0.014 C 
ATOM      3  C4  NON d   1     -42.628  17.095  -4.969  0.00  0.00     0.013 C 
ATOM      4  C3  NON d   1     -43.954  16.570  -5.062  0.00  0.00     0.037 C 
ATOM      5  C2  NON d   1     -45.050  17.363  -5.344  0.00  0.00     0.068 C 
ATOM      6  C32 NON d   1     -44.811  18.712  -5.380  0.00  0.00     0.037 C 
ATOM      7  C31 NON d   1     -43.515  19.222  -5.057  0.00  0.00     0.013 C 
BRANCH   5   8
ATOM      8  O1  NON d   1     -46.209  16.684  -5.540  0.00  0.00    -0.356 OA
ATOM      9  C1  NON d   1     -46.944  16.155  -4.445  0.00  0.00     0.210 C 
ENDBRANCH   5   8
ENDBRANCH   1   2
BRANCH   1  10
ATOM     10  O2  NON d   1     -39.588  19.929  -4.605  0.00  0.00    -0.363 OA
BRANCH  10  11
ATOM     11  C7  NON d   1     -39.518  21.444  -4.417  0.00  0.00     0.204 C 
BRANCH  11  12
ATOM     12  C8  NON d   1     -38.838  22.363  -3.235  0.00  0.00     0.176 C 
ATOM     13  O3  NON d   1     -39.419  22.386  -1.801  0.00  0.00    -0.356 OA
ATOM     14  C9  NON d   1     -38.270  22.155  -0.867  0.00  0.00     0.232 C 
ATOM     15  C16 NON d   1     -37.090  22.668  -1.658  0.00  0.00     0.088 C 
ATOM     16  C17 NON d   1     -37.420  22.014  -2.952  0.00  0.00     0.153 C 
BRANCH  14  17
ATOM     17  N1  NON d   1     -38.234  22.716   0.503  0.00  0.00    -0.315 N 
ATOM     18  C10 NON d   1     -37.293  22.548   1.476  0.00  0.00     0.096 A 
ATOM     19  C11 NON d   1     -37.664  23.286   2.606  0.00  0.00     0.038 A 
ATOM     20  C12 NON d   1     -38.890  23.928   2.295  0.00  0.00     0.078 A 
ATOM     21  C13 NON d   1     -39.731  24.822   3.078  0.00  0.00     0.263 A 
ATOM     22  C15 NON d   1     -39.199  23.598   1.009  0.00  0.00     0.129 A 
ATOM     23  O4  NON d   1     -39.479  25.163   4.233  0.00  0.00    -0.267 OA
ATOM     24  N2  NON d   1     -40.856  25.273   2.442  0.00  0.00    -0.275 N 
ATOM     25  C14 NON d   1     -41.215  25.000   1.172  0.00  0.00     0.328 A 
ATOM     26  H12 NON d   1     -41.449  25.887   2.975  0.00  0.00     0.173 HD
ATOM     27  O5  NON d   1     -42.198  25.401   0.565  0.00  0.00    -0.247 OA
ATOM     28  N3  NON d   1     -40.335  24.143   0.434  0.00  0.00    -0.293 N 
ATOM     29  H13 NON d   1     -40.598  23.974  -0.527  0.00  0.00     0.172 HD
ENDBRANCH  14  17
BRANCH  16  30
ATOM     30  O6  NON d   1     -37.417  20.620  -2.690  0.00  0.00    -0.393 OA
ATOM     31  H17 NON d   1     -37.693  20.132  -3.475  0.00  0.00     0.210 HD
ENDBRANCH  16  30
ENDBRANCH  11  12
ENDBRANCH  10  11
ENDBRANCH   1  10
BRANCH   1  32
ATOM     32  C18 NON d   1     -40.239  18.335  -3.620  0.00  0.00    -0.015 A 
ATOM     33  C19 NON d   1     -40.877  17.580  -2.617  0.00  0.00     0.011 A 
ATOM     34  C20 NON d   1     -40.122  16.857  -1.683  0.00  0.00     0.001 A 
ATOM     35  C21 NON d   1     -38.725  16.922  -1.686  0.00  0.00     0.000 A 
ATOM     36  C22 NON d   1     -38.066  17.641  -2.674  0.00  0.00     0.001 A 
ATOM     37  C23 NON d   1     -38.809  18.281  -3.664  0.00  0.00     0.011 A 
ENDBRANCH   1  32
BRANCH   1  38
ATOM     38  C24 NON d   1     -40.742  19.389  -6.418  0.00  0.00    -0.014 C 
ATOM     39  C25 NON d   1     -41.242  20.599  -7.022  0.00  0.00     0.013 C 
ATOM     40  C26 NON d   1     -41.034  21.111  -8.307  0.00  0.00     0.037 C 
ATOM     41  C27 NON d   1     -40.085  20.495  -9.066  0.00  0.00     0.068 C 
ATOM     42  C29 NON d   1     -39.591  19.258  -8.607  0.00  0.00     0.037 C 
ATOM     43  C30 NON d   1     -39.927  18.692  -7.317  0.00  0.00     0.013 C 
BRANCH  41  44
ATOM     44  O7  NON d   1     -39.565  21.093 -10.185  0.00  0.00    -0.356 OA
ATOM     45  C28 NON d   1     -38.132  21.237 -10.171  0.00  0.00     0.210 C 
ENDBRANCH  41  44
ENDBRANCH   1  38
TORSDOF 10
ENDMDL
MODEL 5
REMARK VINA RESULT:   -10.638      1.524      2.106
REMARK INTER + INTRA:         -16.223
REMARK INTER:                 -13.621
REMARK INTRA:                  -2.602
REMARK CONF_INDEPENDENT:        2.983
REMARK UNBOUND:                -2.602
REMARK  10 active torsions:
REMARK  status: ('A' for Active; 'I' for Inactive)
REMARK    1  A    between atoms: O1_2  and  C2_3 
REMARK    2  A    between atoms: C5_6  and  C6_7 
REMARK    3  A    between atoms: C6_7  and  O2_8 
REMARK    4  A    between atoms: C6_7  and  C18_27 
REMARK    5  A    between atoms: C6_7  and  C24_33 
REMARK    6  A    between atoms: O2_8  and  C7_9 
REMARK    7  A    between atoms: C8_10  and  C7_9 
REMARK    8  A    between atoms: C9_12  and  N1_13 
REMARK    9  A    between atoms: C17_25  and  O6_26 
REMARK   10  A    between atoms: C27_36  and  O7_37 
ROOT
ATOM      1  C6  NON d   1     -40.699  19.905  -5.685  0.00  0.00     0.142 C 
ENDROOT
BRANCH   1   2
ATOM      2  C5  NON d   1     -40.464  20.457  -4.266  0.00  0.00    -0.014 C 
ATOM      3  C4  NON d   1     -40.127  19.835  -3.037  0.00  0.00     0.013 C 
ATOM      4  C3  NON d   1     -39.909  20.505  -1.794  0.00  0.00     0.037 C 
ATOM      5  C2  NON d   1     -40.264  21.824  -1.589  0.00  0.00     0.068 C 
ATOM      6  C32 NON d   1     -40.701  22.500  -2.698  0.00  0.00     0.037 C 
ATOM      7  C31 NON d   1     -40.692  21.863  -3.978  0.00  0.00     0.013 C 
BRANCH   5   8
ATOM      8  O1  NON d   1     -40.122  22.260  -0.310  0.00  0.00    -0.356 OA
ATOM      9  C1  NON d   1     -40.313  21.382   0.790  0.00  0.00     0.210 C 
ENDBRANCH   5   8
ENDBRANCH   1   2
BRANCH   1  10
ATOM     10  O2  NON d   1     -40.934  19.353  -7.103  0.00  0.00    -0.363 OA
BRANCH  10  11
ATOM     11  C7  NON d   1     -40.980  20.276  -8.320  0.00  0.00     0.204 C 
BRANCH  11  12
ATOM     12  C8  NON d   1     -39.785  21.053  -9.141  0.00  0.00     0.176 C 
ATOM     13  O3  NON d   1     -39.933  21.392 -10.643  0.00  0.00    -0.356 OA
ATOM     14  C9  NON d   1     -39.577  22.841 -10.794  0.00  0.00     0.232 C 
ATOM     15  C16 NON d   1     -38.646  23.078  -9.628  0.00  0.00     0.088 C 
ATOM     16  C17 NON d   1     -39.456  22.393  -8.586  0.00  0.00     0.153 C 
BRANCH  14  17
ATOM     17  N1  NON d   1     -38.974  23.387 -12.032  0.00  0.00    -0.315 N 
ATOM     18  C10 NON d   1     -37.804  23.043 -12.643  0.00  0.00     0.096 A 
ATOM     19  C11 NON d   1     -37.649  23.810 -13.802  0.00  0.00     0.038 A 
ATOM     20  C12 NON d   1     -38.782  24.659 -13.890  0.00  0.00     0.078 A 
ATOM     21  C13 NON d   1     -39.160  25.656 -14.882  0.00  0.00     0.263 A 
ATOM     22  C15 NON d   1     -39.586  24.364 -12.830  0.00  0.00     0.129 A 
ATOM     23  O4  NON d   1     -38.475  25.938 -15.865  0.00  0.00    -0.267 OA
ATOM     24  N2  NON d   1     -40.353  26.286 -14.652  0.00  0.00    -0.275 N 
ATOM     25  C14 NON d   1     -41.202  26.035 -13.637  0.00  0.00     0.328 A 
ATOM     26  H12 NON d   1     -40.623  26.981 -15.328  0.00  0.00     0.173 HD
ATOM     27  O5  NON d   1     -42.284  26.560 -13.412  0.00  0.00    -0.247 OA
ATOM     28  N3  NON d   1     -40.799  25.021 -12.708  0.00  0.00    -0.293 N 
ATOM     29  H13 NON d   1     -41.460  24.818 -11.971  0.00  0.00     0.172 HD
ENDBRANCH  14  17
BRANCH  16  30
ATOM     30  O6  NON d   1     -40.689  23.095  -8.533  0.00  0.00    -0.393 OA
ATOM     31  H17 NON d   1     -41.216  22.903  -9.318  0.00  0.00     0.210 HD
ENDBRANCH  16  30
ENDBRANCH  11  12
ENDBRANCH  10  11
ENDBRANCH   1  10
BRANCH   1  32
ATOM     32  C18 NON d   1     -39.217  19.604  -6.140  0.00  0.00    -0.015 A 
ATOM     33  C19 NON d   1     -38.042  20.181  -5.622  0.00  0.00     0.011 A 
ATOM     34  C20 NON d   1     -36.788  19.812  -6.128  0.00  0.00     0.001 A 
ATOM     35  C21 NON d   1     -36.681  18.918  -7.198  0.00  0.00     0.000 A 
ATOM     36  C22 NON d   1     -37.819  18.317  -7.716  0.00  0.00     0.001 A 
ATOM     37  C23 NON d   1     -39.060  18.605  -7.153  0.00  0.00     0.011 A 
ENDBRANCH   1  32
BRANCH   1  38
ATOM     38  C24 NON d   1     -42.036  18.968  -5.219  0.00  0.00    -0.014 C 
ATOM     39  C25 NON d   1     -43.352  19.507  -5.452  0.00  0.00     0.013 C 
ATOM     40  C26 NON d   1     -44.602  18.884  -5.372  0.00  0.00     0.037 C 
ATOM     41  C27 NON d   1     -44.603  17.529  -5.230  0.00  0.00     0.068 C 
ATOM     42  C29 NON d   1     -43.379  16.910  -4.914  0.00  0.00     0.037 C 
ATOM     43  C30 NON d   1     -42.113  17.612  -4.880  0.00  0.00     0.013 C 
BRANCH  41  44
ATOM     44  O7  NON d   1     -45.731  16.786  -5.472  0.00  0.00    -0.356 OA
ATOM     45  C28 NON d   1     -46.520  16.504  -4.301  0.00  0.00     0.210 C 
ENDBRANCH  41  44
ENDBRANCH   1  38
TORSDOF 10
ENDMDL
MODEL 6
REMARK VINA RESULT:    -9.438      5.150      9.523
REMARK INTER + INTRA:         -15.743
REMARK INTER:                 -12.421
REMARK INTRA:                  -3.322
REMARK CONF_INDEPENDENT:        2.983
REMARK UNBOUND:                -3.322
REMARK  10 active torsions:
REMARK  status: ('A' for Active; 'I' for Inactive)
REMARK    1  A    between atoms: O1_2  and  C2_3 
REMARK    2  A    between atoms: C5_6  and  C6_7 
REMARK    3  A    between atoms: C6_7  and  O2_8 
REMARK    4  A    between atoms: C6_7  and  C18_27 
REMARK    5  A    between atoms: C6_7  and  C24_33 
REMARK    6  A    between atoms: O2_8  and  C7_9 
REMARK    7  A    between atoms: C8_10  and  C7_9 
REMARK    8  A    between atoms: C9_12  and  N1_13 
REMARK    9  A    between atoms: C17_25  and  O6_26 
REMARK   10  A    between atoms: C27_36  and  O7_37 
ROOT
ATOM      1  C6  NON d   1     -40.541  20.695  -3.172  0.00  0.00     0.142 C 
ENDROOT
BRANCH   1   2
ATOM      2  C5  NON d   1     -40.535  22.209  -3.453  0.00  0.00    -0.014 C 
ATOM      3  C4  NON d   1     -41.486  23.234  -3.216  0.00  0.00     0.013 C 
ATOM      4  C3  NON d   1     -41.311  24.621  -3.512  0.00  0.00     0.037 C 
ATOM      5  C2  NON d   1     -40.286  25.086  -4.313  0.00  0.00     0.068 C 
ATOM      6  C32 NON d   1     -39.355  24.153  -4.685  0.00  0.00     0.037 C 
ATOM      7  C31 NON d   1     -39.435  22.817  -4.183  0.00  0.00     0.013 C 
BRANCH   5   8
ATOM      8  O1  NON d   1     -40.352  26.410  -4.610  0.00  0.00    -0.356 OA
ATOM      9  C1  NON d   1     -41.595  27.038  -4.893  0.00  0.00     0.210 C 
ENDBRANCH   5   8
ENDBRANCH   1   2
BRANCH   1  10
ATOM     10  O2  NON d   1     -40.547  19.181  -2.891  0.00  0.00    -0.363 OA
BRANCH  10  11
ATOM     11  C7  NON d   1     -41.816  18.459  -2.438  0.00  0.00     0.204 C 
BRANCH  11  12
ATOM     12  C8  NON d   1     -42.744  17.322  -3.180  0.00  0.00     0.176 C 
ATOM     13  O3  NON d   1     -44.278  17.287  -2.987  0.00  0.00    -0.356 OA
ATOM     14  C9  NON d   1     -44.882  17.202  -4.356  0.00  0.00     0.232 C 
ATOM     15  C16 NON d   1     -43.790  16.537  -5.161  0.00  0.00     0.088 C 
ATOM     16  C17 NON d   1     -42.653  17.356  -4.664  0.00  0.00     0.153 C 
BRANCH  14  17
ATOM     17  N1  NON d   1     -46.174  16.525  -4.615  0.00  0.00    -0.315 N 
ATOM     18  C10 NON d   1     -46.563  15.802  -5.705  0.00  0.00     0.096 A 
ATOM     19  C11 NON d   1     -47.865  15.331  -5.502  0.00  0.00     0.038 A 
ATOM     20  C12 NON d   1     -48.278  15.796  -4.227  0.00  0.00     0.078 A 
ATOM     21  C13 NON d   1     -49.523  15.609  -3.495  0.00  0.00     0.263 A 
ATOM     22  C15 NON d   1     -47.231  16.486  -3.694  0.00  0.00     0.129 A 
ATOM     23  O4  NON d   1     -50.484  14.975  -3.928  0.00  0.00    -0.267 OA
ATOM     24  N2  NON d   1     -49.568  16.198  -2.260  0.00  0.00    -0.275 N 
ATOM     25  C14 NON d   1     -48.569  16.880  -1.667  0.00  0.00     0.328 A 
ATOM     26  H12 NON d   1     -50.425  16.081  -1.746  0.00  0.00     0.173 HD
ATOM     27  O5  NON d   1     -48.565  17.399  -0.560  0.00  0.00    -0.247 OA
ATOM     28  N3  NON d   1     -47.353  17.005  -2.416  0.00  0.00    -0.293 N 
ATOM     29  H13 NON d   1     -46.601  17.489  -1.947  0.00  0.00     0.172 HD
ENDBRANCH  14  17
BRANCH  16  30
ATOM     30  O6  NON d   1     -42.952  18.694  -5.032  0.00  0.00    -0.393 OA
ATOM     31  H17 NON d   1     -43.641  19.052  -4.460  0.00  0.00     0.210 HD
ENDBRANCH  16  30
ENDBRANCH  11  12
ENDBRANCH  10  11
ENDBRANCH   1  10
BRANCH   1  32
ATOM     32  C18 NON d   1     -40.185  20.122  -4.600  0.00  0.00    -0.015 A 
ATOM     33  C19 NON d   1     -39.192  19.172  -4.904  0.00  0.00     0.011 A 
ATOM     34  C20 NON d   1     -38.990  18.755  -6.227  0.00  0.00     0.001 A 
ATOM     35  C21 NON d   1     -39.723  19.318  -7.276  0.00  0.00     0.000 A 
ATOM     36  C22 NON d   1     -40.723  20.241  -7.006  0.00  0.00     0.001 A 
ATOM     37  C23 NON d   1     -40.995  20.587  -5.685  0.00  0.00     0.011 A 
ENDBRANCH   1  32
BRANCH   1  38
ATOM     38  C24 NON d   1     -39.723  20.854  -1.693  0.00  0.00    -0.014 C 
ATOM     39  C25 NON d   1     -38.288  20.722  -1.698  0.00  0.00     0.013 C 
ATOM     40  C26 NON d   1     -37.358  21.012  -0.694  0.00  0.00     0.037 C 
ATOM     41  C27 NON d   1     -37.823  21.685   0.395  0.00  0.00     0.068 C 
ATOM     42  C29 NON d   1     -39.219  21.797   0.541  0.00  0.00     0.037 C 
ATOM     43  C30 NON d   1     -40.165  21.368  -0.469  0.00  0.00     0.013 C 
BRANCH  41  44
ATOM     44  O7  NON d   1     -36.968  22.308   1.269  0.00  0.00    -0.356 OA
ATOM     45  C28 NON d   1     -37.621  23.118   2.264  0.00  0.00     0.210 C 
ENDBRANCH  41  44
ENDBRANCH   1  38
TORSDOF 10
ENDMDL
MODEL 7
REMARK VINA RESULT:    -9.330      1.902      4.970
REMARK INTER + INTRA:         -15.265
REMARK INTER:                 -12.313
REMARK INTRA:                  -2.952
REMARK CONF_INDEPENDENT:        2.983
REMARK UNBOUND:                -2.952
REMARK  10 active torsions:
REMARK  status: ('A' for Active; 'I' for Inactive)
REMARK    1  A    between atoms: O1_2  and  C2_3 
REMARK    2  A    between atoms: C5_6  and  C6_7 
REMARK    3  A    between atoms: C6_7  and  O2_8 
REMARK    4  A    between atoms: C6_7  and  C18_27 
REMARK    5  A    between atoms: C6_7  and  C24_33 
REMARK    6  A    between atoms: O2_8  and  C7_9 
REMARK    7  A    between atoms: C8_10  and  C7_9 
REMARK    8  A    between atoms: C9_12  and  N1_13 
REMARK    9  A    between atoms: C17_25  and  O6_26 
REMARK   10  A    between atoms: C27_36  and  O7_37 
ROOT
ATOM      1  C6  NON d   1     -40.655  20.521  -4.783  0.00  0.00     0.142 C 
ENDROOT
BRANCH   1   2
ATOM      2  C5  NON d   1     -41.736  19.446  -4.570  0.00  0.00    -0.014 C 
ATOM      3  C4  NON d   1     -41.695  18.136  -4.029  0.00  0.00     0.013 C 
ATOM      4  C3  NON d   1     -42.815  17.263  -3.868  0.00  0.00     0.037 C 
ATOM      5  C2  NON d   1     -44.035  17.500  -4.471  0.00  0.00     0.068 C 
ATOM      6  C32 NON d   1     -44.155  18.705  -5.112  0.00  0.00     0.037 C 
ATOM      7  C31 NON d   1     -43.089  19.657  -5.060  0.00  0.00     0.013 C 
BRANCH   5   8
ATOM      8  O1  NON d   1     -44.942  16.499  -4.334  0.00  0.00    -0.356 OA
ATOM      9  C1  NON d   1     -46.158  16.505  -5.069  0.00  0.00     0.210 C 
ENDBRANCH   5   8
ENDBRANCH   1   2
BRANCH   1  10
ATOM     10  O2  NON d   1     -39.573  21.596  -4.996  0.00  0.00    -0.363 OA
BRANCH  10  11
ATOM     11  C7  NON d   1     -39.753  22.716  -6.020  0.00  0.00     0.204 C 
BRANCH  11  12
ATOM     12  C8  NON d   1     -39.041  22.981  -7.479  0.00  0.00     0.176 C 
ATOM     13  O3  NON d   1     -39.634  22.392  -8.781  0.00  0.00    -0.356 OA
ATOM     14  C9  NON d   1     -39.717  23.521  -9.764  0.00  0.00     0.232 C 
ATOM     15  C16 NON d   1     -38.626  24.453  -9.294  0.00  0.00     0.088 C 
ATOM     16  C17 NON d   1     -38.950  24.420  -7.843  0.00  0.00     0.153 C 
BRANCH  14  17
ATOM     17  N1  NON d   1     -39.599  23.312 -11.226  0.00  0.00    -0.315 N 
ATOM     18  C10 NON d   1     -38.985  22.299 -11.903  0.00  0.00     0.096 A 
ATOM     19  C11 NON d   1     -39.144  22.503 -13.278  0.00  0.00     0.038 A 
ATOM     20  C12 NON d   1     -39.890  23.700 -13.433  0.00  0.00     0.078 A 
ATOM     21  C13 NON d   1     -40.356  24.392 -14.627  0.00  0.00     0.263 A 
ATOM     22  C15 NON d   1     -40.183  24.154 -12.183  0.00  0.00     0.129 A 
ATOM     23  O4  NON d   1     -40.134  24.005 -15.774  0.00  0.00    -0.267 OA
ATOM     24  N2  NON d   1     -41.076  25.533 -14.397  0.00  0.00    -0.275 N 
ATOM     25  C14 NON d   1     -41.414  26.031 -13.192  0.00  0.00     0.328 A 
ATOM     26  H12 NON d   1     -41.399  26.024 -15.214  0.00  0.00     0.173 HD
ATOM     27  O5  NON d   1     -42.072  27.033 -12.948  0.00  0.00    -0.247 OA
ATOM     28  N3  NON d   1     -40.959  25.294 -12.050  0.00  0.00    -0.293 N 
ATOM     29  H13 NON d   1     -41.249  25.659 -11.153  0.00  0.00     0.172 HD
ENDBRANCH  14  17
BRANCH  16  30
ATOM     30  O6  NON d   1     -40.271  24.925  -7.732  0.00  0.00    -0.393 OA
ATOM     31  H17 NON d   1     -40.903  24.287  -8.083  0.00  0.00     0.210 HD
ENDBRANCH  16  30
ENDBRANCH  11  12
ENDBRANCH  10  11
ENDBRANCH   1  10
BRANCH   1  32
ATOM     32  C18 NON d   1     -40.476  21.065  -3.311  0.00  0.00    -0.015 A 
ATOM     33  C19 NON d   1     -40.051  20.332  -2.187  0.00  0.00     0.011 A 
ATOM     34  C20 NON d   1     -39.937  20.954  -0.935  0.00  0.00     0.001 A 
ATOM     35  C21 NON d   1     -40.304  22.292  -0.764  0.00  0.00     0.000 A 
ATOM     36  C22 NON d   1     -40.706  23.046  -1.857  0.00  0.00     0.001 A 
ATOM     37  C23 NON d   1     -40.728  22.461  -3.121  0.00  0.00     0.011 A 
ENDBRANCH   1  32
BRANCH   1  38
ATOM     38  C24 NON d   1     -39.741  19.551  -5.834  0.00  0.00    -0.014 C 
ATOM     39  C25 NON d   1     -40.134  19.502  -7.220  0.00  0.00     0.013 C 
ATOM     40  C26 NON d   1     -39.457  18.975  -8.325  0.00  0.00     0.037 C 
ATOM     41  C27 NON d   1     -38.160  18.608  -8.131  0.00  0.00     0.068 C 
ATOM     42  C29 NON d   1     -37.698  18.540  -6.802  0.00  0.00     0.037 C 
ATOM     43  C30 NON d   1     -38.476  18.977  -5.662  0.00  0.00     0.013 C 
BRANCH  41  44
ATOM     44  O7  NON d   1     -37.310  18.398  -9.187  0.00  0.00    -0.356 OA
ATOM     45  C28 NON d   1     -36.519  19.545  -9.550  0.00  0.00     0.210 C 
ENDBRANCH  41  44
ENDBRANCH   1  38
TORSDOF 10
ENDMDL
MODEL 8
REMARK VINA RESULT:    -9.291      2.099      5.321
REMARK INTER + INTRA:         -15.220
REMARK INTER:                 -12.274
REMARK INTRA:                  -2.946
REMARK CONF_INDEPENDENT:        2.983
REMARK UNBOUND:                -2.946
REMARK  10 active torsions:
REMARK  status: ('A' for Active; 'I' for Inactive)
REMARK    1  A    between atoms: O1_2  and  C2_3 
REMARK    2  A    between atoms: C5_6  and  C6_7 
REMARK    3  A    between atoms: C6_7  and  O2_8 
REMARK    4  A    between atoms: C6_7  and  C18_27 
REMARK    5  A    between atoms: C6_7  and  C24_33 
REMARK    6  A    between atoms: O2_8  and  C7_9 
REMARK    7  A    between atoms: C8_10  and  C7_9 
REMARK    8  A    between atoms: C9_12  and  N1_13 
REMARK    9  A    between atoms: C17_25  and  O6_26 
REMARK   10  A    between atoms: C27_36  and  O7_37 
ROOT
ATOM      1  C6  NON d   1     -41.236  20.252  -4.971  0.00  0.00     0.142 C 
ENDROOT
BRANCH   1   2
ATOM      2  C5  NON d   1     -42.313  19.153  -5.021  0.00  0.00    -0.014 C 
ATOM      3  C4  NON d   1     -42.241  17.738  -5.046  0.00  0.00     0.013 C 
ATOM      4  C3  NON d   1     -43.356  16.844  -5.060  0.00  0.00     0.037 C 
ATOM      5  C2  NON d   1     -44.645  17.268  -5.319  0.00  0.00     0.068 C 
ATOM      6  C32 NON d   1     -44.815  18.624  -5.413  0.00  0.00     0.037 C 
ATOM      7  C31 NON d   1     -43.716  19.506  -5.167  0.00  0.00     0.013 C 
BRANCH   5   8
ATOM      8  O1  NON d   1     -45.559  16.271  -5.438  0.00  0.00    -0.356 OA
ATOM      9  C1  NON d   1     -46.759  16.282  -4.677  0.00  0.00     0.210 C 
ENDBRANCH   5   8
ENDBRANCH   1   2
BRANCH   1  10
ATOM     10  O2  NON d   1     -40.158  21.352  -4.920  0.00  0.00    -0.363 OA
BRANCH  10  11
ATOM     11  C7  NON d   1     -40.373  22.709  -5.588  0.00  0.00     0.204 C 
BRANCH  11  12
ATOM     12  C8  NON d   1     -39.599  23.438  -6.843  0.00  0.00     0.176 C 
ATOM     13  O3  NON d   1     -40.301  23.651  -8.205  0.00  0.00    -0.356 OA
ATOM     14  C9  NON d   1     -40.094  25.088  -8.576  0.00  0.00     0.232 C 
ATOM     15  C16 NON d   1     -38.814  25.437  -7.854  0.00  0.00     0.088 C 
ATOM     16  C17 NON d   1     -39.154  24.825  -6.543  0.00  0.00     0.153 C 
BRANCH  14  17
ATOM     17  N1  NON d   1     -40.012  25.543  -9.984  0.00  0.00    -0.315 N 
ATOM     18  C10 NON d   1     -39.932  26.813 -10.474  0.00  0.00     0.096 A 
ATOM     19  C11 NON d   1     -39.852  26.762 -11.870  0.00  0.00     0.038 A 
ATOM     20  C12 NON d   1     -39.887  25.392 -12.236  0.00  0.00     0.078 A 
ATOM     21  C13 NON d   1     -39.830  24.745 -13.539  0.00  0.00     0.263 A 
ATOM     22  C15 NON d   1     -39.950  24.671 -11.081  0.00  0.00     0.129 A 
ATOM     23  O4  NON d   1     -39.750  25.355 -14.604  0.00  0.00    -0.267 OA
ATOM     24  N2  NON d   1     -39.873  23.377 -13.514  0.00  0.00    -0.275 N 
ATOM     25  C14 NON d   1     -39.920  22.602 -12.413  0.00  0.00     0.328 A 
ATOM     26  H12 NON d   1     -39.839  22.917 -14.409  0.00  0.00     0.173 HD
ATOM     27  O5  NON d   1     -39.938  21.381 -12.351  0.00  0.00    -0.247 OA
ATOM     28  N3  NON d   1     -39.941  23.288 -11.154  0.00  0.00    -0.293 N 
ATOM     29  H13 NON d   1     -39.941  22.696 -10.336  0.00  0.00     0.172 HD
ENDBRANCH  14  17
BRANCH  16  30
ATOM     30  O6  NON d   1     -40.313  25.506  -6.089  0.00  0.00    -0.393 OA
ATOM     31  H17 NON d   1     -40.081  26.386  -5.770  0.00  0.00     0.210 HD
ENDBRANCH  16  30
ENDBRANCH  11  12
ENDBRANCH  10  11
ENDBRANCH   1  10
BRANCH   1  32
ATOM     32  C18 NON d   1     -40.905  20.280  -3.427  0.00  0.00    -0.015 A 
ATOM     33  C19 NON d   1     -41.025  19.210  -2.519  0.00  0.00     0.011 A 
ATOM     34  C20 NON d   1     -40.690  19.384  -1.169  0.00  0.00     0.001 A 
ATOM     35  C21 NON d   1     -40.296  20.634  -0.683  0.00  0.00     0.000 A 
ATOM     36  C22 NON d   1     -40.149  21.703  -1.557  0.00  0.00     0.001 A 
ATOM     37  C23 NON d   1     -40.385  21.512  -2.916  0.00  0.00     0.011 A 
ENDBRANCH   1  32
BRANCH   1  38
ATOM     38  C24 NON d   1     -40.447  19.698  -6.368  0.00  0.00    -0.014 C 
ATOM     39  C25 NON d   1     -40.606  20.460  -7.581  0.00  0.00     0.013 C 
ATOM     40  C26 NON d   1     -39.918  20.366  -8.795  0.00  0.00     0.037 C 
ATOM     41  C27 NON d   1     -38.812  19.571  -8.812  0.00  0.00     0.068 C 
ATOM     42  C29 NON d   1     -38.609  18.720  -7.709  0.00  0.00     0.037 C 
ATOM     43  C30 NON d   1     -39.422  18.756  -6.511  0.00  0.00     0.013 C 
BRANCH  41  44
ATOM     44  O7  NON d   1     -37.885  19.658  -9.819  0.00  0.00    -0.356 OA
ATOM     45  C28 NON d   1     -37.598  21.002 -10.249  0.00  0.00     0.210 C 
ENDBRANCH  41  44
ENDBRANCH   1  38
TORSDOF 10
ENDMDL
