MODEL 1
REMARK VINA RESULT:   -13.500      0.000      0.000
REMARK INTER + INTRA:         -15.655
REMARK INTER:                 -15.588
REMARK INTRA:                  -0.067
REMARK CONF_INDEPENDENT:        2.088
REMARK UNBOUND:                -0.067
REMARK  7 active torsions:
REMARK  status: ('A' for Active; 'I' for Inactive)
REMARK    1  A    between atoms: O1_2  and  C2_3 
REMARK    2  A    between atoms: C2_3  and  C3_5 
REMARK    3  A    between atoms: C3_5  and  N1_8 
REMARK    4  A    between atoms: N1_8  and  C6_9 
REMARK    5  A    between atoms: C6_9  and  C7_10 
REMARK    6  A    between atoms: C11_14  and  O3_15 
REMARK    7  A    between atoms: O3_15  and  C12_16 
ROOT
ATOM      1  C7  NON d   1     -42.389  17.568  -4.029  0.00  0.00    -0.028 A 
ATOM      2  C8  NON d   1     -41.824  18.349  -3.014  0.00  0.00     0.009 A 
ATOM      3  C9  NON d   1     -40.888  19.343  -3.304  0.00  0.00     0.003 A 
ATOM      4  C10 NON d   1     -40.498  19.578  -4.624  0.00  0.00     0.037 A 
ATOM      5  C11 NON d   1     -41.034  18.802  -5.644  0.00  0.00     0.075 A 
ATOM      6  C13 NON d   1     -41.981  17.813  -5.356  0.00  0.00     0.045 A 
ENDROOT
BRANCH   1   7
ATOM      7  C6  NON d   1     -43.447  16.507  -3.795  0.00  0.00     0.310 C 
BRANCH   7   8
ATOM      8  N1  NON d   1     -44.780  17.024  -3.412  0.00  0.00     0.106 N 
ATOM      9  H10 NON d   1     -45.082  16.727  -2.486  0.00  0.00     0.317 HD
BRANCH   8  10
ATOM     10  C3  NON d   1     -45.875  16.886  -4.486  0.00  0.00     0.237 C 
ATOM     11  C4  NON d   1     -45.060  17.786  -5.432  0.00  0.00     0.060 C 
ATOM     12  C5  NON d   1     -46.689  15.984  -3.539  0.00  0.00     0.060 C 
BRANCH  10  13
ATOM     13  C2  NON d   1     -46.969  16.747  -5.560  0.00  0.00     0.296 C 
ATOM     14  O2  NON d   1     -47.442  17.649  -6.260  0.00  0.00    -0.262 OA
BRANCH  13  15
ATOM     15  O1  NON d   1     -47.634  15.380  -5.810  0.00  0.00    -0.324 OA
ATOM     16  C1  NON d   1     -48.928  15.005  -5.065  0.00  0.00     0.213 C 
ENDBRANCH  13  15
ENDBRANCH  10  13
ENDBRANCH   8  10
ENDBRANCH   7   8
ENDBRANCH   1   7
BRANCH   5  17
ATOM     17  O3  NON d   1     -40.701  19.107  -6.934  0.00  0.00    -0.290 OA
BRANCH  17  18
ATOM     18  C12 NON d   1     -39.351  18.755  -7.214  0.00  0.00     0.505 C 
ATOM     19  F1  NON d   1     -38.680  19.908  -7.461  0.00  0.00    -0.184 F 
ATOM     20  F2  NON d   1     -39.303  18.030  -8.359  0.00  0.00    -0.184 F 
ENDBRANCH  17  18
ENDBRANCH   5  17
TORSDOF 7
ENDMDL
MODEL 2
REMARK VINA RESULT:   -13.445      0.556      1.143
REMARK INTER + INTRA:         -15.650
REMARK INTER:                 -15.533
REMARK INTRA:                  -0.117
REMARK CONF_INDEPENDENT:        2.088
REMARK UNBOUND:                -0.117
REMARK  7 active torsions:
REMARK  status: ('A' for Active; 'I' for Inactive)
REMARK    1  A    between atoms: O1_2  and  C2_3 
REMARK    2  A    between atoms: C2_3  and  C3_5 
REMARK    3  A    between atoms: C3_5  and  N1_8 
REMARK    4  A    between atoms: N1_8  and  C6_9 
REMARK    5  A    between atoms: C6_9  and  C7_10 
REMARK    6  A    between atoms: C11_14  and  O3_15 
REMARK    7  A    between atoms: O3_15  and  C12_16 
ROOT
ATOM      1  C7  NON d   1     -42.359  17.571  -3.824  0.00  0.00    -0.028 A 
ATOM      2  C8  NON d   1     -41.650  18.008  -2.700  0.00  0.00     0.009 A 
ATOM      3  C9  NON d   1     -40.690  19.016  -2.798  0.00  0.00     0.003 A 
ATOM      4  C10 NON d   1     -40.420  19.612  -4.033  0.00  0.00     0.037 A 
ATOM      5  C11 NON d   1     -41.102  19.180  -5.163  0.00  0.00     0.075 A 
ATOM      6  C13 NON d   1     -42.073  18.178  -5.064  0.00  0.00     0.045 A 
ENDROOT
BRANCH   1   7
ATOM      7  C6  NON d   1     -43.450  16.518  -3.783  0.00  0.00     0.310 C 
BRANCH   7   8
ATOM      8  N1  NON d   1     -44.788  17.016  -3.393  0.00  0.00     0.106 N 
ATOM      9  H10 NON d   1     -45.087  16.703  -2.471  0.00  0.00     0.317 HD
BRANCH   8  10
ATOM     10  C3  NON d   1     -45.882  16.881  -4.469  0.00  0.00     0.237 C 
ATOM     11  C4  NON d   1     -46.724  16.025  -3.505  0.00  0.00     0.060 C 
ATOM     12  C5  NON d   1     -45.039  17.737  -5.433  0.00  0.00     0.060 C 
BRANCH  10  13
ATOM     13  C2  NON d   1     -46.975  16.745  -5.545  0.00  0.00     0.296 C 
ATOM     14  O2  NON d   1     -47.447  17.649  -6.243  0.00  0.00    -0.262 OA
BRANCH  13  15
ATOM     15  O1  NON d   1     -47.639  15.379  -5.800  0.00  0.00    -0.324 OA
ATOM     16  C1  NON d   1     -48.935  15.002  -5.057  0.00  0.00     0.213 C 
ENDBRANCH  13  15
ENDBRANCH  10  13
ENDBRANCH   8  10
ENDBRANCH   7   8
ENDBRANCH   1   7
BRANCH   5  17
ATOM     17  O3  NON d   1     -40.882  19.836  -6.343  0.00  0.00    -0.290 OA
BRANCH  17  18
ATOM     18  C12 NON d   1     -39.726  19.333  -7.004  0.00  0.00     0.505 C 
ATOM     19  F1  NON d   1     -39.600  20.020  -8.167  0.00  0.00    -0.184 F 
ATOM     20  F2  NON d   1     -39.930  18.036  -7.344  0.00  0.00    -0.184 F 
ENDBRANCH  17  18
ENDBRANCH   5  17
TORSDOF 7
ENDMDL
MODEL 3
REMARK VINA RESULT:   -13.139      1.338      1.422
REMARK INTER + INTRA:         -15.418
REMARK INTER:                 -15.227
REMARK INTRA:                  -0.191
REMARK CONF_INDEPENDENT:        2.088
REMARK UNBOUND:                -0.191
REMARK  7 active torsions:
REMARK  status: ('A' for Active; 'I' for Inactive)
REMARK    1  A    between atoms: O1_2  and  C2_3 
REMARK    2  A    between atoms: C2_3  and  C3_5 
REMARK    3  A    between atoms: C3_5  and  N1_8 
REMARK    4  A    between atoms: N1_8  and  C6_9 
REMARK    5  A    between atoms: C6_9  and  C7_10 
REMARK    6  A    between atoms: C11_14  and  O3_15 
REMARK    7  A    between atoms: O3_15  and  C12_16 
ROOT
ATOM      1  C7  NON d   1     -42.262  17.618  -3.588  0.00  0.00    -0.028 A 
ATOM      2  C8  NON d   1     -41.465  17.628  -2.438  0.00  0.00     0.009 A 
ATOM      3  C9  NON d   1     -40.491  18.609  -2.243  0.00  0.00     0.003 A 
ATOM      4  C10 NON d   1     -40.296  19.607  -3.201  0.00  0.00     0.037 A 
ATOM      5  C11 NON d   1     -41.065  19.603  -4.358  0.00  0.00     0.075 A 
ATOM      6  C13 NON d   1     -42.050  18.628  -4.549  0.00  0.00     0.045 A 
ENDROOT
BRANCH   1   7
ATOM      7  C6  NON d   1     -43.371  16.616  -3.844  0.00  0.00     0.310 C 
BRANCH   7   8
ATOM      8  N1  NON d   1     -44.718  17.046  -3.406  0.00  0.00     0.106 N 
ATOM      9  H10 NON d   1     -44.986  16.683  -2.493  0.00  0.00     0.317 HD
BRANCH   8  10
ATOM     10  C3  NON d   1     -45.829  16.916  -4.465  0.00  0.00     0.237 C 
ATOM     11  C4  NON d   1     -45.007  17.786  -5.434  0.00  0.00     0.060 C 
ATOM     12  C5  NON d   1     -46.650  16.046  -3.496  0.00  0.00     0.060 C 
BRANCH  10  13
ATOM     13  C2  NON d   1     -46.939  16.786  -5.524  0.00  0.00     0.296 C 
ATOM     14  O2  NON d   1     -47.440  17.697  -6.191  0.00  0.00    -0.262 OA
BRANCH  13  15
ATOM     15  O1  NON d   1     -47.582  15.414  -5.800  0.00  0.00    -0.324 OA
ATOM     16  C1  NON d   1     -48.870  15.005  -5.062  0.00  0.00     0.213 C 
ENDBRANCH  13  15
ENDBRANCH  10  13
ENDBRANCH   8  10
ENDBRANCH   7   8
ENDBRANCH   1   7
BRANCH   5  17
ATOM     17  O3  NON d   1     -40.914  20.637  -5.239  0.00  0.00    -0.290 OA
BRANCH  17  18
ATOM     18  C12 NON d   1     -40.957  20.175  -6.585  0.00  0.00     0.505 C 
ATOM     19  F1  NON d   1     -40.586  21.214  -7.376  0.00  0.00    -0.184 F 
ATOM     20  F2  NON d   1     -42.237  19.877  -6.919  0.00  0.00    -0.184 F 
ENDBRANCH  17  18
ENDBRANCH   5  17
TORSDOF 7
ENDMDL
MODEL 4
REMARK VINA RESULT:   -12.887      2.468      3.109
REMARK INTER + INTRA:         -15.045
REMARK INTER:                 -14.975
REMARK INTRA:                  -0.070
REMARK CONF_INDEPENDENT:        2.088
REMARK UNBOUND:                -0.070
REMARK  7 active torsions:
REMARK  status: ('A' for Active; 'I' for Inactive)
REMARK    1  A    between atoms: O1_2  and  C2_3 
REMARK    2  A    between atoms: C2_3  and  C3_5 
REMARK    3  A    between atoms: C3_5  and  N1_8 
REMARK    4  A    between atoms: N1_8  and  C6_9 
REMARK    5  A    between atoms: C6_9  and  C7_10 
REMARK    6  A    between atoms: C11_14  and  O3_15 
REMARK    7  A    between atoms: O3_15  and  C12_16 
ROOT
ATOM      1  C7  NON d   1     -42.361  17.573  -3.925  0.00  0.00    -0.028 A 
ATOM      2  C8  NON d   1     -41.808  17.956  -5.152  0.00  0.00     0.009 A 
ATOM      3  C9  NON d   1     -40.775  18.893  -5.217  0.00  0.00     0.003 A 
ATOM      4  C10 NON d   1     -40.270  19.466  -4.048  0.00  0.00     0.037 A 
ATOM      5  C11 NON d   1     -40.818  19.112  -2.822  0.00  0.00     0.075 A 
ATOM      6  C13 NON d   1     -41.846  18.164  -2.753  0.00  0.00     0.045 A 
ENDROOT
BRANCH   1   7
ATOM      7  C6  NON d   1     -43.449  16.527  -3.773  0.00  0.00     0.310 C 
BRANCH   7   8
ATOM      8  N1  NON d   1     -44.781  17.056  -3.404  0.00  0.00     0.106 N 
ATOM      9  H10 NON d   1     -45.089  16.774  -2.475  0.00  0.00     0.317 HD
BRANCH   8  10
ATOM     10  C3  NON d   1     -45.871  16.907  -4.481  0.00  0.00     0.237 C 
ATOM     11  C4  NON d   1     -45.054  17.799  -5.433  0.00  0.00     0.060 C 
ATOM     12  C5  NON d   1     -46.689  16.014  -3.529  0.00  0.00     0.060 C 
BRANCH  10  13
ATOM     13  C2  NON d   1     -46.962  16.758  -5.558  0.00  0.00     0.296 C 
ATOM     14  O2  NON d   1     -47.440  17.655  -6.260  0.00  0.00    -0.262 OA
BRANCH  13  15
ATOM     15  O1  NON d   1     -47.613  15.385  -5.809  0.00  0.00    -0.324 OA
ATOM     16  C1  NON d   1     -48.909  15.001  -5.072  0.00  0.00     0.213 C 
ENDBRANCH  13  15
ENDBRANCH  10  13
ENDBRANCH   8  10
ENDBRANCH   7   8
ENDBRANCH   1   7
BRANCH   5  17
ATOM     17  O3  NON d   1     -40.252  19.622  -1.687  0.00  0.00    -0.290 OA
BRANCH  17  18
ATOM     18  C12 NON d   1     -39.840  20.971  -1.879  0.00  0.00     0.505 C 
ATOM     19  F1  NON d   1     -39.860  21.572  -0.663  0.00  0.00    -0.184 F 
ATOM     20  F2  NON d   1     -40.756  21.617  -2.642  0.00  0.00    -0.184 F 
ENDBRANCH  17  18
ENDBRANCH   5  17
TORSDOF 7
ENDMDL
MODEL 5
REMARK VINA RESULT:   -12.720      2.055      2.733
REMARK INTER + INTRA:         -15.009
REMARK INTER:                 -14.808
REMARK INTRA:                  -0.201
REMARK CONF_INDEPENDENT:        2.088
REMARK UNBOUND:                -0.201
REMARK  7 active torsions:
REMARK  status: ('A' for Active; 'I' for Inactive)
REMARK    1  A    between atoms: O1_2  and  C2_3 
REMARK    2  A    between atoms: C2_3  and  C3_5 
REMARK    3  A    between atoms: C3_5  and  N1_8 
REMARK    4  A    between atoms: N1_8  and  C6_9 
REMARK    5  A    between atoms: C6_9  and  C7_10 
REMARK    6  A    between atoms: C11_14  and  O3_15 
REMARK    7  A    between atoms: O3_15  and  C12_16 
ROOT
ATOM      1  C7  NON d   1     -42.276  17.607  -4.005  0.00  0.00    -0.028 A 
ATOM      2  C8  NON d   1     -41.931  17.993  -5.305  0.00  0.00     0.009 A 
ATOM      3  C9  NON d   1     -40.852  18.847  -5.543  0.00  0.00     0.003 A 
ATOM      4  C10 NON d   1     -40.091  19.332  -4.477  0.00  0.00     0.037 A 
ATOM      5  C11 NON d   1     -40.429  18.973  -3.178  0.00  0.00     0.075 A 
ATOM      6  C13 NON d   1     -41.502  18.109  -2.939  0.00  0.00     0.045 A 
ENDROOT
BRANCH   1   7
ATOM      7  C6  NON d   1     -43.401  16.645  -3.676  0.00  0.00     0.310 C 
BRANCH   7   8
ATOM      8  N1  NON d   1     -44.709  17.282  -3.398  0.00  0.00     0.106 N 
ATOM      9  H10 NON d   1     -45.042  17.131  -2.447  0.00  0.00     0.317 HD
BRANCH   8  10
ATOM     10  C3  NON d   1     -45.793  17.056  -4.468  0.00  0.00     0.237 C 
ATOM     11  C4  NON d   1     -46.554  16.130  -3.501  0.00  0.00     0.060 C 
ATOM     12  C5  NON d   1     -45.032  17.983  -5.434  0.00  0.00     0.060 C 
BRANCH  10  13
ATOM     13  C2  NON d   1     -46.877  16.830  -5.538  0.00  0.00     0.296 C 
ATOM     14  O2  NON d   1     -47.407  17.689  -6.252  0.00  0.00    -0.262 OA
BRANCH  13  15
ATOM     15  O1  NON d   1     -47.452  15.420  -5.765  0.00  0.00    -0.324 OA
ATOM     16  C1  NON d   1     -48.766  15.004  -5.078  0.00  0.00     0.213 C 
ENDBRANCH  13  15
ENDBRANCH  10  13
ENDBRANCH   8  10
ENDBRANCH   7   8
ENDBRANCH   1   7
BRANCH   5  17
ATOM     17  O3  NON d   1     -39.618  19.392  -2.159  0.00  0.00    -0.290 OA
BRANCH  17  18
ATOM     18  C12 NON d   1     -38.293  18.896  -2.319  0.00  0.00     0.505 C 
ATOM     19  F1  NON d   1     -37.644  19.751  -3.150  0.00  0.00    -0.184 F 
ATOM     20  F2  NON d   1     -38.334  17.699  -2.955  0.00  0.00    -0.184 F 
ENDBRANCH  17  18
ENDBRANCH   5  17
TORSDOF 7
ENDMDL
MODEL 6
REMARK VINA RESULT:   -12.115      7.382     10.620
REMARK INTER + INTRA:         -14.726
REMARK INTER:                 -14.203
REMARK INTRA:                  -0.523
REMARK CONF_INDEPENDENT:        2.088
REMARK UNBOUND:                -0.523
REMARK  7 active torsions:
REMARK  status: ('A' for Active; 'I' for Inactive)
REMARK    1  A    between atoms: O1_2  and  C2_3 
REMARK    2  A    between atoms: C2_3  and  C3_5 
REMARK    3  A    between atoms: C3_5  and  N1_8 
REMARK    4  A    between atoms: N1_8  and  C6_9 
REMARK    5  A    between atoms: C6_9  and  C7_10 
REMARK    6  A    between atoms: C11_14  and  O3_15 
REMARK    7  A    between atoms: O3_15  and  C12_16 
ROOT
ATOM      1  C7  NON d   1     -51.605  16.963  -1.967  0.00  0.00    -0.028 A 
ATOM      2  C8  NON d   1     -52.663  16.311  -2.612  0.00  0.00     0.009 A 
ATOM      3  C9  NON d   1     -53.991  16.622  -2.316  0.00  0.00     0.003 A 
ATOM      4  C10 NON d   1     -54.289  17.600  -1.363  0.00  0.00     0.037 A 
ATOM      5  C11 NON d   1     -53.253  18.245  -0.700  0.00  0.00     0.075 A 
ATOM      6  C13 NON d   1     -51.921  17.943  -1.004  0.00  0.00     0.045 A 
ENDROOT
BRANCH   1   7
ATOM      7  C6  NON d   1     -50.141  16.713  -2.274  0.00  0.00     0.310 C 
BRANCH   7   8
ATOM      8  N1  NON d   1     -49.869  15.517  -3.102  0.00  0.00     0.106 N 
ATOM      9  H10 NON d   1     -49.748  14.664  -2.560  0.00  0.00     0.317 HD
BRANCH   8  10
ATOM     10  C3  NON d   1     -48.801  15.702  -4.196  0.00  0.00     0.237 C 
ATOM     11  C4  NON d   1     -48.105  16.772  -3.336  0.00  0.00     0.060 C 
ATOM     12  C5  NON d   1     -49.496  14.630  -5.056  0.00  0.00     0.060 C 
BRANCH  10  13
ATOM     13  C2  NON d   1     -47.732  15.886  -5.290  0.00  0.00     0.296 C 
ATOM     14  O2  NON d   1     -47.041  15.004  -5.809  0.00  0.00    -0.262 OA
BRANCH  13  15
ATOM     15  O1  NON d   1     -47.395  17.297  -5.807  0.00  0.00    -0.324 OA
ATOM     16  C1  NON d   1     -45.930  17.768  -5.861  0.00  0.00     0.213 C 
ENDBRANCH  13  15
ENDBRANCH  10  13
ENDBRANCH   8  10
ENDBRANCH   7   8
ENDBRANCH   1   7
BRANCH   5  17
ATOM     17  O3  NON d   1     -53.567  19.256   0.165  0.00  0.00    -0.290 OA
BRANCH  17  18
ATOM     18  C12 NON d   1     -54.534  20.135  -0.400  0.00  0.00     0.505 C 
ATOM     19  F1  NON d   1     -53.859  21.187  -0.926  0.00  0.00    -0.184 F 
ATOM     20  F2  NON d   1     -55.318  20.636   0.587  0.00  0.00    -0.184 F 
ENDBRANCH  17  18
ENDBRANCH   5  17
TORSDOF 7
ENDMDL
MODEL 7
REMARK VINA RESULT:   -11.737      6.405      9.855
REMARK INTER + INTRA:         -14.168
REMARK INTER:                 -13.825
REMARK INTRA:                  -0.343
REMARK CONF_INDEPENDENT:        2.088
REMARK UNBOUND:                -0.343
REMARK  7 active torsions:
REMARK  status: ('A' for Active; 'I' for Inactive)
REMARK    1  A    between atoms: O1_2  and  C2_3 
REMARK    2  A    between atoms: C2_3  and  C3_5 
REMARK    3  A    between atoms: C3_5  and  N1_8 
REMARK    4  A    between atoms: N1_8  and  C6_9 
REMARK    5  A    between atoms: C6_9  and  C7_10 
REMARK    6  A    between atoms: C11_14  and  O3_15 
REMARK    7  A    between atoms: O3_15  and  C12_16 
ROOT
ATOM      1  C7  NON d   1     -51.814  16.111  -2.501  0.00  0.00    -0.028 A 
ATOM      2  C8  NON d   1     -53.152  15.786  -2.752  0.00  0.00     0.009 A 
ATOM      3  C9  NON d   1     -54.193  16.535  -2.201  0.00  0.00     0.003 A 
ATOM      4  C10 NON d   1     -53.913  17.633  -1.384  0.00  0.00     0.037 A 
ATOM      5  C11 NON d   1     -52.592  17.962  -1.110  0.00  0.00     0.075 A 
ATOM      6  C13 NON d   1     -51.547  17.219  -1.671  0.00  0.00     0.045 A 
ENDROOT
BRANCH   1   7
ATOM      7  C6  NON d   1     -50.634  15.375  -3.105  0.00  0.00     0.310 C 
BRANCH   7   8
ATOM      8  N1  NON d   1     -49.309  15.967  -2.811  0.00  0.00     0.106 N 
ATOM      9  H10 NON d   1     -49.360  16.861  -2.325  0.00  0.00     0.317 HD
BRANCH   8  10
ATOM     10  C3  NON d   1     -48.311  15.967  -3.985  0.00  0.00     0.237 C 
ATOM     11  C4  NON d   1     -47.389  16.919  -3.201  0.00  0.00     0.060 C 
ATOM     12  C5  NON d   1     -49.233  15.014  -4.768  0.00  0.00     0.060 C 
BRANCH  10  13
ATOM     13  C2  NON d   1     -47.314  15.966  -5.158  0.00  0.00     0.296 C 
ATOM     14  O2  NON d   1     -47.005  15.005  -5.870  0.00  0.00    -0.262 OA
BRANCH  13  15
ATOM     15  O1  NON d   1     -46.539  17.250  -5.510  0.00  0.00    -0.324 OA
ATOM     16  C1  NON d   1     -45.075  17.414  -5.062  0.00  0.00     0.213 C 
ENDBRANCH  13  15
ENDBRANCH  10  13
ENDBRANCH   8  10
ENDBRANCH   7   8
ENDBRANCH   1   7
BRANCH   5  17
ATOM     17  O3  NON d   1     -52.343  19.090  -0.379  0.00  0.00    -0.290 OA
BRANCH  17  18
ATOM     18  C12 NON d   1     -51.615  18.786   0.806  0.00  0.00     0.505 C 
ATOM     19  F1  NON d   1     -51.557  19.923   1.543  0.00  0.00    -0.184 F 
ATOM     20  F2  NON d   1     -50.337  18.472   0.481  0.00  0.00    -0.184 F 
ENDBRANCH  17  18
ENDBRANCH   5  17
TORSDOF 7
ENDMDL
MODEL 8
REMARK VINA RESULT:   -11.709      7.089      9.914
REMARK INTER + INTRA:         -14.074
REMARK INTER:                 -13.797
REMARK INTRA:                  -0.277
REMARK CONF_INDEPENDENT:        2.088
REMARK UNBOUND:                -0.277
REMARK  7 active torsions:
REMARK  status: ('A' for Active; 'I' for Inactive)
REMARK    1  A    between atoms: O1_2  and  C2_3 
REMARK    2  A    between atoms: C2_3  and  C3_5 
REMARK    3  A    between atoms: C3_5  and  N1_8 
REMARK    4  A    between atoms: N1_8  and  C6_9 
REMARK    5  A    between atoms: C6_9  and  C7_10 
REMARK    6  A    between atoms: C11_14  and  O3_15 
REMARK    7  A    between atoms: O3_15  and  C12_16 
ROOT
ATOM      1  C7  NON d   1     -50.540  16.820  -1.862  0.00  0.00    -0.028 A 
ATOM      2  C8  NON d   1     -49.751  17.255  -0.792  0.00  0.00     0.009 A 
ATOM      3  C9  NON d   1     -50.277  18.077   0.206  0.00  0.00     0.003 A 
ATOM      4  C10 NON d   1     -51.613  18.481   0.153  0.00  0.00     0.037 A 
ATOM      5  C11 NON d   1     -52.408  18.073  -0.910  0.00  0.00     0.075 A 
ATOM      6  C13 NON d   1     -51.886  17.240  -1.905  0.00  0.00     0.045 A 
ENDROOT
BRANCH   1   7
ATOM      7  C6  NON d   1     -50.052  15.886  -2.953  0.00  0.00     0.310 C 
BRANCH   7   8
ATOM      8  N1  NON d   1     -48.625  15.506  -2.860  0.00  0.00     0.106 N 
ATOM      9  H10 NON d   1     -48.159  15.868  -2.030  0.00  0.00     0.317 HD
BRANCH   8  10
ATOM     10  C3  NON d   1     -47.806  15.696  -4.151  0.00  0.00     0.237 C 
ATOM     11  C4  NON d   1     -48.909  14.982  -4.955  0.00  0.00     0.060 C 
ATOM     12  C5  NON d   1     -46.704  16.411  -3.347  0.00  0.00     0.060 C 
BRANCH  10  13
ATOM     13  C2  NON d   1     -46.988  15.886  -5.441  0.00  0.00     0.296 C 
ATOM     14  O2  NON d   1     -46.632  15.005  -6.232  0.00  0.00    -0.262 OA
BRANCH  13  15
ATOM     15  O1  NON d   1     -46.476  17.286  -5.830  0.00  0.00    -0.324 OA
ATOM     16  C1  NON d   1     -45.076  17.745  -5.383  0.00  0.00     0.213 C 
ENDBRANCH  13  15
ENDBRANCH  10  13
ENDBRANCH   8  10
ENDBRANCH   7   8
ENDBRANCH   1   7
BRANCH   5  17
ATOM     17  O3  NON d   1     -53.733  18.411  -0.896  0.00  0.00    -0.290 OA
BRANCH  17  18
ATOM     18  C12 NON d   1     -53.959  19.571  -0.103  0.00  0.00     0.505 C 
ATOM     19  F1  NON d   1     -55.147  19.398   0.529  0.00  0.00    -0.184 F 
ATOM     20  F2  NON d   1     -54.110  20.648  -0.914  0.00  0.00    -0.184 F 
ENDBRANCH  17  18
ENDBRANCH   5  17
TORSDOF 7
ENDMDL
MODEL 9
REMARK VINA RESULT:   -11.522      6.923     10.327
REMARK INTER + INTRA:         -13.928
REMARK INTER:                 -13.611
REMARK INTRA:                  -0.317
REMARK CONF_INDEPENDENT:        2.088
REMARK UNBOUND:                -0.317
REMARK  7 active torsions:
REMARK  status: ('A' for Active; 'I' for Inactive)
REMARK    1  A    between atoms: O1_2  and  C2_3 
REMARK    2  A    between atoms: C2_3  and  C3_5 
REMARK    3  A    between atoms: C3_5  and  N1_8 
REMARK    4  A    between atoms: N1_8  and  C6_9 
REMARK    5  A    between atoms: C6_9  and  C7_10 
REMARK    6  A    between atoms: C11_14  and  O3_15 
REMARK    7  A    between atoms: O3_15  and  C12_16 
ROOT
ATOM      1  C7  NON d   1     -51.449  16.452  -2.340  0.00  0.00    -0.028 A 
ATOM      2  C8  NON d   1     -51.048  17.263  -1.272  0.00  0.00     0.009 A 
ATOM      3  C9  NON d   1     -51.977  18.002  -0.538  0.00  0.00     0.003 A 
ATOM      4  C10 NON d   1     -53.336  17.941  -0.859  0.00  0.00     0.037 A 
ATOM      5  C11 NON d   1     -53.751  17.155  -1.926  0.00  0.00     0.075 A 
ATOM      6  C13 NON d   1     -52.822  16.404  -2.655  0.00  0.00     0.045 A 
ENDROOT
BRANCH   1   7
ATOM      7  C6  NON d   1     -50.504  15.584  -3.148  0.00  0.00     0.310 C 
BRANCH   7   8
ATOM      8  N1  NON d   1     -49.066  15.791  -2.865  0.00  0.00     0.106 N 
ATOM      9  H10 NON d   1     -48.886  16.527  -2.184  0.00  0.00     0.317 HD
BRANCH   8  10
ATOM     10  C3  NON d   1     -48.154  15.871  -4.104  0.00  0.00     0.237 C 
ATOM     11  C4  NON d   1     -49.162  15.019  -4.899  0.00  0.00     0.060 C 
ATOM     12  C5  NON d   1     -47.147  16.723  -3.309  0.00  0.00     0.060 C 
BRANCH  10  13
ATOM     13  C2  NON d   1     -47.243  15.950  -5.343  0.00  0.00     0.296 C 
ATOM     14  O2  NON d   1     -46.836  15.005  -6.028  0.00  0.00    -0.262 OA
BRANCH  13  15
ATOM     15  O1  NON d   1     -46.697  17.311  -5.811  0.00  0.00    -0.324 OA
ATOM     16  C1  NON d   1     -45.269  17.742  -5.426  0.00  0.00     0.213 C 
ENDBRANCH  13  15
ENDBRANCH  10  13
ENDBRANCH   8  10
ENDBRANCH   7   8
ENDBRANCH   1   7
BRANCH   5  17
ATOM     17  O3  NON d   1     -55.092  17.044  -2.166  0.00  0.00    -0.290 OA
BRANCH  17  18
ATOM     18  C12 NON d   1     -55.603  18.222  -2.781  0.00  0.00     0.505 C 
ATOM     19  F1  NON d   1     -54.943  18.379  -3.956  0.00  0.00    -0.184 F 
ATOM     20  F2  NON d   1     -55.291  19.299  -2.018  0.00  0.00    -0.184 F 
ENDBRANCH  17  18
ENDBRANCH   5  17
TORSDOF 7
ENDMDL
