MODEL 1
REMARK VINA RESULT:   -14.622      0.000      0.000
REMARK INTER + INTRA:         -16.061
REMARK INTER:                 -16.412
REMARK INTRA:                   0.351
REMARK CONF_INDEPENDENT:        1.790
REMARK UNBOUND:                 0.351
REMARK  6 active torsions:
REMARK  status: ('A' for Active; 'I' for Inactive)
REMARK    1  A    between atoms: C2_2  and  N2_15 
REMARK    2  A    between atoms: C3_3  and  C4_4 
REMARK       I    between atoms: C4_4  and  N1_6 
REMARK    3  A    between atoms: N1_6  and  C5_7 
REMARK    4  A    between atoms: N2_15  and  N3_16 
REMARK       I    between atoms: N3_16  and  C12_17 
REMARK    5  A    between atoms: C12_17  and  C13_19 
REMARK       I    between atoms: C13_19  and  N4_21 
REMARK    6  A    between atoms: N4_21  and  C14_22 
ROOT
ATOM      1  N2  NON d   1     -47.758  14.482  -3.570  0.00  0.00    -0.302 N 
ATOM      2  H12 NON d   1     -47.461  13.649  -3.058  0.00  0.00     0.186 HD
ENDROOT
BRANCH   1   3
ATOM      3  C2  NON d   1     -48.956  15.053  -3.168  0.00  0.00     0.027 C 
ATOM      4  C1  NON d   1     -50.280  14.687  -3.864  0.00  0.00     0.070 C 
ATOM      5  C3  NON d   1     -49.093  15.996  -2.134  0.00  0.00     0.100 C 
BRANCH   5   6
ATOM      6  C4  NON d   1     -50.417  16.800  -1.672  0.00  0.00     0.247 C 
ATOM      7  O1  NON d   1     -50.266  17.630  -0.775  0.00  0.00    -0.268 OA
ATOM      8  N1  NON d   1     -51.710  16.496  -2.248  0.00  0.00    -0.323 N 
ATOM      9  H5  NON d   1     -51.760  15.699  -2.867  0.00  0.00     0.169 HD
BRANCH   8  10
ATOM     10  C5  NON d   1     -53.033  17.222  -1.992  0.00  0.00     0.042 A 
ATOM     11  C6  NON d   1     -54.120  16.878  -2.810  0.00  0.00     0.030 A 
ATOM     12  C7  NON d   1     -55.375  17.489  -2.684  0.00  0.00     0.004 A 
ATOM     13  C8  NON d   1     -55.604  18.480  -1.734  0.00  0.00     0.024 A 
ATOM     14  C9  NON d   1     -54.587  18.871  -0.868  0.00  0.00     0.042 A 
ATOM     15 Cl1  NON d   1     -54.936  20.133   0.261  0.00  0.00    -0.084 Cl
ATOM     16  C10 NON d   1     -53.322  18.260  -0.935  0.00  0.00    -0.013 A 
ATOM     17  C11 NON d   1     -52.216  18.736   0.025  0.00  0.00     0.052 C 
ENDBRANCH   8  10
ENDBRANCH   5   6
ENDBRANCH   1   3
BRANCH   1  18
ATOM     18  N3  NON d   1     -46.690  15.249  -4.058  0.00  0.00    -0.262 N 
ATOM     19  C12 NON d   1     -46.824  15.884  -5.278  0.00  0.00     0.328 C 
ATOM     20  O2  NON d   1     -47.593  15.599  -6.185  0.00  0.00    -0.261 OA
ATOM     21  H13 NON d   1     -46.077  15.699  -3.380  0.00  0.00     0.190 HD
BRANCH  19  22
ATOM     22  C13 NON d   1     -45.848  17.072  -5.417  0.00  0.00     0.315 C 
ATOM     23  O3  NON d   1     -46.148  17.977  -6.184  0.00  0.00    -0.262 OA
ATOM     24  N4  NON d   1     -44.729  16.948  -4.621  0.00  0.00    -0.319 N 
ATOM     25  H14 NON d   1     -44.714  16.117  -4.033  0.00  0.00     0.169 HD
BRANCH  24  26
ATOM     26  C14 NON d   1     -43.633  17.831  -4.545  0.00  0.00     0.036 A 
ATOM     27  C15 NON d   1     -43.612  18.910  -5.433  0.00  0.00     0.030 A 
ATOM     28  C16 NON d   1     -42.560  19.832  -5.414  0.00  0.00     0.011 A 
ATOM     29  C17 NON d   1     -41.510  19.703  -4.496  0.00  0.00    -0.040 A 
ATOM     30  C18 NON d   1     -40.386  20.702  -4.504  0.00  0.00     0.050 C 
ATOM     31  C19 NON d   1     -41.535  18.617  -3.608  0.00  0.00     0.042 A 
ATOM     32 Cl2  NON d   1     -40.274  18.377  -2.448  0.00  0.00    -0.084 Cl
ATOM     33  C20 NON d   1     -42.585  17.692  -3.632  0.00  0.00     0.053 A 
ENDBRANCH  24  26
ENDBRANCH  19  22
ENDBRANCH   1  18
TORSDOF 6
ENDMDL
MODEL 2
REMARK VINA RESULT:   -12.321      4.915      7.473
REMARK INTER + INTRA:         -14.968
REMARK INTER:                 -14.111
REMARK INTRA:                  -0.858
REMARK CONF_INDEPENDENT:        1.790
REMARK UNBOUND:                -0.858
REMARK  6 active torsions:
REMARK  status: ('A' for Active; 'I' for Inactive)
REMARK    1  A    between atoms: C2_2  and  N2_15 
REMARK    2  A    between atoms: C3_3  and  C4_4 
REMARK       I    between atoms: C4_4  and  N1_6 
REMARK    3  A    between atoms: N1_6  and  C5_7 
REMARK    4  A    between atoms: N2_15  and  N3_16 
REMARK       I    between atoms: N3_16  and  C12_17 
REMARK    5  A    between atoms: C12_17  and  C13_19 
REMARK       I    between atoms: C13_19  and  N4_21 
REMARK    6  A    between atoms: N4_21  and  C14_22 
ROOT
ATOM      1  N2  NON d   1     -41.269  18.349  -4.918  0.00  0.00    -0.302 N 
ATOM      2  H12 NON d   1     -40.563  18.285  -4.181  0.00  0.00     0.186 HD
ENDROOT
BRANCH   1   3
ATOM      3  C2  NON d   1     -42.540  17.901  -4.589  0.00  0.00     0.027 C 
ATOM      4  C1  NON d   1     -42.752  16.890  -3.447  0.00  0.00     0.070 C 
ATOM      5  C3  NON d   1     -43.725  18.292  -5.236  0.00  0.00     0.100 C 
BRANCH   5   6
ATOM      6  C4  NON d   1     -45.228  17.744  -5.006  0.00  0.00     0.247 C 
ATOM      7  O1  NON d   1     -45.927  17.628  -6.013  0.00  0.00    -0.268 OA
ATOM      8  N1  NON d   1     -45.724  17.474  -3.673  0.00  0.00    -0.323 N 
ATOM      9  H5  NON d   1     -45.131  17.741  -2.900  0.00  0.00     0.169 HD
BRANCH   8  10
ATOM     10  C5  NON d   1     -47.077  16.868  -3.292  0.00  0.00     0.042 A 
ATOM     11  C6  NON d   1     -47.626  17.253  -2.059  0.00  0.00     0.030 A 
ATOM     12  C7  NON d   1     -48.849  16.749  -1.594  0.00  0.00     0.004 A 
ATOM     13  C8  NON d   1     -49.582  15.829  -2.338  0.00  0.00     0.024 A 
ATOM     14  C9  NON d   1     -49.120  15.405  -3.580  0.00  0.00     0.042 A 
ATOM     15 Cl1  NON d   1     -50.065  14.232  -4.430  0.00  0.00    -0.084 Cl
ATOM     16  C10 NON d   1     -47.917  15.911  -4.103  0.00  0.00    -0.013 A 
ATOM     17  C11 NON d   1     -47.428  15.399  -5.471  0.00  0.00     0.052 C 
ENDBRANCH   8  10
ENDBRANCH   5   6
ENDBRANCH   1   3
BRANCH   1  18
ATOM     18  N3  NON d   1     -41.057  19.414  -5.805  0.00  0.00    -0.262 N 
ATOM     19  C12 NON d   1     -40.141  19.261  -6.828  0.00  0.00     0.328 C 
ATOM     20  O2  NON d   1     -39.210  18.471  -6.881  0.00  0.00    -0.261 OA
ATOM     21  H13 NON d   1     -41.836  20.046  -5.986  0.00  0.00     0.190 HD
BRANCH  19  22
ATOM     22  C13 NON d   1     -40.407  20.247  -7.986  0.00  0.00     0.315 C 
ATOM     23  O3  NON d   1     -41.140  19.882  -8.896  0.00  0.00    -0.262 OA
ATOM     24  N4  NON d   1     -39.759  21.454  -7.829  0.00  0.00    -0.319 N 
ATOM     25  H14 NON d   1     -39.227  21.543  -6.965  0.00  0.00     0.169 HD
BRANCH  24  26
ATOM     26  C14 NON d   1     -39.757  22.545  -8.721  0.00  0.00     0.036 A 
ATOM     27  C15 NON d   1     -39.513  22.273 -10.070  0.00  0.00     0.030 A 
ATOM     28  C16 NON d   1     -39.501  23.304 -11.017  0.00  0.00     0.011 A 
ATOM     29  C17 NON d   1     -39.747  24.630 -10.636  0.00  0.00    -0.040 A 
ATOM     30  C18 NON d   1     -39.718  25.720 -11.671  0.00  0.00     0.050 C 
ATOM     31  C19 NON d   1     -39.989  24.897  -9.280  0.00  0.00     0.042 A 
ATOM     32 Cl2  NON d   1     -40.292  26.506  -8.722  0.00  0.00    -0.084 Cl
ATOM     33  C20 NON d   1     -39.995  23.865  -8.334  0.00  0.00     0.053 A 
ENDBRANCH  24  26
ENDBRANCH  19  22
ENDBRANCH   1  18
TORSDOF 6
ENDMDL
MODEL 3
REMARK VINA RESULT:   -12.120      5.363      7.819
REMARK INTER + INTRA:         -15.968
REMARK INTER:                 -13.910
REMARK INTRA:                  -2.059
REMARK CONF_INDEPENDENT:        1.790
REMARK UNBOUND:                -2.059
REMARK  6 active torsions:
REMARK  status: ('A' for Active; 'I' for Inactive)
REMARK    1  A    between atoms: C2_2  and  N2_15 
REMARK    2  A    between atoms: C3_3  and  C4_4 
REMARK       I    between atoms: C4_4  and  N1_6 
REMARK    3  A    between atoms: N1_6  and  C5_7 
REMARK    4  A    between atoms: N2_15  and  N3_16 
REMARK       I    between atoms: N3_16  and  C12_17 
REMARK    5  A    between atoms: C12_17  and  C13_19 
REMARK       I    between atoms: C13_19  and  N4_21 
REMARK    6  A    between atoms: N4_21  and  C14_22 
ROOT
ATOM      1  N2  NON d   1     -41.260  18.274  -4.946  0.00  0.00    -0.302 N 
ATOM      2  H12 NON d   1     -40.595  18.372  -4.175  0.00  0.00     0.186 HD
ENDROOT
BRANCH   1   3
ATOM      3  C2  NON d   1     -42.537  17.858  -4.603  0.00  0.00     0.027 C 
ATOM      4  C1  NON d   1     -42.767  16.903  -3.417  0.00  0.00     0.070 C 
ATOM      5  C3  NON d   1     -43.715  18.233  -5.273  0.00  0.00     0.100 C 
BRANCH   5   6
ATOM      6  C4  NON d   1     -45.225  17.714  -5.025  0.00  0.00     0.247 C 
ATOM      7  O1  NON d   1     -45.944  17.630  -6.022  0.00  0.00    -0.268 OA
ATOM      8  N1  NON d   1     -45.704  17.435  -3.688  0.00  0.00    -0.323 N 
ATOM      9  H5  NON d   1     -45.092  17.675  -2.922  0.00  0.00     0.169 HD
BRANCH   8  10
ATOM     10  C5  NON d   1     -47.064  16.852  -3.293  0.00  0.00     0.042 A 
ATOM     11  C6  NON d   1     -47.598  17.255  -2.060  0.00  0.00     0.030 A 
ATOM     12  C7  NON d   1     -48.825  16.774  -1.582  0.00  0.00     0.004 A 
ATOM     13  C8  NON d   1     -49.577  15.859  -2.314  0.00  0.00     0.024 A 
ATOM     14  C9  NON d   1     -49.131  15.419  -3.556  0.00  0.00     0.042 A 
ATOM     15 Cl1  NON d   1     -50.100  14.255  -4.390  0.00  0.00    -0.084 Cl
ATOM     16  C10 NON d   1     -47.924  15.902  -4.091  0.00  0.00    -0.013 A 
ATOM     17  C11 NON d   1     -47.453  15.373  -5.459  0.00  0.00     0.052 C 
ENDBRANCH   8  10
ENDBRANCH   5   6
ENDBRANCH   1   3
BRANCH   1  18
ATOM     18  N3  NON d   1     -41.020  19.159  -6.007  0.00  0.00    -0.262 N 
ATOM     19  C12 NON d   1     -39.736  19.279  -6.503  0.00  0.00     0.328 C 
ATOM     20  O2  NON d   1     -38.690  19.006  -5.932  0.00  0.00    -0.261 OA
ATOM     21  H13 NON d   1     -41.777  19.325  -6.670  0.00  0.00     0.190 HD
BRANCH  19  22
ATOM     22  C13 NON d   1     -39.727  19.831  -7.944  0.00  0.00     0.315 C 
ATOM     23  O3  NON d   1     -40.791  19.881  -8.548  0.00  0.00    -0.262 OA
ATOM     24  N4  NON d   1     -38.472  20.212  -8.370  0.00  0.00    -0.319 N 
ATOM     25  H14 NON d   1     -37.737  20.110  -7.674  0.00  0.00     0.169 HD
BRANCH  24  26
ATOM     26  C14 NON d   1     -38.116  20.712  -9.638  0.00  0.00     0.036 A 
ATOM     27  C15 NON d   1     -36.919  20.255 -10.198  0.00  0.00     0.030 A 
ATOM     28  C16 NON d   1     -36.502  20.702 -11.457  0.00  0.00     0.011 A 
ATOM     29  C17 NON d   1     -37.279  21.607 -12.191  0.00  0.00    -0.040 A 
ATOM     30  C18 NON d   1     -36.803  22.079 -13.536  0.00  0.00     0.050 C 
ATOM     31  C19 NON d   1     -38.479  22.063 -11.624  0.00  0.00     0.042 A 
ATOM     32 Cl2  NON d   1     -39.495  23.188 -12.458  0.00  0.00    -0.084 Cl
ATOM     33  C20 NON d   1     -38.892  21.619 -10.362  0.00  0.00     0.053 A 
ENDBRANCH  24  26
ENDBRANCH  19  22
ENDBRANCH   1  18
TORSDOF 6
ENDMDL
