MODEL 1
REMARK VINA RESULT:   -11.672      0.000      0.000
REMARK INTER + INTRA:         -14.969
REMARK INTER:                 -14.059
REMARK INTRA:                  -0.910
REMARK CONF_INDEPENDENT:        2.386
REMARK UNBOUND:                -0.910
REMARK  8 active torsions:
REMARK  status: ('A' for Active; 'I' for Inactive)
REMARK    1  A    between atoms: C2_2  and  O1_3 
REMARK    2  A    between atoms: O1_3  and  C3_4 
REMARK    3  A    between atoms: C3_4  and  C4_6 
REMARK    4  A    between atoms: C7_10  and  C8_11 
REMARK       I    between atoms: C8_11  and  N2_13 
REMARK    5  A    between atoms: N2_13  and  C9_14 
REMARK    6  A    between atoms: C12_17  and  C13_18 
REMARK       I    between atoms: C13_18  and  N3_20 
REMARK    7  A    between atoms: N3_20  and  C14_21 
REMARK    8  A    between atoms: C14_21  and  C15_22 
ROOT
ATOM      1  C8  NON d   1     -45.534  17.072  -4.609  0.00  0.00     0.273 C 
ATOM      2  O3  NON d   1     -45.578  16.801  -5.810  0.00  0.00    -0.266 OA
ATOM      3  N2  NON d   1     -44.342  17.590  -4.069  0.00  0.00    -0.322 N 
ATOM      4  H10 NON d   1     -44.251  17.615  -3.065  0.00  0.00     0.169 HD
ENDROOT
BRANCH   3   5
ATOM      5  C9  NON d   1     -43.187  18.056  -4.846  0.00  0.00     0.035 A 
ATOM      6  C10 NON d   1     -43.128  19.392  -5.279  0.00  0.00     0.030 A 
ATOM      7  C11 NON d   1     -42.032  19.884  -6.065  0.00  0.00     0.019 A 
ATOM      8  C12 NON d   1     -40.947  19.071  -6.486  0.00  0.00     0.032 A 
ATOM      9  C18 NON d   1     -41.011  17.745  -6.056  0.00  0.00     0.019 A 
ATOM     10  C19 NON d   1     -42.101  17.255  -5.250  0.00  0.00     0.030 A 
BRANCH   8  11
ATOM     11  C13 NON d   1     -39.840  19.691  -7.367  0.00  0.00     0.251 C 
ATOM     12  O4  NON d   1     -40.038  19.727  -8.582  0.00  0.00    -0.268 OA
ATOM     13  N3  NON d   1     -38.630  20.188  -6.816  0.00  0.00    -0.357 N 
ATOM     14  H13 NON d   1     -38.440  20.001  -5.847  0.00  0.00     0.162 HD
BRANCH  13  15
ATOM     15  C14 NON d   1     -37.461  20.556  -7.688  0.00  0.00     0.126 C 
BRANCH  15  16
ATOM     16  C15 NON d   1     -36.931  19.547  -8.888  0.00  0.00    -0.005 C 
ATOM     17  C16 NON d   1     -36.475  19.868 -10.323  0.00  0.00     0.011 C 
ATOM     18  C17 NON d   1     -36.244  18.421  -8.094  0.00  0.00     0.011 C 
ENDBRANCH  15  16
ENDBRANCH  13  15
ENDBRANCH   8  11
ENDBRANCH   3   5
BRANCH   1  19
ATOM     19  C7  NON d   1     -46.776  16.840  -3.780  0.00  0.00     0.108 A 
ATOM     20  N1  NON d   1     -47.126  17.162  -2.460  0.00  0.00    -0.354 N 
ATOM     21  C5  NON d   1     -48.341  16.547  -2.054  0.00  0.00     0.022 A 
ATOM     22  H9  NON d   1     -46.545  17.699  -1.833  0.00  0.00     0.166 HD
ATOM     23  C4  NON d   1     -48.800  15.839  -3.167  0.00  0.00     0.070 A 
ATOM     24  C6  NON d   1     -48.997  16.664  -0.665  0.00  0.00     0.069 C 
ATOM     25  C20 NON d   1     -47.867  16.088  -4.246  0.00  0.00    -0.011 A 
ATOM     26  C21 NON d   1     -48.021  15.556  -5.644  0.00  0.00     0.052 C 
BRANCH  23  27
ATOM     27  C3  NON d   1     -49.991  14.972  -3.258  0.00  0.00     0.295 C 
ATOM     28  O2  NON d   1     -50.013  13.934  -3.909  0.00  0.00    -0.259 OA
BRANCH  27  29
ATOM     29  O1  NON d   1     -51.067  15.421  -2.542  0.00  0.00    -0.318 OA
BRANCH  29  30
ATOM     30  C2  NON d   1     -51.289  16.829  -2.694  0.00  0.00     0.174 C 
ATOM     31  C1  NON d   1     -52.617  17.190  -2.060  0.00  0.00     0.034 C 
ENDBRANCH  29  30
ENDBRANCH  27  29
ENDBRANCH  23  27
ENDBRANCH   1  19
TORSDOF 8
ENDMDL
MODEL 2
REMARK VINA RESULT:   -11.189      1.571      2.241
REMARK INTER + INTRA:         -14.726
REMARK INTER:                 -13.576
REMARK INTRA:                  -1.150
REMARK CONF_INDEPENDENT:        2.386
REMARK UNBOUND:                -1.150
REMARK  8 active torsions:
REMARK  status: ('A' for Active; 'I' for Inactive)
REMARK    1  A    between atoms: C2_2  and  O1_3 
REMARK    2  A    between atoms: O1_3  and  C3_4 
REMARK    3  A    between atoms: C3_4  and  C4_6 
REMARK    4  A    between atoms: C7_10  and  C8_11 
REMARK       I    between atoms: C8_11  and  N2_13 
REMARK    5  A    between atoms: N2_13  and  C9_14 
REMARK    6  A    between atoms: C12_17  and  C13_18 
REMARK       I    between atoms: C13_18  and  N3_20 
REMARK    7  A    between atoms: N3_20  and  C14_21 
REMARK    8  A    between atoms: C14_21  and  C15_22 
ROOT
ATOM      1  C8  NON d   1     -45.794  16.532  -4.605  0.00  0.00     0.273 C 
ATOM      2  O3  NON d   1     -45.573  16.662  -5.810  0.00  0.00    -0.266 OA
ATOM      3  N2  NON d   1     -44.793  16.892  -3.684  0.00  0.00    -0.322 N 
ATOM      4  H10 NON d   1     -44.904  16.594  -2.727  0.00  0.00     0.169 HD
ENDROOT
BRANCH   3   5
ATOM      5  C9  NON d   1     -43.564  17.627  -4.006  0.00  0.00     0.035 A 
ATOM      6  C10 NON d   1     -43.561  18.558  -5.060  0.00  0.00     0.030 A 
ATOM      7  C11 NON d   1     -42.375  19.278  -5.428  0.00  0.00     0.019 A 
ATOM      8  C12 NON d   1     -41.122  19.096  -4.787  0.00  0.00     0.032 A 
ATOM      9  C18 NON d   1     -41.129  18.171  -3.743  0.00  0.00     0.019 A 
ATOM     10  C19 NON d   1     -42.323  17.461  -3.361  0.00  0.00     0.030 A 
BRANCH   8  11
ATOM     11  C13 NON d   1     -39.896  19.892  -5.292  0.00  0.00     0.251 C 
ATOM     12  O4  NON d   1     -39.859  21.095  -5.033  0.00  0.00    -0.268 OA
ATOM     13  N3  NON d   1     -38.857  19.278  -6.039  0.00  0.00    -0.357 N 
ATOM     14  H13 NON d   1     -38.998  18.337  -6.361  0.00  0.00     0.162 HD
BRANCH  13  15
ATOM     15  C14 NON d   1     -37.804  20.093  -6.737  0.00  0.00     0.126 C 
BRANCH  15  16
ATOM     16  C15 NON d   1     -37.891  20.403  -8.360  0.00  0.00    -0.005 C 
ATOM     17  C16 NON d   1     -36.960  19.961  -9.505  0.00  0.00     0.011 C 
ATOM     18  C17 NON d   1     -39.409  20.505  -8.597  0.00  0.00     0.011 C 
ENDBRANCH  15  16
ENDBRANCH  13  15
ENDBRANCH   8  11
ENDBRANCH   3   5
BRANCH   1  19
ATOM     19  C7  NON d   1     -47.144  15.998  -4.182  0.00  0.00     0.108 A 
ATOM     20  N1  NON d   1     -47.989  15.005  -4.697  0.00  0.00    -0.354 N 
ATOM     21  C5  NON d   1     -49.266  15.000  -4.072  0.00  0.00     0.022 A 
ATOM     22  H9  NON d   1     -47.758  14.411  -5.480  0.00  0.00     0.166 HD
ATOM     23  C4  NON d   1     -49.218  16.002  -3.100  0.00  0.00     0.070 A 
ATOM     24  C6  NON d   1     -50.440  14.064  -4.415  0.00  0.00     0.069 C 
ATOM     25  C20 NON d   1     -47.881  16.558  -3.126  0.00  0.00    -0.011 A 
ATOM     26  C21 NON d   1     -47.387  17.630  -2.194  0.00  0.00     0.052 C 
BRANCH  23  27
ATOM     27  C3  NON d   1     -50.308  16.452  -2.212  0.00  0.00     0.295 C 
ATOM     28  O2  NON d   1     -50.112  16.895  -1.087  0.00  0.00    -0.259 OA
BRANCH  27  29
ATOM     29  O1  NON d   1     -51.557  16.341  -2.758  0.00  0.00    -0.318 OA
BRANCH  29  30
ATOM     30  C2  NON d   1     -52.541  17.115  -2.060  0.00  0.00     0.174 C 
ATOM     31  C1  NON d   1     -53.921  16.612  -2.435  0.00  0.00     0.034 C 
ENDBRANCH  29  30
ENDBRANCH  27  29
ENDBRANCH  23  27
ENDBRANCH   1  19
TORSDOF 8
ENDMDL
MODEL 3
REMARK VINA RESULT:   -10.908      4.317     10.761
REMARK INTER + INTRA:         -14.607
REMARK INTER:                 -13.294
REMARK INTRA:                  -1.312
REMARK CONF_INDEPENDENT:        2.386
REMARK UNBOUND:                -1.312
REMARK  8 active torsions:
REMARK  status: ('A' for Active; 'I' for Inactive)
REMARK    1  A    between atoms: C2_2  and  O1_3 
REMARK    2  A    between atoms: O1_3  and  C3_4 
REMARK    3  A    between atoms: C3_4  and  C4_6 
REMARK    4  A    between atoms: C7_10  and  C8_11 
REMARK       I    between atoms: C8_11  and  N2_13 
REMARK    5  A    between atoms: N2_13  and  C9_14 
REMARK    6  A    between atoms: C12_17  and  C13_18 
REMARK       I    between atoms: C13_18  and  N3_20 
REMARK    7  A    between atoms: N3_20  and  C14_21 
REMARK    8  A    between atoms: C14_21  and  C15_22 
ROOT
ATOM      1  C8  NON d   1     -40.398  19.461  -2.661  0.00  0.00     0.273 C 
ATOM      2  O3  NON d   1     -40.794  18.846  -1.669  0.00  0.00    -0.266 OA
ATOM      3  N2  NON d   1     -41.031  19.242  -3.898  0.00  0.00    -0.322 N 
ATOM      4  H10 NON d   1     -40.575  19.588  -4.729  0.00  0.00     0.169 HD
ENDROOT
BRANCH   3   5
ATOM      5  C9  NON d   1     -42.284  18.504  -4.095  0.00  0.00     0.035 A 
ATOM      6  C10 NON d   1     -43.316  19.070  -4.866  0.00  0.00     0.030 A 
ATOM      7  C11 NON d   1     -44.568  18.397  -5.061  0.00  0.00     0.019 A 
ATOM      8  C12 NON d   1     -44.876  17.138  -4.482  0.00  0.00     0.032 A 
ATOM      9  C18 NON d   1     -43.851  16.581  -3.717  0.00  0.00     0.019 A 
ATOM     10  C19 NON d   1     -42.586  17.247  -3.536  0.00  0.00     0.030 A 
BRANCH   8  11
ATOM     11  C13 NON d   1     -46.273  16.522  -4.721  0.00  0.00     0.251 C 
ATOM     12  O4  NON d   1     -46.806  16.735  -5.810  0.00  0.00    -0.268 OA
ATOM     13  N3  NON d   1     -46.935  15.752  -3.728  0.00  0.00    -0.357 N 
ATOM     14  H13 NON d   1     -46.540  15.731  -2.805  0.00  0.00     0.162 HD
BRANCH  13  15
ATOM     15  C14 NON d   1     -48.383  15.369  -3.866  0.00  0.00     0.126 C 
BRANCH  15  16
ATOM     16  C15 NON d   1     -49.560  16.121  -2.978  0.00  0.00    -0.005 C 
ATOM     17  C16 NON d   1     -51.050  15.771  -2.810  0.00  0.00     0.011 C 
ATOM     18  C17 NON d   1     -48.764  16.693  -1.790  0.00  0.00     0.011 C 
ENDBRANCH  15  16
ENDBRANCH  13  15
ENDBRANCH   8  11
ENDBRANCH   3   5
BRANCH   1  19
ATOM     19  C7  NON d   1     -39.250  20.429  -2.487  0.00  0.00     0.108 A 
ATOM     20  N1  NON d   1     -38.200  20.520  -1.562  0.00  0.00    -0.354 N 
ATOM     21  C5  NON d   1     -37.477  21.738  -1.678  0.00  0.00     0.022 A 
ATOM     22  H9  NON d   1     -38.021  19.840  -0.837  0.00  0.00     0.166 HD
ATOM     23  C4  NON d   1     -38.066  22.431  -2.737  0.00  0.00     0.070 A 
ATOM     24  C6  NON d   1     -36.287  22.173  -0.802  0.00  0.00     0.069 C 
ATOM     25  C20 NON d   1     -39.108  21.582  -3.276  0.00  0.00    -0.011 A 
ATOM     26  C21 NON d   1     -39.955  21.928  -4.469  0.00  0.00     0.052 C 
BRANCH  23  27
ATOM     27  C3  NON d   1     -37.733  23.782  -3.229  0.00  0.00     0.295 C 
ATOM     28  O2  NON d   1     -36.712  24.030  -3.861  0.00  0.00    -0.259 OA
BRANCH  27  29
ATOM     29  O1  NON d   1     -38.668  24.735  -2.928  0.00  0.00    -0.318 OA
BRANCH  29  30
ATOM     30  C2  NON d   1     -39.156  24.633  -1.584  0.00  0.00     0.174 C 
ATOM     31  C1  NON d   1     -40.638  24.319  -1.620  0.00  0.00     0.034 C 
ENDBRANCH  29  30
ENDBRANCH  27  29
ENDBRANCH  23  27
ENDBRANCH   1  19
TORSDOF 8
ENDMDL
MODEL 4
REMARK VINA RESULT:   -10.666      4.160     10.929
REMARK INTER + INTRA:         -14.250
REMARK INTER:                 -13.052
REMARK INTRA:                  -1.198
REMARK CONF_INDEPENDENT:        2.386
REMARK UNBOUND:                -1.198
REMARK  8 active torsions:
REMARK  status: ('A' for Active; 'I' for Inactive)
REMARK    1  A    between atoms: C2_2  and  O1_3 
REMARK    2  A    between atoms: O1_3  and  C3_4 
REMARK    3  A    between atoms: C3_4  and  C4_6 
REMARK    4  A    between atoms: C7_10  and  C8_11 
REMARK       I    between atoms: C8_11  and  N2_13 
REMARK    5  A    between atoms: N2_13  and  C9_14 
REMARK    6  A    between atoms: C12_17  and  C13_18 
REMARK       I    between atoms: C13_18  and  N3_20 
REMARK    7  A    between atoms: N3_20  and  C14_21 
REMARK    8  A    between atoms: C14_21  and  C15_22 
ROOT
ATOM      1  C8  NON d   1     -40.383  19.466  -2.644  0.00  0.00     0.273 C 
ATOM      2  O3  NON d   1     -40.831  18.923  -1.633  0.00  0.00    -0.266 OA
ATOM      3  N2  NON d   1     -40.972  19.182  -3.889  0.00  0.00    -0.322 N 
ATOM      4  H10 NON d   1     -40.477  19.466  -4.721  0.00  0.00     0.169 HD
ENDROOT
BRANCH   3   5
ATOM      5  C9  NON d   1     -42.234  18.459  -4.090  0.00  0.00     0.035 A 
ATOM      6  C10 NON d   1     -43.268  19.050  -4.837  0.00  0.00     0.030 A 
ATOM      7  C11 NON d   1     -44.528  18.391  -5.034  0.00  0.00     0.019 A 
ATOM      8  C12 NON d   1     -44.840  17.122  -4.481  0.00  0.00     0.032 A 
ATOM      9  C18 NON d   1     -43.812  16.540  -3.739  0.00  0.00     0.019 A 
ATOM     10  C19 NON d   1     -42.540  17.192  -3.556  0.00  0.00     0.030 A 
BRANCH   8  11
ATOM     11  C13 NON d   1     -46.245  16.522  -4.719  0.00  0.00     0.251 C 
ATOM     12  O4  NON d   1     -46.773  16.738  -5.810  0.00  0.00    -0.268 OA
ATOM     13  N3  NON d   1     -46.918  15.766  -3.724  0.00  0.00    -0.357 N 
ATOM     14  H13 NON d   1     -46.524  15.743  -2.800  0.00  0.00     0.162 HD
BRANCH  13  15
ATOM     15  C14 NON d   1     -48.370  15.400  -3.863  0.00  0.00     0.126 C 
BRANCH  15  16
ATOM     16  C15 NON d   1     -49.531  16.123  -2.931  0.00  0.00    -0.005 C 
ATOM     17  C16 NON d   1     -51.036  15.819  -2.809  0.00  0.00     0.011 C 
ATOM     18  C17 NON d   1     -48.732  16.570  -1.693  0.00  0.00     0.011 C 
ENDBRANCH  15  16
ENDBRANCH  13  15
ENDBRANCH   8  11
ENDBRANCH   3   5
BRANCH   1  19
ATOM     19  C7  NON d   1     -39.221  20.420  -2.485  0.00  0.00     0.108 A 
ATOM     20  N1  NON d   1     -38.190  20.531  -1.541  0.00  0.00    -0.354 N 
ATOM     21  C5  NON d   1     -37.442  21.730  -1.692  0.00  0.00     0.022 A 
ATOM     22  H9  NON d   1     -38.040  19.880  -0.784  0.00  0.00     0.166 HD
ATOM     23  C4  NON d   1     -37.994  22.388  -2.793  0.00  0.00     0.070 A 
ATOM     24  C6  NON d   1     -36.263  22.180  -0.808  0.00  0.00     0.069 C 
ATOM     25  C20 NON d   1     -39.040  21.535  -3.319  0.00  0.00    -0.011 A 
ATOM     26  C21 NON d   1     -39.853  21.845  -4.545  0.00  0.00     0.052 C 
BRANCH  23  27
ATOM     27  C3  NON d   1     -37.624  23.710  -3.334  0.00  0.00     0.295 C 
ATOM     28  O2  NON d   1     -36.506  23.966  -3.765  0.00  0.00    -0.259 OA
BRANCH  27  29
ATOM     29  O1  NON d   1     -38.641  24.625  -3.323  0.00  0.00    -0.318 OA
BRANCH  29  30
ATOM     30  C2  NON d   1     -38.593  25.526  -4.437  0.00  0.00     0.174 C 
ATOM     31  C1  NON d   1     -38.897  24.758  -5.707  0.00  0.00     0.034 C 
ENDBRANCH  29  30
ENDBRANCH  27  29
ENDBRANCH  23  27
ENDBRANCH   1  19
TORSDOF 8
ENDMDL
MODEL 5
REMARK VINA RESULT:   -10.629      2.468     11.157
REMARK INTER + INTRA:         -14.090
REMARK INTER:                 -13.015
REMARK INTRA:                  -1.075
REMARK CONF_INDEPENDENT:        2.386
REMARK UNBOUND:                -1.075
REMARK  8 active torsions:
REMARK  status: ('A' for Active; 'I' for Inactive)
REMARK    1  A    between atoms: C2_2  and  O1_3 
REMARK    2  A    between atoms: O1_3  and  C3_4 
REMARK    3  A    between atoms: C3_4  and  C4_6 
REMARK    4  A    between atoms: C7_10  and  C8_11 
REMARK       I    between atoms: C8_11  and  N2_13 
REMARK    5  A    between atoms: N2_13  and  C9_14 
REMARK    6  A    between atoms: C12_17  and  C13_18 
REMARK       I    between atoms: C13_18  and  N3_20 
REMARK    7  A    between atoms: N3_20  and  C14_21 
REMARK    8  A    between atoms: C14_21  and  C15_22 
ROOT
ATOM      1  C8  NON d   1     -41.070  20.110  -6.358  0.00  0.00     0.273 C 
ATOM      2  O3  NON d   1     -41.707  19.982  -7.405  0.00  0.00    -0.266 OA
ATOM      3  N2  NON d   1     -41.596  19.577  -5.168  0.00  0.00    -0.322 N 
ATOM      4  H10 NON d   1     -41.175  19.861  -4.297  0.00  0.00     0.169 HD
ENDROOT
BRANCH   3   5
ATOM      5  C9  NON d   1     -42.748  18.672  -5.076  0.00  0.00     0.035 A 
ATOM      6  C10 NON d   1     -44.028  19.130  -5.435  0.00  0.00     0.030 A 
ATOM      7  C11 NON d   1     -45.187  18.289  -5.334  0.00  0.00     0.019 A 
ATOM      8  C12 NON d   1     -45.144  16.956  -4.848  0.00  0.00     0.032 A 
ATOM      9  C18 NON d   1     -43.872  16.506  -4.492  0.00  0.00     0.019 A 
ATOM     10  C19 NON d   1     -42.705  17.343  -4.611  0.00  0.00     0.030 A 
BRANCH   8  11
ATOM     11  C13 NON d   1     -46.459  16.151  -4.739  0.00  0.00     0.251 C 
ATOM     12  O4  NON d   1     -47.001  15.809  -5.790  0.00  0.00    -0.268 OA
ATOM     13  N3  NON d   1     -47.040  15.827  -3.485  0.00  0.00    -0.357 N 
ATOM     14  H13 NON d   1     -46.656  16.253  -2.661  0.00  0.00     0.162 HD
BRANCH  13  15
ATOM     15  C14 NON d   1     -48.433  15.270  -3.385  0.00  0.00     0.126 C 
BRANCH  15  16
ATOM     16  C15 NON d   1     -49.665  16.148  -2.712  0.00  0.00    -0.005 C 
ATOM     17  C16 NON d   1     -51.189  15.953  -2.810  0.00  0.00     0.011 C 
ATOM     18  C17 NON d   1     -49.034  16.651  -1.401  0.00  0.00     0.011 C 
ENDBRANCH  15  16
ENDBRANCH  13  15
ENDBRANCH   8  11
ENDBRANCH   3   5
BRANCH   1  19
ATOM     19  C7  NON d   1     -39.743  20.832  -6.417  0.00  0.00     0.108 A 
ATOM     20  N1  NON d   1     -38.771  21.138  -5.453  0.00  0.00    -0.354 N 
ATOM     21  C5  NON d   1     -37.776  22.025  -5.946  0.00  0.00     0.022 A 
ATOM     22  H9  NON d   1     -38.811  20.836  -4.490  0.00  0.00     0.166 HD
ATOM     23  C4  NON d   1     -38.107  22.263  -7.282  0.00  0.00     0.070 A 
ATOM     24  C6  NON d   1     -36.585  22.586  -5.147  0.00  0.00     0.069 C 
ATOM     25  C20 NON d   1     -39.277  21.464  -7.581  0.00  0.00    -0.011 A 
ATOM     26  C21 NON d   1     -39.929  21.383  -8.934  0.00  0.00     0.052 C 
BRANCH  23  27
ATOM     27  C3  NON d   1     -37.430  23.167  -8.232  0.00  0.00     0.295 C 
ATOM     28  O2  NON d   1     -36.572  22.787  -9.020  0.00  0.00    -0.259 OA
BRANCH  27  29
ATOM     29  O1  NON d   1     -37.852  24.467  -8.166  0.00  0.00    -0.318 OA
BRANCH  29  30
ATOM     30  C2  NON d   1     -39.227  24.589  -7.780  0.00  0.00     0.174 C 
ATOM     31  C1  NON d   1     -40.079  24.723  -9.025  0.00  0.00     0.034 C 
ENDBRANCH  29  30
ENDBRANCH  27  29
ENDBRANCH  23  27
ENDBRANCH   1  19
TORSDOF 8
ENDMDL
MODEL 6
REMARK VINA RESULT:   -10.511      2.042     11.455
REMARK INTER + INTRA:         -13.979
REMARK INTER:                 -12.897
REMARK INTRA:                  -1.082
REMARK CONF_INDEPENDENT:        2.386
REMARK UNBOUND:                -1.082
REMARK  8 active torsions:
REMARK  status: ('A' for Active; 'I' for Inactive)
REMARK    1  A    between atoms: C2_2  and  O1_3 
REMARK    2  A    between atoms: O1_3  and  C3_4 
REMARK    3  A    between atoms: C3_4  and  C4_6 
REMARK    4  A    between atoms: C7_10  and  C8_11 
REMARK       I    between atoms: C8_11  and  N2_13 
REMARK    5  A    between atoms: N2_13  and  C9_14 
REMARK    6  A    between atoms: C12_17  and  C13_18 
REMARK       I    between atoms: C13_18  and  N3_20 
REMARK    7  A    between atoms: N3_20  and  C14_21 
REMARK    8  A    between atoms: C14_21  and  C15_22 
ROOT
ATOM      1  C8  NON d   1     -40.834  20.094  -6.231  0.00  0.00     0.273 C 
ATOM      2  O3  NON d   1     -41.551  20.130  -7.233  0.00  0.00    -0.266 OA
ATOM      3  N2  NON d   1     -41.313  19.460  -5.070  0.00  0.00    -0.322 N 
ATOM      4  H10 NON d   1     -40.811  19.613  -4.208  0.00  0.00     0.169 HD
ENDROOT
BRANCH   3   5
ATOM      5  C9  NON d   1     -42.517  18.625  -4.991  0.00  0.00     0.035 A 
ATOM      6  C10 NON d   1     -43.751  19.133  -5.435  0.00  0.00     0.030 A 
ATOM      7  C11 NON d   1     -44.959  18.362  -5.349  0.00  0.00     0.019 A 
ATOM      8  C12 NON d   1     -45.014  17.057  -4.796  0.00  0.00     0.032 A 
ATOM      9  C18 NON d   1     -43.789  16.557  -4.355  0.00  0.00     0.019 A 
ATOM     10  C19 NON d   1     -42.572  17.322  -4.458  0.00  0.00     0.030 A 
BRANCH   8  11
ATOM     11  C13 NON d   1     -46.377  16.332  -4.712  0.00  0.00     0.251 C 
ATOM     12  O4  NON d   1     -47.061  16.295  -5.735  0.00  0.00    -0.268 OA
ATOM     13  N3  NON d   1     -46.842  15.742  -3.508  0.00  0.00    -0.357 N 
ATOM     14  H13 NON d   1     -46.331  15.927  -2.663  0.00  0.00     0.162 HD
BRANCH  13  15
ATOM     15  C14 NON d   1     -48.260  15.264  -3.363  0.00  0.00     0.126 C 
BRANCH  15  16
ATOM     16  C15 NON d   1     -49.446  16.253  -2.767  0.00  0.00    -0.005 C 
ATOM     17  C16 NON d   1     -50.978  16.100  -2.808  0.00  0.00     0.011 C 
ATOM     18  C17 NON d   1     -48.766  16.881  -1.536  0.00  0.00     0.011 C 
ENDBRANCH  15  16
ENDBRANCH  13  15
ENDBRANCH   8  11
ENDBRANCH   3   5
BRANCH   1  19
ATOM     19  C7  NON d   1     -39.466  20.733  -6.312  0.00  0.00     0.108 A 
ATOM     20  N1  NON d   1     -38.667  21.414  -5.383  0.00  0.00    -0.354 N 
ATOM     21  C5  NON d   1     -37.531  22.022  -5.985  0.00  0.00     0.022 A 
ATOM     22  H9  NON d   1     -38.906  21.538  -4.410  0.00  0.00     0.166 HD
ATOM     23  C4  NON d   1     -37.591  21.684  -7.338  0.00  0.00     0.070 A 
ATOM     24  C6  NON d   1     -36.466  22.868  -5.262  0.00  0.00     0.069 C 
ATOM     25  C20 NON d   1     -38.746  20.827  -7.514  0.00  0.00    -0.011 A 
ATOM     26  C21 NON d   1     -39.143  20.191  -8.817  0.00  0.00     0.052 C 
BRANCH  23  27
ATOM     27  C3  NON d   1     -36.683  22.116  -8.418  0.00  0.00     0.295 C 
ATOM     28  O2  NON d   1     -36.233  23.254  -8.497  0.00  0.00    -0.259 OA
BRANCH  27  29
ATOM     29  O1  NON d   1     -36.376  21.134  -9.320  0.00  0.00    -0.318 OA
BRANCH  29  30
ATOM     30  C2  NON d   1     -36.657  21.512 -10.674  0.00  0.00     0.174 C 
ATOM     31  C1  NON d   1     -36.334  20.348 -11.588  0.00  0.00     0.034 C 
ENDBRANCH  29  30
ENDBRANCH  27  29
ENDBRANCH  23  27
ENDBRANCH   1  19
TORSDOF 8
ENDMDL
MODEL 7
REMARK VINA RESULT:   -10.316      4.724     11.156
REMARK INTER + INTRA:         -13.772
REMARK INTER:                 -12.703
REMARK INTRA:                  -1.069
REMARK CONF_INDEPENDENT:        2.386
REMARK UNBOUND:                -1.069
REMARK  8 active torsions:
REMARK  status: ('A' for Active; 'I' for Inactive)
REMARK    1  A    between atoms: C2_2  and  O1_3 
REMARK    2  A    between atoms: O1_3  and  C3_4 
REMARK    3  A    between atoms: C3_4  and  C4_6 
REMARK    4  A    between atoms: C7_10  and  C8_11 
REMARK       I    between atoms: C8_11  and  N2_13 
REMARK    5  A    between atoms: N2_13  and  C9_14 
REMARK    6  A    between atoms: C12_17  and  C13_18 
REMARK       I    between atoms: C13_18  and  N3_20 
REMARK    7  A    between atoms: N3_20  and  C14_21 
REMARK    8  A    between atoms: C14_21  and  C15_22 
ROOT
ATOM      1  C8  NON d   1     -40.439  19.764  -3.203  0.00  0.00     0.273 C 
ATOM      2  O3  NON d   1     -40.715  19.198  -2.145  0.00  0.00    -0.266 OA
ATOM      3  N2  NON d   1     -41.172  19.444  -4.361  0.00  0.00    -0.322 N 
ATOM      4  H10 NON d   1     -40.809  19.755  -5.249  0.00  0.00     0.169 HD
ENDROOT
BRANCH   3   5
ATOM      5  C9  NON d   1     -42.404  18.647  -4.395  0.00  0.00     0.035 A 
ATOM      6  C10 NON d   1     -43.533  19.134  -5.077  0.00  0.00     0.030 A 
ATOM      7  C11 NON d   1     -44.768  18.401  -5.112  0.00  0.00     0.019 A 
ATOM      8  C12 NON d   1     -44.957  17.159  -4.453  0.00  0.00     0.032 A 
ATOM      9  C18 NON d   1     -43.834  16.680  -3.777  0.00  0.00     0.019 A 
ATOM     10  C19 NON d   1     -42.589  17.405  -3.757  0.00  0.00     0.030 A 
BRANCH   8  11
ATOM     11  C13 NON d   1     -46.341  16.475  -4.519  0.00  0.00     0.251 C 
ATOM     12  O4  NON d   1     -46.818  16.272  -5.635  0.00  0.00    -0.268 OA
ATOM     13  N3  NON d   1     -47.054  16.107  -3.348  0.00  0.00    -0.357 N 
ATOM     14  H13 NON d   1     -46.707  16.427  -2.462  0.00  0.00     0.162 HD
BRANCH  13  15
ATOM     15  C14 NON d   1     -48.494  15.676  -3.407  0.00  0.00     0.126 C 
BRANCH  15  16
ATOM     16  C15 NON d   1     -49.672  16.498  -2.585  0.00  0.00    -0.005 C 
ATOM     17  C16 NON d   1     -51.204  16.344  -2.630  0.00  0.00     0.011 C 
ATOM     18  C17 NON d   1     -48.971  16.842  -1.258  0.00  0.00     0.011 C 
ENDBRANCH  15  16
ENDBRANCH  13  15
ENDBRANCH   8  11
ENDBRANCH   3   5
BRANCH   1  19
ATOM     19  C7  NON d   1     -39.325  20.786  -3.195  0.00  0.00     0.108 A 
ATOM     20  N1  NON d   1     -38.379  21.185  -4.150  0.00  0.00    -0.354 N 
ATOM     21  C5  NON d   1     -37.388  22.048  -3.608  0.00  0.00     0.022 A 
ATOM     22  H9  NON d   1     -38.347  20.838  -5.098  0.00  0.00     0.166 HD
ATOM     23  C4  NON d   1     -37.737  22.233  -2.269  0.00  0.00     0.070 A 
ATOM     24  C6  NON d   1     -36.190  22.645  -4.370  0.00  0.00     0.069 C 
ATOM     25  C20 NON d   1     -38.973  21.512  -2.046  0.00  0.00    -0.011 A 
ATOM     26  C21 NON d   1     -39.726  21.497  -0.744  0.00  0.00     0.052 C 
BRANCH  23  27
ATOM     27  C3  NON d   1     -37.000  22.993  -1.240  0.00  0.00     0.295 C 
ATOM     28  O2  NON d   1     -36.820  24.203  -1.306  0.00  0.00    -0.259 OA
BRANCH  27  29
ATOM     29  O1  NON d   1     -36.543  22.231  -0.200  0.00  0.00    -0.318 OA
BRANCH  29  30
ATOM     30  C2  NON d   1     -36.824  22.810   1.081  0.00  0.00     0.174 C 
ATOM     31  C1  NON d   1     -37.895  21.989   1.769  0.00  0.00     0.034 C 
ENDBRANCH  29  30
ENDBRANCH  27  29
ENDBRANCH  23  27
ENDBRANCH   1  19
TORSDOF 8
ENDMDL
MODEL 8
REMARK VINA RESULT:   -10.065      2.432      3.310
REMARK INTER + INTRA:         -13.605
REMARK INTER:                 -12.451
REMARK INTRA:                  -1.154
REMARK CONF_INDEPENDENT:        2.386
REMARK UNBOUND:                -1.154
REMARK  8 active torsions:
REMARK  status: ('A' for Active; 'I' for Inactive)
REMARK    1  A    between atoms: C2_2  and  O1_3 
REMARK    2  A    between atoms: O1_3  and  C3_4 
REMARK    3  A    between atoms: C3_4  and  C4_6 
REMARK    4  A    between atoms: C7_10  and  C8_11 
REMARK       I    between atoms: C8_11  and  N2_13 
REMARK    5  A    between atoms: N2_13  and  C9_14 
REMARK    6  A    between atoms: C12_17  and  C13_18 
REMARK       I    between atoms: C13_18  and  N3_20 
REMARK    7  A    between atoms: N3_20  and  C14_21 
REMARK    8  A    between atoms: C14_21  and  C15_22 
ROOT
ATOM      1  C8  NON d   1     -45.880  16.752  -4.681  0.00  0.00     0.273 C 
ATOM      2  O3  NON d   1     -45.796  17.238  -5.810  0.00  0.00    -0.266 OA
ATOM      3  N2  NON d   1     -44.755  16.790  -3.836  0.00  0.00    -0.322 N 
ATOM      4  H10 NON d   1     -44.770  16.216  -3.006  0.00  0.00     0.169 HD
ENDROOT
BRANCH   3   5
ATOM      5  C9  NON d   1     -43.530  17.559  -4.083  0.00  0.00     0.035 A 
ATOM      6  C10 NON d   1     -42.527  17.612  -3.098  0.00  0.00     0.030 A 
ATOM      7  C11 NON d   1     -41.325  18.375  -3.286  0.00  0.00     0.019 A 
ATOM      8  C12 NON d   1     -41.064  19.146  -4.448  0.00  0.00     0.032 A 
ATOM      9  C18 NON d   1     -42.062  19.092  -5.421  0.00  0.00     0.019 A 
ATOM     10  C19 NON d   1     -43.260  18.311  -5.243  0.00  0.00     0.030 A 
BRANCH   8  11
ATOM     11  C13 NON d   1     -39.756  19.966  -4.528  0.00  0.00     0.251 C 
ATOM     12  O4  NON d   1     -38.853  19.666  -3.748  0.00  0.00    -0.268 OA
ATOM     13  N3  NON d   1     -39.594  21.036  -5.447  0.00  0.00    -0.357 N 
ATOM     14  H13 NON d   1     -40.402  21.348  -5.956  0.00  0.00     0.162 HD
BRANCH  13  15
ATOM     15  C14 NON d   1     -38.431  21.984  -5.354  0.00  0.00     0.126 C 
BRANCH  15  16
ATOM     16  C15 NON d   1     -38.049  22.740  -3.932  0.00  0.00    -0.005 C 
ATOM     17  C16 NON d   1     -38.852  22.853  -2.623  0.00  0.00     0.011 C 
ATOM     18  C17 NON d   1     -36.516  22.607  -3.887  0.00  0.00     0.011 C 
ENDBRANCH  15  16
ENDBRANCH  13  15
ENDBRANCH   8  11
ENDBRANCH   3   5
BRANCH   1  19
ATOM     19  C7  NON d   1     -47.200  16.146  -4.263  0.00  0.00     0.108 A 
ATOM     20  N1  NON d   1     -48.028  15.164  -4.824  0.00  0.00    -0.354 N 
ATOM     21  C5  NON d   1     -49.287  15.075  -4.169  0.00  0.00     0.022 A 
ATOM     22  H9  NON d   1     -47.800  14.633  -5.652  0.00  0.00     0.166 HD
ATOM     23  C4  NON d   1     -49.243  16.009  -3.132  0.00  0.00     0.070 A 
ATOM     24  C6  NON d   1     -50.440  14.126  -4.547  0.00  0.00     0.069 C 
ATOM     25  C20 NON d   1     -47.926  16.609  -3.153  0.00  0.00    -0.011 A 
ATOM     26  C21 NON d   1     -47.440  17.630  -2.161  0.00  0.00     0.052 C 
BRANCH  23  27
ATOM     27  C3  NON d   1     -50.322  16.361  -2.188  0.00  0.00     0.295 C 
ATOM     28  O2  NON d   1     -50.109  16.815  -1.070  0.00  0.00    -0.259 OA
BRANCH  27  29
ATOM     29  O1  NON d   1     -51.583  16.148  -2.674  0.00  0.00    -0.318 OA
BRANCH  29  30
ATOM     30  C2  NON d   1     -52.567  16.990  -2.060  0.00  0.00     0.174 C 
ATOM     31  C1  NON d   1     -53.947  16.505  -2.455  0.00  0.00     0.034 C 
ENDBRANCH  29  30
ENDBRANCH  27  29
ENDBRANCH  23  27
ENDBRANCH   1  19
TORSDOF 8
ENDMDL
MODEL 9
REMARK VINA RESULT:    -8.780      2.803     10.977
REMARK INTER + INTRA:         -12.296
REMARK INTER:                 -11.166
REMARK INTRA:                  -1.130
REMARK CONF_INDEPENDENT:        2.386
REMARK UNBOUND:                -1.130
REMARK  8 active torsions:
REMARK  status: ('A' for Active; 'I' for Inactive)
REMARK    1  A    between atoms: C2_2  and  O1_3 
REMARK    2  A    between atoms: O1_3  and  C3_4 
REMARK    3  A    between atoms: C3_4  and  C4_6 
REMARK    4  A    between atoms: C7_10  and  C8_11 
REMARK       I    between atoms: C8_11  and  N2_13 
REMARK    5  A    between atoms: N2_13  and  C9_14 
REMARK    6  A    between atoms: C12_17  and  C13_18 
REMARK       I    between atoms: C13_18  and  N3_20 
REMARK    7  A    between atoms: N3_20  and  C14_21 
REMARK    8  A    between atoms: C14_21  and  C15_22 
ROOT
ATOM      1  C8  NON d   1     -43.275  17.216  -4.146  0.00  0.00     0.273 C 
ATOM      2  O3  NON d   1     -43.335  16.428  -3.201  0.00  0.00    -0.266 OA
ATOM      3  N2  NON d   1     -44.431  17.452  -4.912  0.00  0.00    -0.322 N 
ATOM      4  H10 NON d   1     -44.323  17.931  -5.793  0.00  0.00     0.169 HD
ENDROOT
BRANCH   3   5
ATOM      5  C9  NON d   1     -45.788  17.015  -4.563  0.00  0.00     0.035 A 
ATOM      6  C10 NON d   1     -46.286  17.246  -3.269  0.00  0.00     0.030 A 
ATOM      7  C11 NON d   1     -47.597  16.810  -2.876  0.00  0.00     0.019 A 
ATOM      8  C12 NON d   1     -48.474  16.101  -3.736  0.00  0.00     0.032 A 
ATOM      9  C18 NON d   1     -47.975  15.873  -5.019  0.00  0.00     0.019 A 
ATOM     10  C19 NON d   1     -46.668  16.326  -5.421  0.00  0.00     0.030 A 
BRANCH   8  11
ATOM     11  C13 NON d   1     -49.848  15.640  -3.197  0.00  0.00     0.251 C 
ATOM     12  O4  NON d   1     -50.082  14.432  -3.209  0.00  0.00    -0.268 OA
ATOM     13  N3  NON d   1     -50.816  16.562  -2.721  0.00  0.00    -0.357 N 
ATOM     14  H13 NON d   1     -50.651  17.542  -2.871  0.00  0.00     0.162 HD
BRANCH  13  15
ATOM     15  C14 NON d   1     -52.230  16.139  -2.436  0.00  0.00     0.126 C 
BRANCH  15  16
ATOM     16  C15 NON d   1     -53.419  17.253  -2.144  0.00  0.00    -0.005 C 
ATOM     17  C16 NON d   1     -54.910  17.236  -2.529  0.00  0.00     0.011 C 
ATOM     18  C17 NON d   1     -52.978  17.865  -0.801  0.00  0.00     0.011 C 
ENDBRANCH  15  16
ENDBRANCH  13  15
ENDBRANCH   8  11
ENDBRANCH   3   5
BRANCH   1  19
ATOM     19  C7  NON d   1     -41.954  17.895  -4.424  0.00  0.00     0.108 A 
ATOM     20  N1  NON d   1     -41.305  18.290  -5.603  0.00  0.00    -0.354 N 
ATOM     21  C5  NON d   1     -39.967  18.710  -5.373  0.00  0.00     0.022 A 
ATOM     22  H9  NON d   1     -41.706  18.210  -6.527  0.00  0.00     0.166 HD
ATOM     23  C4  NON d   1     -39.769  18.612  -3.994  0.00  0.00     0.070 A 
ATOM     24  C6  NON d   1     -38.966  19.178  -6.447  0.00  0.00     0.069 C 
ATOM     25  C20 NON d   1     -41.023  18.182  -3.412  0.00  0.00    -0.011 A 
ATOM     26  C21 NON d   1     -41.261  18.006  -1.938  0.00  0.00     0.052 C 
BRANCH  23  27
ATOM     27  C3  NON d   1     -38.527  18.869  -3.240  0.00  0.00     0.295 C 
ATOM     28  O2  NON d   1     -37.713  17.991  -2.976  0.00  0.00    -0.259 OA
BRANCH  27  29
ATOM     29  O1  NON d   1     -38.355  20.175  -2.870  0.00  0.00    -0.318 OA
BRANCH  29  30
ATOM     30  C2  NON d   1     -39.311  20.608  -1.893  0.00  0.00     0.174 C 
ATOM     31  C1  NON d   1     -40.318  21.522  -2.560  0.00  0.00     0.034 C 
ENDBRANCH  29  30
ENDBRANCH  27  29
ENDBRANCH  23  27
ENDBRANCH   1  19
TORSDOF 8
ENDMDL
