MODEL 1
REMARK VINA RESULT:   -30.523      0.000      0.000
REMARK INTER + INTRA:         -32.453
REMARK INTER:                 -32.014
REMARK INTRA:                  -0.438
REMARK CONF_INDEPENDENT:        1.492
REMARK UNBOUND:                -0.438
REMARK  5 active torsions:
REMARK  status: ('A' for Active; 'I' for Inactive)
REMARK    1  A    between atoms: N1_1  and  C1_2 
REMARK    2  A    between atoms: C4_6  and  N2_7 
REMARK       I    between atoms: N2_7  and  C5_8 
REMARK    3  A    between atoms: C5_8  and  C6_10 
REMARK    4  A    between atoms: C9_13  and  N3_14 
REMARK    5  A    between atoms: N3_14  and  C10_15 
ROOT
ATOM      1  N2  NON d   1     -42.984  17.675  -4.640  0.00  0.00    -0.323 N 
ATOM      2  C5  NON d   1     -44.198  18.308  -4.875  0.00  0.00     0.257 C 
ATOM      3  O1  NON d   1     -44.337  19.489  -5.178  0.00  0.00    -0.267 OA
ATOM      4  H4  NON d   1     -42.996  16.684  -4.441  0.00  0.00     0.169 HD
ENDROOT
BRANCH   1   5
ATOM      5  C4  NON d   1     -41.695  18.264  -4.722  0.00  0.00     0.038 A 
ATOM      6  C3  NON d   1     -41.013  18.818  -3.636  0.00  0.00     0.055 A 
ATOM      7  C2  NON d   1     -39.745  19.393  -3.802  0.00  0.00     0.059 A 
ATOM      8  C1  NON d   1     -39.126  19.463  -5.061  0.00  0.00     0.050 A 
ATOM      9 Cl1  NON d   1     -38.966  20.062  -2.405  0.00  0.00    -0.082 Cl
ATOM     10  C15 NON d   1     -39.802  18.859  -6.135  0.00  0.00     0.059 A 
ATOM     11  C14 NON d   1     -41.074  18.289  -5.975  0.00  0.00     0.055 A 
ATOM     12 Cl2  NON d   1     -39.092  18.827  -7.714  0.00  0.00    -0.082 Cl
BRANCH   8  13
ATOM     13  N1  NON d   1     -37.793  19.914  -5.193  0.00  0.00    -0.300 NA
ATOM     14  H1  NON d   1     -37.139  19.424  -4.586  0.00  0.00     0.124 HD
ATOM     15  H2  NON d   1     -37.698  20.926  -5.161  0.00  0.00     0.124 HD
ENDBRANCH   8  13
ENDBRANCH   1   5
BRANCH   2  16
ATOM     16  C6  NON d   1     -45.434  17.487  -4.777  0.00  0.00     0.050 A 
ATOM     17  C7  NON d   1     -45.725  16.859  -3.566  0.00  0.00     0.022 A 
ATOM     18  C8  NON d   1     -46.876  16.081  -3.444  0.00  0.00     0.045 A 
ATOM     19  C9  NON d   1     -47.713  15.910  -4.546  0.00  0.00     0.103 A 
ATOM     20  N4  NON d   1     -47.440  16.505  -5.729  0.00  0.00    -0.248 NA
ATOM     21  C13 NON d   1     -46.315  17.267  -5.823  0.00  0.00     0.135 A 
BRANCH  19  22
ATOM     22  N3  NON d   1     -48.904  15.169  -4.360  0.00  0.00    -0.273 NA
ATOM     23  H7  NON d   1     -49.547  15.367  -5.121  0.00  0.00     0.129 HD
BRANCH  22  24
ATOM     24  C10 NON d   1     -49.530  15.153  -3.032  0.00  0.00     0.062 A 
ATOM     25  C11 NON d   1     -49.865  16.505  -2.377  0.00  0.00     0.021 A 
ATOM     26  C12 NON d   1     -50.925  15.501  -2.810  0.00  0.00     0.021 A 
ENDBRANCH  22  24
ENDBRANCH  19  22
ENDBRANCH   2  16
TORSDOF 5
ENDMDL
MODEL 2
REMARK VINA RESULT:   -30.409      0.179      1.937
REMARK INTER + INTRA:         -32.354
REMARK INTER:                 -31.901
REMARK INTRA:                  -0.453
REMARK CONF_INDEPENDENT:        1.492
REMARK UNBOUND:                -0.453
REMARK  5 active torsions:
REMARK  status: ('A' for Active; 'I' for Inactive)
REMARK    1  A    between atoms: N1_1  and  C1_2 
REMARK    2  A    between atoms: C4_6  and  N2_7 
REMARK       I    between atoms: N2_7  and  C5_8 
REMARK    3  A    between atoms: C5_8  and  C6_10 
REMARK    4  A    between atoms: C9_13  and  N3_14 
REMARK    5  A    between atoms: N3_14  and  C10_15 
ROOT
ATOM      1  N2  NON d   1     -42.986  17.643  -4.711  0.00  0.00    -0.323 N 
ATOM      2  C5  NON d   1     -44.198  18.301  -4.873  0.00  0.00     0.257 C 
ATOM      3  O1  NON d   1     -44.332  19.498  -5.108  0.00  0.00    -0.267 OA
ATOM      4  H4  NON d   1     -43.003  16.643  -4.565  0.00  0.00     0.169 HD
ENDROOT
BRANCH   1   5
ATOM      5  C4  NON d   1     -41.692  18.222  -4.803  0.00  0.00     0.038 A 
ATOM      6  C3  NON d   1     -40.931  18.265  -5.973  0.00  0.00     0.055 A 
ATOM      7  C2  NON d   1     -39.655  18.846  -5.978  0.00  0.00     0.059 A 
ATOM      8  C1  NON d   1     -39.081  19.375  -4.811  0.00  0.00     0.050 A 
ATOM      9 Cl1  NON d   1     -38.772  18.857  -7.470  0.00  0.00    -0.082 Cl
ATOM     10  C15 NON d   1     -39.877  19.368  -3.652  0.00  0.00     0.059 A 
ATOM     11  C14 NON d   1     -41.151  18.782  -3.641  0.00  0.00     0.055 A 
ATOM     12 Cl2  NON d   1     -39.290  20.063  -2.178  0.00  0.00    -0.082 Cl
BRANCH   8  13
ATOM     13  N1  NON d   1     -37.858  20.083  -4.856  0.00  0.00    -0.300 NA
ATOM     14  H1  NON d   1     -37.362  20.089  -3.967  0.00  0.00     0.124 HD
ATOM     15  H2  NON d   1     -37.933  21.001  -5.288  0.00  0.00     0.124 HD
ENDBRANCH   8  13
ENDBRANCH   1   5
BRANCH   2  16
ATOM     16  C6  NON d   1     -45.440  17.488  -4.780  0.00  0.00     0.050 A 
ATOM     17  C7  NON d   1     -45.751  16.882  -3.563  0.00  0.00     0.022 A 
ATOM     18  C8  NON d   1     -46.909  16.113  -3.444  0.00  0.00     0.045 A 
ATOM     19  C9  NON d   1     -47.732  15.930  -4.555  0.00  0.00     0.103 A 
ATOM     20  N4  NON d   1     -47.440  16.505  -5.743  0.00  0.00    -0.248 NA
ATOM     21  C13 NON d   1     -46.310  17.259  -5.833  0.00  0.00     0.135 A 
BRANCH  19  22
ATOM     22  N3  NON d   1     -48.931  15.200  -4.374  0.00  0.00    -0.273 NA
ATOM     23  H7  NON d   1     -49.579  15.421  -5.125  0.00  0.00     0.129 HD
BRANCH  22  24
ATOM     24  C10 NON d   1     -49.545  15.163  -3.041  0.00  0.00     0.062 A 
ATOM     25  C11 NON d   1     -49.944  16.502  -2.395  0.00  0.00     0.021 A 
ATOM     26  C12 NON d   1     -50.954  15.440  -2.811  0.00  0.00     0.021 A 
ENDBRANCH  22  24
ENDBRANCH  19  22
ENDBRANCH   2  16
TORSDOF 5
ENDMDL
MODEL 3
REMARK VINA RESULT:   -29.262      1.560      1.688
REMARK INTER + INTRA:         -31.223
REMARK INTER:                 -30.753
REMARK INTRA:                  -0.469
REMARK CONF_INDEPENDENT:        1.492
REMARK UNBOUND:                -0.469
REMARK  5 active torsions:
REMARK  status: ('A' for Active; 'I' for Inactive)
REMARK    1  A    between atoms: N1_1  and  C1_2 
REMARK    2  A    between atoms: C4_6  and  N2_7 
REMARK       I    between atoms: N2_7  and  C5_8 
REMARK    3  A    between atoms: C5_8  and  C6_10 
REMARK    4  A    between atoms: C9_13  and  N3_14 
REMARK    5  A    between atoms: N3_14  and  C10_15 
ROOT
ATOM      1  N2  NON d   1     -43.049  18.132  -3.938  0.00  0.00    -0.323 N 
ATOM      2  C5  NON d   1     -44.075  18.384  -4.839  0.00  0.00     0.257 C 
ATOM      3  O1  NON d   1     -44.058  19.245  -5.714  0.00  0.00    -0.267 OA
ATOM      4  H4  NON d   1     -43.163  17.364  -3.290  0.00  0.00     0.169 HD
ENDROOT
BRANCH   1   5
ATOM      5  C4  NON d   1     -41.799  18.803  -3.871  0.00  0.00     0.038 A 
ATOM      6  C3  NON d   1     -40.593  18.187  -3.534  0.00  0.00     0.055 A 
ATOM      7  C2  NON d   1     -39.401  18.924  -3.479  0.00  0.00     0.059 A 
ATOM      8  C1  NON d   1     -39.376  20.305  -3.729  0.00  0.00     0.050 A 
ATOM      9 Cl1  NON d   1     -37.945  18.086  -3.049  0.00  0.00    -0.082 Cl
ATOM     10  C15 NON d   1     -40.589  20.903  -4.115  0.00  0.00     0.059 A 
ATOM     11  C14 NON d   1     -41.785  20.171  -4.164  0.00  0.00     0.055 A 
ATOM     12 Cl2  NON d   1     -40.651  22.587  -4.515  0.00  0.00    -0.082 Cl
BRANCH   8  13
ATOM     13  N1  NON d   1     -38.153  21.009  -3.811  0.00  0.00    -0.300 NA
ATOM     14  H1  NON d   1     -37.358  20.413  -4.030  0.00  0.00     0.124 HD
ATOM     15  H2  NON d   1     -37.989  21.637  -3.028  0.00  0.00     0.124 HD
ENDBRANCH   8  13
ENDBRANCH   1   5
BRANCH   2  16
ATOM     16  C6  NON d   1     -45.288  17.527  -4.760  0.00  0.00     0.050 A 
ATOM     17  C7  NON d   1     -45.566  16.873  -3.560  0.00  0.00     0.022 A 
ATOM     18  C8  NON d   1     -46.695  16.061  -3.455  0.00  0.00     0.045 A 
ATOM     19  C9  NON d   1     -47.523  15.884  -4.562  0.00  0.00     0.103 A 
ATOM     20  N4  NON d   1     -47.263  16.505  -5.735  0.00  0.00    -0.248 NA
ATOM     21  C13 NON d   1     -46.160  17.300  -5.812  0.00  0.00     0.135 A 
BRANCH  19  22
ATOM     22  N3  NON d   1     -48.694  15.108  -4.394  0.00  0.00    -0.273 NA
ATOM     23  H7  NON d   1     -48.980  14.726  -5.291  0.00  0.00     0.129 HD
BRANCH  22  24
ATOM     24  C10 NON d   1     -49.797  15.653  -3.593  0.00  0.00     0.062 A 
ATOM     25  C11 NON d   1     -49.693  15.554  -2.061  0.00  0.00     0.021 A 
ATOM     26  C12 NON d   1     -49.682  16.877  -2.816  0.00  0.00     0.021 A 
ENDBRANCH  22  24
ENDBRANCH  19  22
ENDBRANCH   2  16
TORSDOF 5
ENDMDL
MODEL 4
REMARK VINA RESULT:   -28.439      2.264      2.983
REMARK INTER + INTRA:         -30.344
REMARK INTER:                 -29.931
REMARK INTRA:                  -0.413
REMARK CONF_INDEPENDENT:        1.492
REMARK UNBOUND:                -0.413
REMARK  5 active torsions:
REMARK  status: ('A' for Active; 'I' for Inactive)
REMARK    1  A    between atoms: N1_1  and  C1_2 
REMARK    2  A    between atoms: C4_6  and  N2_7 
REMARK       I    between atoms: N2_7  and  C5_8 
REMARK    3  A    between atoms: C5_8  and  C6_10 
REMARK    4  A    between atoms: C9_13  and  N3_14 
REMARK    5  A    between atoms: N3_14  and  C10_15 
ROOT
ATOM      1  N2  NON d   1     -41.651  18.798  -3.083  0.00  0.00    -0.323 N 
ATOM      2  C5  NON d   1     -42.197  19.105  -4.323  0.00  0.00     0.257 C 
ATOM      3  O1  NON d   1     -41.697  19.858  -5.153  0.00  0.00    -0.267 OA
ATOM      4  H4  NON d   1     -42.135  18.127  -2.503  0.00  0.00     0.169 HD
ENDROOT
BRANCH   1   5
ATOM      5  C4  NON d   1     -40.421  19.279  -2.560  0.00  0.00     0.038 A 
ATOM      6  C3  NON d   1     -40.316  20.299  -1.612  0.00  0.00     0.055 A 
ATOM      7  C2  NON d   1     -39.061  20.726  -1.153  0.00  0.00     0.059 A 
ATOM      8  C1  NON d   1     -37.869  20.172  -1.646  0.00  0.00     0.050 A 
ATOM      9 Cl1  NON d   1     -39.015  22.000   0.021  0.00  0.00    -0.082 Cl
ATOM     10  C15 NON d   1     -37.991  19.113  -2.563  0.00  0.00     0.059 A 
ATOM     11  C14 NON d   1     -39.244  18.688  -3.029  0.00  0.00     0.055 A 
ATOM     12 Cl2  NON d   1     -36.582  18.313  -3.175  0.00  0.00    -0.082 Cl
BRANCH   8  13
ATOM     13  N1  NON d   1     -36.619  20.507  -1.075  0.00  0.00    -0.300 NA
ATOM     14  H1  NON d   1     -36.390  19.955  -0.251  0.00  0.00     0.124 HD
ATOM     15  H2  NON d   1     -36.483  21.506  -0.946  0.00  0.00     0.124 HD
ENDBRANCH   8  13
ENDBRANCH   1   5
BRANCH   2  16
ATOM     16  C6  NON d   1     -43.480  18.451  -4.691  0.00  0.00     0.050 A 
ATOM     17  C7  NON d   1     -43.714  17.147  -4.256  0.00  0.00     0.022 A 
ATOM     18  C8  NON d   1     -44.908  16.506  -4.586  0.00  0.00     0.045 A 
ATOM     19  C9  NON d   1     -45.848  17.165  -5.378  0.00  0.00     0.103 A 
ATOM     20  N4  NON d   1     -45.632  18.426  -5.815  0.00  0.00    -0.248 NA
ATOM     21  C13 NON d   1     -44.464  19.036  -5.472  0.00  0.00     0.135 A 
BRANCH  19  22
ATOM     22  N3  NON d   1     -47.074  16.505  -5.633  0.00  0.00    -0.273 NA
ATOM     23  H7  NON d   1     -47.714  17.146  -6.092  0.00  0.00     0.129 HD
BRANCH  22  24
ATOM     24  C10 NON d   1     -47.685  15.706  -4.564  0.00  0.00     0.062 A 
ATOM     25  C11 NON d   1     -47.758  16.322  -3.156  0.00  0.00     0.021 A 
ATOM     26  C12 NON d   1     -48.989  16.009  -3.996  0.00  0.00     0.021 A 
ENDBRANCH  22  24
ENDBRANCH  19  22
ENDBRANCH   2  16
TORSDOF 5
ENDMDL
MODEL 5
REMARK VINA RESULT:   -28.055      2.407      3.303
REMARK INTER + INTRA:         -30.025
REMARK INTER:                 -29.546
REMARK INTRA:                  -0.479
REMARK CONF_INDEPENDENT:        1.492
REMARK UNBOUND:                -0.479
REMARK  5 active torsions:
REMARK  status: ('A' for Active; 'I' for Inactive)
REMARK    1  A    between atoms: N1_1  and  C1_2 
REMARK    2  A    between atoms: C4_6  and  N2_7 
REMARK       I    between atoms: N2_7  and  C5_8 
REMARK    3  A    between atoms: C5_8  and  C6_10 
REMARK    4  A    between atoms: C9_13  and  N3_14 
REMARK    5  A    between atoms: N3_14  and  C10_15 
ROOT
ATOM      1  N2  NON d   1     -41.800  20.112  -4.711  0.00  0.00    -0.323 N 
ATOM      2  C5  NON d   1     -42.257  19.006  -4.007  0.00  0.00     0.257 C 
ATOM      3  O1  NON d   1     -41.712  18.514  -3.023  0.00  0.00    -0.267 OA
ATOM      4  H4  NON d   1     -42.361  20.452  -5.480  0.00  0.00     0.169 HD
ENDROOT
BRANCH   1   5
ATOM      5  C4  NON d   1     -40.641  20.880  -4.418  0.00  0.00     0.038 A 
ATOM      6  C3  NON d   1     -39.333  20.405  -4.536  0.00  0.00     0.055 A 
ATOM      7  C2  NON d   1     -38.241  21.223  -4.216  0.00  0.00     0.059 A 
ATOM      8  C1  NON d   1     -38.415  22.532  -3.738  0.00  0.00     0.050 A 
ATOM      9 Cl1  NON d   1     -36.648  20.558  -4.386  0.00  0.00    -0.082 Cl
ATOM     10  C15 NON d   1     -39.734  23.013  -3.670  0.00  0.00     0.059 A 
ATOM     11  C14 NON d   1     -40.830  22.195  -3.983  0.00  0.00     0.055 A 
ATOM     12 Cl2  NON d   1     -40.052  24.638  -3.162  0.00  0.00    -0.082 Cl
BRANCH   8  13
ATOM     13  N1  NON d   1     -37.310  23.394  -3.554  0.00  0.00    -0.300 NA
ATOM     14  H1  NON d   1     -37.198  23.708  -2.592  0.00  0.00     0.124 HD
ATOM     15  H2  NON d   1     -37.260  24.146  -4.236  0.00  0.00     0.124 HD
ENDBRANCH   8  13
ENDBRANCH   1   5
BRANCH   2  16
ATOM     16  C6  NON d   1     -43.525  18.376  -4.462  0.00  0.00     0.050 A 
ATOM     17  C7  NON d   1     -43.867  17.123  -3.954  0.00  0.00     0.022 A 
ATOM     18  C8  NON d   1     -45.050  16.506  -4.363  0.00  0.00     0.045 A 
ATOM     19  C9  NON d   1     -45.867  17.134  -5.301  0.00  0.00     0.103 A 
ATOM     20  N4  NON d   1     -45.544  18.345  -5.809  0.00  0.00    -0.248 NA
ATOM     21  C13 NON d   1     -44.390  18.933  -5.389  0.00  0.00     0.135 A 
BRANCH  19  22
ATOM     22  N3  NON d   1     -47.089  16.505  -5.637  0.00  0.00    -0.273 NA
ATOM     23  H7  NON d   1     -47.403  16.837  -6.545  0.00  0.00     0.129 HD
BRANCH  22  24
ATOM     24  C10 NON d   1     -48.150  16.431  -4.625  0.00  0.00     0.062 A 
ATOM     25  C11 NON d   1     -48.721  15.044  -4.279  0.00  0.00     0.021 A 
ATOM     26  C12 NON d   1     -47.935  15.895  -3.290  0.00  0.00     0.021 A 
ENDBRANCH  22  24
ENDBRANCH  19  22
ENDBRANCH   2  16
TORSDOF 5
ENDMDL
MODEL 6
REMARK VINA RESULT:   -28.005      2.327      2.959
REMARK INTER + INTRA:         -29.980
REMARK INTER:                 -29.497
REMARK INTRA:                  -0.483
REMARK CONF_INDEPENDENT:        1.492
REMARK UNBOUND:                -0.483
REMARK  5 active torsions:
REMARK  status: ('A' for Active; 'I' for Inactive)
REMARK    1  A    between atoms: N1_1  and  C1_2 
REMARK    2  A    between atoms: C4_6  and  N2_7 
REMARK       I    between atoms: N2_7  and  C5_8 
REMARK    3  A    between atoms: C5_8  and  C6_10 
REMARK    4  A    between atoms: C9_13  and  N3_14 
REMARK    5  A    between atoms: N3_14  and  C10_15 
ROOT
ATOM      1  N2  NON d   1     -41.800  20.112  -4.711  0.00  0.00    -0.323 N 
ATOM      2  C5  NON d   1     -42.257  19.006  -4.007  0.00  0.00     0.257 C 
ATOM      3  O1  NON d   1     -41.712  18.514  -3.023  0.00  0.00    -0.267 OA
ATOM      4  H4  NON d   1     -42.361  20.452  -5.480  0.00  0.00     0.169 HD
ENDROOT
BRANCH   1   5
ATOM      5  C4  NON d   1     -40.641  20.880  -4.418  0.00  0.00     0.038 A 
ATOM      6  C3  NON d   1     -40.663  22.134  -3.806  0.00  0.00     0.055 A 
ATOM      7  C2  NON d   1     -39.472  22.834  -3.562  0.00  0.00     0.059 A 
ATOM      8  C1  NON d   1     -38.223  22.322  -3.947  0.00  0.00     0.050 A 
ATOM      9 Cl1  NON d   1     -39.584  24.388  -2.800  0.00  0.00    -0.082 Cl
ATOM     10  C15 NON d   1     -38.212  21.037  -4.518  0.00  0.00     0.059 A 
ATOM     11  C14 NON d   1     -39.401  20.337  -4.771  0.00  0.00     0.055 A 
ATOM     12 Cl2  NON d   1     -36.716  20.285  -4.961  0.00  0.00    -0.082 Cl
BRANCH   8  13
ATOM     13  N1  NON d   1     -37.023  22.967  -3.570  0.00  0.00    -0.300 NA
ATOM     14  H1  NON d   1     -36.461  23.271  -4.362  0.00  0.00     0.124 HD
ATOM     15  H2  NON d   1     -36.492  22.463  -2.864  0.00  0.00     0.124 HD
ENDBRANCH   8  13
ENDBRANCH   1   5
BRANCH   2  16
ATOM     16  C6  NON d   1     -43.525  18.376  -4.462  0.00  0.00     0.050 A 
ATOM     17  C7  NON d   1     -43.867  17.123  -3.954  0.00  0.00     0.022 A 
ATOM     18  C8  NON d   1     -45.050  16.506  -4.363  0.00  0.00     0.045 A 
ATOM     19  C9  NON d   1     -45.867  17.134  -5.301  0.00  0.00     0.103 A 
ATOM     20  N4  NON d   1     -45.544  18.345  -5.809  0.00  0.00    -0.248 NA
ATOM     21  C13 NON d   1     -44.390  18.933  -5.389  0.00  0.00     0.135 A 
BRANCH  19  22
ATOM     22  N3  NON d   1     -47.089  16.505  -5.637  0.00  0.00    -0.273 NA
ATOM     23  H7  NON d   1     -47.403  16.837  -6.545  0.00  0.00     0.129 HD
BRANCH  22  24
ATOM     24  C10 NON d   1     -48.150  16.431  -4.625  0.00  0.00     0.062 A 
ATOM     25  C11 NON d   1     -48.721  15.044  -4.279  0.00  0.00     0.021 A 
ATOM     26  C12 NON d   1     -47.935  15.895  -3.290  0.00  0.00     0.021 A 
ENDBRANCH  22  24
ENDBRANCH  19  22
ENDBRANCH   2  16
TORSDOF 5
ENDMDL
