MODEL 1
REMARK VINA RESULT:   -16.848      0.000      0.000
REMARK INTER + INTRA:         -20.625
REMARK INTER:                 -19.234
REMARK INTRA:                  -1.390
REMARK CONF_INDEPENDENT:        2.386
REMARK UNBOUND:                -1.390
REMARK  8 active torsions:
REMARK  status: ('A' for Active; 'I' for Inactive)
REMARK    1  A    between atoms: C1_2  and  C2_3 
REMARK       I    between atoms: C1_2  and  N1_12 
REMARK    2  A    between atoms: C2_3  and  C3_4 
REMARK    3  A    between atoms: C3_4  and  C4_5 
REMARK    4  A    between atoms: C4_5  and  C5_6 
REMARK    5  A    between atoms: N1_12  and  N2_13 
REMARK       I    between atoms: N2_13  and  C11_14 
REMARK    6  A    between atoms: C11_14  and  C12_16 
REMARK    7  A    between atoms: C16_20  and  N3_21 
REMARK       I    between atoms: N3_21  and  C17_22 
REMARK    8  A    between atoms: C17_22  and  C18_24 
ROOT
ATOM      1  N2  NON d   1     -46.009  16.478  -3.796  0.00  0.00    -0.263 N 
ATOM      2  C11 NON d   1     -45.447  17.234  -4.810  0.00  0.00     0.270 C 
ATOM      3  O2  NON d   1     -46.070  17.573  -5.814  0.00  0.00    -0.266 OA
ATOM      4  H13 NON d   1     -45.485  16.079  -3.021  0.00  0.00     0.190 HD
ENDROOT
BRANCH   2   5
ATOM      5  C12 NON d   1     -44.009  17.640  -4.614  0.00  0.00     0.035 A 
ATOM      6  C13 NON d   1     -43.244  17.078  -3.582  0.00  0.00     0.017 A 
ATOM      7  C14 NON d   1     -41.926  17.471  -3.389  0.00  0.00     0.003 A 
ATOM      8  C15 NON d   1     -41.362  18.446  -4.207  0.00  0.00     0.029 A 
ATOM      9  C16 NON d   1     -42.097  19.055  -5.230  0.00  0.00     0.036 A 
ATOM     10  C22 NON d   1     -43.428  18.636  -5.434  0.00  0.00     0.046 A 
BRANCH   9  11
ATOM     11  N3  NON d   1     -41.545  20.074  -6.054  0.00  0.00    -0.321 N 
ATOM     12  C17 NON d   1     -40.739  19.886  -7.176  0.00  0.00     0.279 C 
ATOM     13  O3  NON d   1     -40.377  18.792  -7.606  0.00  0.00    -0.265 OA
ATOM     14  H17 NON d   1     -41.728  21.040  -5.802  0.00  0.00     0.169 HD
BRANCH  12  15
ATOM     15  C18 NON d   1     -40.309  21.095  -7.854  0.00  0.00     0.142 A 
ATOM     16  C19 NON d   1     -39.870  21.254  -9.158  0.00  0.00     0.045 A 
ATOM     17  C20 NON d   1     -39.578  22.625  -9.329  0.00  0.00     0.027 A 
ATOM     18  C21 NON d   1     -39.851  23.221  -8.121  0.00  0.00     0.143 A 
ATOM     19  O4  NON d   1     -40.295  22.305  -7.215  0.00  0.00    -0.317 OA
ENDBRANCH  12  15
ENDBRANCH   9  11
ENDBRANCH   2   5
BRANCH   1  20
ATOM     20  N1  NON d   1     -47.377  16.175  -3.764  0.00  0.00    -0.267 N 
ATOM     21  C1  NON d   1     -47.863  15.451  -4.841  0.00  0.00     0.236 C 
ATOM     22  O1  NON d   1     -47.144  15.205  -5.808  0.00  0.00    -0.272 OA
ATOM     23  H12 NON d   1     -47.936  16.566  -3.010  0.00  0.00     0.190 HD
BRANCH  21  24
ATOM     24  C2  NON d   1     -49.315  15.026  -4.723  0.00  0.00     0.105 C 
BRANCH  24  25
ATOM     25  C3  NON d   1     -49.888  15.060  -3.296  0.00  0.00     0.014 C 
BRANCH  25  26
ATOM     26  C4  NON d   1     -50.123  16.466  -2.705  0.00  0.00     0.039 C 
BRANCH  26  27
ATOM     27  C5  NON d   1     -51.485  16.839  -2.168  0.00  0.00    -0.058 A 
ATOM     28  C6  NON d   1     -51.564  17.647  -1.020  0.00  0.00     0.007 A 
ATOM     29  C7  NON d   1     -52.798  18.038  -0.494  0.00  0.00     0.001 A 
ATOM     30  C8  NON d   1     -53.978  17.628  -1.108  0.00  0.00     0.000 A 
ATOM     31  C9  NON d   1     -53.918  16.866  -2.270  0.00  0.00     0.001 A 
ATOM     32  C10 NON d   1     -52.681  16.501  -2.810  0.00  0.00     0.007 A 
ENDBRANCH  26  27
ENDBRANCH  25  26
ENDBRANCH  24  25
ENDBRANCH  21  24
ENDBRANCH   1  20
TORSDOF 8
ENDMDL
MODEL 2
REMARK VINA RESULT:   -15.927      2.496     11.388
REMARK INTER + INTRA:         -19.291
REMARK INTER:                 -18.313
REMARK INTRA:                  -0.978
REMARK CONF_INDEPENDENT:        2.386
REMARK UNBOUND:                -0.978
REMARK  8 active torsions:
REMARK  status: ('A' for Active; 'I' for Inactive)
REMARK    1  A    between atoms: C1_2  and  C2_3 
REMARK       I    between atoms: C1_2  and  N1_12 
REMARK    2  A    between atoms: C2_3  and  C3_4 
REMARK    3  A    between atoms: C3_4  and  C4_5 
REMARK    4  A    between atoms: C4_5  and  C5_6 
REMARK    5  A    between atoms: N1_12  and  N2_13 
REMARK       I    between atoms: N2_13  and  C11_14 
REMARK    6  A    between atoms: C11_14  and  C12_16 
REMARK    7  A    between atoms: C16_20  and  N3_21 
REMARK       I    between atoms: N3_21  and  C17_22 
REMARK    8  A    between atoms: C17_22  and  C18_24 
ROOT
ATOM      1  N2  NON d   1     -40.441  20.428  -6.404  0.00  0.00    -0.263 N 
ATOM      2  C11 NON d   1     -41.717  19.893  -6.430  0.00  0.00     0.270 C 
ATOM      3  O2  NON d   1     -42.524  20.133  -7.325  0.00  0.00    -0.266 OA
ATOM      4  H13 NON d   1     -39.802  20.348  -5.616  0.00  0.00     0.190 HD
ENDROOT
BRANCH   2   5
ATOM      5  C12 NON d   1     -42.072  18.972  -5.290  0.00  0.00     0.035 A 
ATOM      6  C13 NON d   1     -41.117  18.639  -4.319  0.00  0.00     0.017 A 
ATOM      7  C14 NON d   1     -41.440  17.772  -3.283  0.00  0.00     0.003 A 
ATOM      8  C15 NON d   1     -42.710  17.208  -3.217  0.00  0.00     0.029 A 
ATOM      9  C16 NON d   1     -43.685  17.487  -4.181  0.00  0.00     0.036 A 
ATOM     10  C22 NON d   1     -43.358  18.385  -5.218  0.00  0.00     0.046 A 
BRANCH   9  11
ATOM     11  N3  NON d   1     -44.977  16.895  -4.145  0.00  0.00    -0.321 N 
ATOM     12  C17 NON d   1     -45.961  16.994  -5.127  0.00  0.00     0.279 C 
ATOM     13  O3  NON d   1     -45.848  17.629  -6.174  0.00  0.00    -0.265 OA
ATOM     14  H17 NON d   1     -45.233  16.363  -3.319  0.00  0.00     0.169 HD
BRANCH  12  15
ATOM     15  C18 NON d   1     -47.199  16.286  -4.854  0.00  0.00     0.142 A 
ATOM     16  C19 NON d   1     -47.940  16.246  -3.685  0.00  0.00     0.045 A 
ATOM     17  C20 NON d   1     -49.059  15.422  -3.937  0.00  0.00     0.027 A 
ATOM     18  C21 NON d   1     -48.934  15.005  -5.241  0.00  0.00     0.143 A 
ATOM     19  O4  NON d   1     -47.809  15.520  -5.811  0.00  0.00    -0.317 OA
ENDBRANCH  12  15
ENDBRANCH   9  11
ENDBRANCH   2   5
BRANCH   1  20
ATOM     20  N1  NON d   1     -39.920  21.161  -7.479  0.00  0.00    -0.267 N 
ATOM     21  C1  NON d   1     -39.926  20.522  -8.708  0.00  0.00     0.236 C 
ATOM     22  O1  NON d   1     -40.262  19.342  -8.801  0.00  0.00    -0.272 OA
ATOM     23  H12 NON d   1     -39.503  22.068  -7.283  0.00  0.00     0.190 HD
BRANCH  21  24
ATOM     24  C2  NON d   1     -39.477  21.378  -9.877  0.00  0.00     0.105 C 
BRANCH  24  25
ATOM     25  C3  NON d   1     -39.055  22.810  -9.508  0.00  0.00     0.014 C 
BRANCH  25  26
ATOM     26  C4  NON d   1     -39.933  23.937 -10.092  0.00  0.00     0.039 C 
BRANCH  26  27
ATOM     27  C5  NON d   1     -40.049  24.104 -11.589  0.00  0.00    -0.058 A 
ATOM     28  C6  NON d   1     -39.508  23.112 -12.425  0.00  0.00     0.007 A 
ATOM     29  C7  NON d   1     -39.605  23.207 -13.816  0.00  0.00     0.001 A 
ATOM     30  C8  NON d   1     -40.248  24.297 -14.397  0.00  0.00     0.000 A 
ATOM     31  C9  NON d   1     -40.827  25.265 -13.583  0.00  0.00     0.001 A 
ATOM     32  C10 NON d   1     -40.753  25.151 -12.191  0.00  0.00     0.007 A 
ENDBRANCH  26  27
ENDBRANCH  25  26
ENDBRANCH  24  25
ENDBRANCH  21  24
ENDBRANCH   1  20
TORSDOF 8
ENDMDL
MODEL 3
REMARK VINA RESULT:   -15.674      5.501     10.318
REMARK INTER + INTRA:         -20.031
REMARK INTER:                 -18.060
REMARK INTRA:                  -1.971
REMARK CONF_INDEPENDENT:        2.386
REMARK UNBOUND:                -1.971
REMARK  8 active torsions:
REMARK  status: ('A' for Active; 'I' for Inactive)
REMARK    1  A    between atoms: C1_2  and  C2_3 
REMARK       I    between atoms: C1_2  and  N1_12 
REMARK    2  A    between atoms: C2_3  and  C3_4 
REMARK    3  A    between atoms: C3_4  and  C4_5 
REMARK    4  A    between atoms: C4_5  and  C5_6 
REMARK    5  A    between atoms: N1_12  and  N2_13 
REMARK       I    between atoms: N2_13  and  C11_14 
REMARK    6  A    between atoms: C11_14  and  C12_16 
REMARK    7  A    between atoms: C16_20  and  N3_21 
REMARK       I    between atoms: N3_21  and  C17_22 
REMARK    8  A    between atoms: C17_22  and  C18_24 
ROOT
ATOM      1  N2  NON d   1     -40.129  19.909  -2.001  0.00  0.00    -0.263 N 
ATOM      2  C11 NON d   1     -41.033  18.875  -1.831  0.00  0.00     0.270 C 
ATOM      3  O2  NON d   1     -41.336  18.428  -0.727  0.00  0.00    -0.266 OA
ATOM      4  H13 NON d   1     -39.767  20.211  -2.902  0.00  0.00     0.190 HD
ENDROOT
BRANCH   2   5
ATOM      5  C12 NON d   1     -41.651  18.322  -3.090  0.00  0.00     0.035 A 
ATOM      6  C13 NON d   1     -40.985  18.433  -4.319  0.00  0.00     0.017 A 
ATOM      7  C14 NON d   1     -41.566  17.943  -5.480  0.00  0.00     0.003 A 
ATOM      8  C15 NON d   1     -42.828  17.358  -5.435  0.00  0.00     0.029 A 
ATOM      9  C16 NON d   1     -43.542  17.253  -4.237  0.00  0.00     0.036 A 
ATOM     10  C22 NON d   1     -42.937  17.733  -3.057  0.00  0.00     0.046 A 
BRANCH   9  11
ATOM     11  N3  NON d   1     -44.844  16.686  -4.179  0.00  0.00    -0.321 N 
ATOM     12  C17 NON d   1     -45.874  16.881  -5.099  0.00  0.00     0.279 C 
ATOM     13  O3  NON d   1     -45.798  17.593  -6.098  0.00  0.00    -0.265 OA
ATOM     14  H17 NON d   1     -45.072  16.096  -3.385  0.00  0.00     0.169 HD
BRANCH  12  15
ATOM     15  C18 NON d   1     -47.113  16.179  -4.817  0.00  0.00     0.142 A 
ATOM     16  C19 NON d   1     -47.770  16.020  -3.608  0.00  0.00     0.045 A 
ATOM     17  C20 NON d   1     -48.932  15.262  -3.869  0.00  0.00     0.027 A 
ATOM     18  C21 NON d   1     -48.917  15.000  -5.218  0.00  0.00     0.143 A 
ATOM     19  O4  NON d   1     -47.818  15.549  -5.808  0.00  0.00    -0.317 OA
ENDBRANCH  12  15
ENDBRANCH   9  11
ENDBRANCH   2   5
BRANCH   1  20
ATOM     20  N1  NON d   1     -39.609  20.629  -0.916  0.00  0.00    -0.267 N 
ATOM     21  C1  NON d   1     -39.107  21.887  -1.207  0.00  0.00     0.236 C 
ATOM     22  O1  NON d   1     -39.025  22.276  -2.371  0.00  0.00    -0.272 OA
ATOM     23  H12 NON d   1     -39.559  20.163  -0.013  0.00  0.00     0.190 HD
BRANCH  21  24
ATOM     24  C2  NON d   1     -38.668  22.695  -0.001  0.00  0.00     0.105 C 
BRANCH  24  25
ATOM     25  C3  NON d   1     -39.377  22.335   1.315  0.00  0.00     0.014 C 
BRANCH  25  26
ATOM     26  C4  NON d   1     -40.820  22.862   1.463  0.00  0.00     0.039 C 
BRANCH  26  27
ATOM     27  C5  NON d   1     -41.062  24.319   1.780  0.00  0.00    -0.058 A 
ATOM     28  C6  NON d   1     -40.859  24.769   3.096  0.00  0.00     0.007 A 
ATOM     29  C7  NON d   1     -41.048  26.111   3.439  0.00  0.00     0.001 A 
ATOM     30  C8  NON d   1     -41.445  27.028   2.469  0.00  0.00     0.000 A 
ATOM     31  C9  NON d   1     -41.607  26.608   1.153  0.00  0.00     0.001 A 
ATOM     32  C10 NON d   1     -41.388  25.271   0.809  0.00  0.00     0.007 A 
ENDBRANCH  26  27
ENDBRANCH  25  26
ENDBRANCH  24  25
ENDBRANCH  21  24
ENDBRANCH   1  20
TORSDOF 8
ENDMDL
MODEL 4
REMARK VINA RESULT:   -15.247      4.924     10.290
REMARK INTER + INTRA:         -19.748
REMARK INTER:                 -17.634
REMARK INTRA:                  -2.114
REMARK CONF_INDEPENDENT:        2.386
REMARK UNBOUND:                -2.114
REMARK  8 active torsions:
REMARK  status: ('A' for Active; 'I' for Inactive)
REMARK    1  A    between atoms: C1_2  and  C2_3 
REMARK       I    between atoms: C1_2  and  N1_12 
REMARK    2  A    between atoms: C2_3  and  C3_4 
REMARK    3  A    between atoms: C3_4  and  C4_5 
REMARK    4  A    between atoms: C4_5  and  C5_6 
REMARK    5  A    between atoms: N1_12  and  N2_13 
REMARK       I    between atoms: N2_13  and  C11_14 
REMARK    6  A    between atoms: C11_14  and  C12_16 
REMARK    7  A    between atoms: C16_20  and  N3_21 
REMARK       I    between atoms: N3_21  and  C17_22 
REMARK    8  A    between atoms: C17_22  and  C18_24 
ROOT
ATOM      1  N2  NON d   1     -40.145  19.904  -1.930  0.00  0.00    -0.263 N 
ATOM      2  C11 NON d   1     -41.057  18.873  -1.785  0.00  0.00     0.270 C 
ATOM      3  O2  NON d   1     -41.359  18.398  -0.693  0.00  0.00    -0.266 OA
ATOM      4  H13 NON d   1     -39.784  20.228  -2.824  0.00  0.00     0.190 HD
ENDROOT
BRANCH   2   5
ATOM      5  C12 NON d   1     -41.683  18.360  -3.056  0.00  0.00     0.035 A 
ATOM      6  C13 NON d   1     -41.033  18.522  -4.288  0.00  0.00     0.017 A 
ATOM      7  C14 NON d   1     -41.623  18.068  -5.459  0.00  0.00     0.003 A 
ATOM      8  C15 NON d   1     -42.879  17.470  -5.422  0.00  0.00     0.029 A 
ATOM      9  C16 NON d   1     -43.578  17.315  -4.220  0.00  0.00     0.036 A 
ATOM     10  C22 NON d   1     -42.964  17.758  -3.031  0.00  0.00     0.046 A 
BRANCH   9  11
ATOM     11  N3  NON d   1     -44.875  16.734  -4.168  0.00  0.00    -0.321 N 
ATOM     12  C17 NON d   1     -45.902  16.917  -5.093  0.00  0.00     0.279 C 
ATOM     13  O3  NON d   1     -45.829  17.629  -6.093  0.00  0.00    -0.265 OA
ATOM     14  H17 NON d   1     -45.100  16.143  -3.374  0.00  0.00     0.169 HD
BRANCH  12  15
ATOM     15  C18 NON d   1     -47.135  16.202  -4.817  0.00  0.00     0.142 A 
ATOM     16  C19 NON d   1     -47.797  16.040  -3.612  0.00  0.00     0.045 A 
ATOM     17  C20 NON d   1     -48.950  15.269  -3.877  0.00  0.00     0.027 A 
ATOM     18  C21 NON d   1     -48.922  15.001  -5.225  0.00  0.00     0.143 A 
ATOM     19  O4  NON d   1     -47.825  15.560  -5.810  0.00  0.00    -0.317 OA
ENDBRANCH  12  15
ENDBRANCH   9  11
ENDBRANCH   2   5
BRANCH   1  20
ATOM     20  N1  NON d   1     -39.615  20.589  -0.828  0.00  0.00    -0.267 N 
ATOM     21  C1  NON d   1     -38.971  21.783  -1.108  0.00  0.00     0.236 C 
ATOM     22  O1  NON d   1     -38.783  22.138  -2.271  0.00  0.00    -0.272 OA
ATOM     23  H12 NON d   1     -39.663  20.140   0.083  0.00  0.00     0.190 HD
BRANCH  21  24
ATOM     24  C2  NON d   1     -38.519  22.568   0.109  0.00  0.00     0.105 C 
BRANCH  24  25
ATOM     25  C3  NON d   1     -39.480  22.517   1.308  0.00  0.00     0.014 C 
BRANCH  25  26
ATOM     26  C4  NON d   1     -40.858  23.176   1.088  0.00  0.00     0.039 C 
BRANCH  26  27
ATOM     27  C5  NON d   1     -40.951  24.512   0.388  0.00  0.00    -0.058 A 
ATOM     28  C6  NON d   1     -40.702  24.572  -0.994  0.00  0.00     0.007 A 
ATOM     29  C7  NON d   1     -40.795  25.779  -1.694  0.00  0.00     0.001 A 
ATOM     30  C8  NON d   1     -41.140  26.948  -1.022  0.00  0.00     0.000 A 
ATOM     31  C9  NON d   1     -41.432  26.899   0.337  0.00  0.00     0.001 A 
ATOM     32  C10 NON d   1     -41.367  25.684   1.027  0.00  0.00     0.007 A 
ENDBRANCH  26  27
ENDBRANCH  25  26
ENDBRANCH  24  25
ENDBRANCH  21  24
ENDBRANCH   1  20
TORSDOF 8
ENDMDL
MODEL 5
REMARK VINA RESULT:   -15.027      2.658     11.233
REMARK INTER + INTRA:         -19.408
REMARK INTER:                 -17.414
REMARK INTRA:                  -1.994
REMARK CONF_INDEPENDENT:        2.386
REMARK UNBOUND:                -1.994
REMARK  8 active torsions:
REMARK  status: ('A' for Active; 'I' for Inactive)
REMARK    1  A    between atoms: C1_2  and  C2_3 
REMARK       I    between atoms: C1_2  and  N1_12 
REMARK    2  A    between atoms: C2_3  and  C3_4 
REMARK    3  A    between atoms: C3_4  and  C4_5 
REMARK    4  A    between atoms: C4_5  and  C5_6 
REMARK    5  A    between atoms: N1_12  and  N2_13 
REMARK       I    between atoms: N2_13  and  C11_14 
REMARK    6  A    between atoms: C11_14  and  C12_16 
REMARK    7  A    between atoms: C16_20  and  N3_21 
REMARK       I    between atoms: N3_21  and  C17_22 
REMARK    8  A    between atoms: C17_22  and  C18_24 
ROOT
ATOM      1  N2  NON d   1     -40.001  19.338  -6.678  0.00  0.00    -0.263 N 
ATOM      2  C11 NON d   1     -41.370  19.412  -6.491  0.00  0.00     0.270 C 
ATOM      3  O2  NON d   1     -42.129  19.924  -7.310  0.00  0.00    -0.266 OA
ATOM      4  H13 NON d   1     -39.341  19.036  -5.966  0.00  0.00     0.190 HD
ENDROOT
BRANCH   2   5
ATOM      5  C12 NON d   1     -41.897  18.810  -5.213  0.00  0.00     0.035 A 
ATOM      6  C13 NON d   1     -41.113  18.804  -4.051  0.00  0.00     0.017 A 
ATOM      7  C14 NON d   1     -41.592  18.228  -2.882  0.00  0.00     0.003 A 
ATOM      8  C15 NON d   1     -42.848  17.630  -2.864  0.00  0.00     0.029 A 
ATOM      9  C16 NON d   1     -43.653  17.586  -4.007  0.00  0.00     0.036 A 
ATOM     10  C22 NON d   1     -43.170  18.192  -5.185  0.00  0.00     0.046 A 
BRANCH   9  11
ATOM     11  N3  NON d   1     -44.926  16.953  -4.012  0.00  0.00    -0.321 N 
ATOM     12  C17 NON d   1     -45.873  17.005  -5.034  0.00  0.00     0.279 C 
ATOM     13  O3  NON d   1     -45.738  17.628  -6.086  0.00  0.00    -0.265 OA
ATOM     14  H17 NON d   1     -45.198  16.425  -3.189  0.00  0.00     0.169 HD
BRANCH  12  15
ATOM     15  C18 NON d   1     -47.097  16.260  -4.799  0.00  0.00     0.142 A 
ATOM     16  C19 NON d   1     -47.806  16.099  -3.621  0.00  0.00     0.045 A 
ATOM     17  C20 NON d   1     -48.925  15.292  -3.923  0.00  0.00     0.027 A 
ATOM     18  C21 NON d   1     -48.832  15.005  -5.263  0.00  0.00     0.143 A 
ATOM     19  O4  NON d   1     -47.727  15.585  -5.810  0.00  0.00    -0.317 OA
ENDBRANCH  12  15
ENDBRANCH   9  11
ENDBRANCH   2   5
BRANCH   1  20
ATOM     20  N1  NON d   1     -39.394  19.702  -7.889  0.00  0.00    -0.267 N 
ATOM     21  C1  NON d   1     -38.027  19.492  -7.969  0.00  0.00     0.236 C 
ATOM     22  O1  NON d   1     -37.390  19.123  -6.984  0.00  0.00    -0.272 OA
ATOM     23  H12 NON d   1     -39.968  20.162  -8.591  0.00  0.00     0.190 HD
BRANCH  21  24
ATOM     24  C2  NON d   1     -37.416  19.773  -9.329  0.00  0.00     0.105 C 
BRANCH  24  25
ATOM     25  C3  NON d   1     -37.271  21.264  -9.680  0.00  0.00     0.014 C 
BRANCH  25  26
ATOM     26  C4  NON d   1     -38.535  22.125  -9.475  0.00  0.00     0.039 C 
BRANCH  26  27
ATOM     27  C5  NON d   1     -39.236  22.730 -10.669  0.00  0.00    -0.058 A 
ATOM     28  C6  NON d   1     -39.823  24.000 -10.538  0.00  0.00     0.007 A 
ATOM     29  C7  NON d   1     -40.466  24.614 -11.616  0.00  0.00     0.001 A 
ATOM     30  C8  NON d   1     -40.533  23.967 -12.848  0.00  0.00     0.000 A 
ATOM     31  C9  NON d   1     -39.919  22.730 -13.006  0.00  0.00     0.001 A 
ATOM     32  C10 NON d   1     -39.251  22.132 -11.933  0.00  0.00     0.007 A 
ENDBRANCH  26  27
ENDBRANCH  25  26
ENDBRANCH  24  25
ENDBRANCH  21  24
ENDBRANCH   1  20
TORSDOF 8
ENDMDL
MODEL 6
REMARK VINA RESULT:   -14.946      2.510     10.787
REMARK INTER + INTRA:         -19.946
REMARK INTER:                 -17.332
REMARK INTRA:                  -2.614
REMARK CONF_INDEPENDENT:        2.386
REMARK UNBOUND:                -2.614
REMARK  8 active torsions:
REMARK  status: ('A' for Active; 'I' for Inactive)
REMARK    1  A    between atoms: C1_2  and  C2_3 
REMARK       I    between atoms: C1_2  and  N1_12 
REMARK    2  A    between atoms: C2_3  and  C3_4 
REMARK    3  A    between atoms: C3_4  and  C4_5 
REMARK    4  A    between atoms: C4_5  and  C5_6 
REMARK    5  A    between atoms: N1_12  and  N2_13 
REMARK       I    between atoms: N2_13  and  C11_14 
REMARK    6  A    between atoms: C11_14  and  C12_16 
REMARK    7  A    between atoms: C16_20  and  N3_21 
REMARK       I    between atoms: N3_21  and  C17_22 
REMARK    8  A    between atoms: C17_22  and  C18_24 
ROOT
ATOM      1  N2  NON d   1     -40.909  21.052  -5.781  0.00  0.00    -0.263 N 
ATOM      2  C11 NON d   1     -41.745  20.020  -6.170  0.00  0.00     0.270 C 
ATOM      3  O2  NON d   1     -42.191  19.915  -7.310  0.00  0.00    -0.266 OA
ATOM      4  H13 NON d   1     -40.631  21.232  -4.820  0.00  0.00     0.190 HD
ENDROOT
BRANCH   2   5
ATOM      5  C12 NON d   1     -42.080  19.003  -5.108  0.00  0.00     0.035 A 
ATOM      6  C13 NON d   1     -41.106  18.582  -4.192  0.00  0.00     0.017 A 
ATOM      7  C14 NON d   1     -41.411  17.629  -3.230  0.00  0.00     0.003 A 
ATOM      8  C15 NON d   1     -42.682  17.065  -3.185  0.00  0.00     0.029 A 
ATOM      9  C16 NON d   1     -43.676  17.432  -4.098  0.00  0.00     0.036 A 
ATOM     10  C22 NON d   1     -43.367  18.417  -5.059  0.00  0.00     0.046 A 
BRANCH   9  11
ATOM     11  N3  NON d   1     -44.970  16.843  -4.085  0.00  0.00    -0.321 N 
ATOM     12  C17 NON d   1     -45.947  16.968  -5.072  0.00  0.00     0.279 C 
ATOM     13  O3  NON d   1     -45.824  17.626  -6.104  0.00  0.00    -0.265 OA
ATOM     14  H17 NON d   1     -45.234  16.294  -3.274  0.00  0.00     0.169 HD
BRANCH  12  15
ATOM     15  C18 NON d   1     -47.189  16.257  -4.825  0.00  0.00     0.142 A 
ATOM     16  C19 NON d   1     -47.928  16.175  -3.657  0.00  0.00     0.045 A 
ATOM     17  C20 NON d   1     -49.053  15.370  -3.939  0.00  0.00     0.027 A 
ATOM     18  C21 NON d   1     -48.934  15.005  -5.258  0.00  0.00     0.143 A 
ATOM     19  O4  NON d   1     -47.806  15.535  -5.810  0.00  0.00    -0.317 OA
ENDBRANCH  12  15
ENDBRANCH   9  11
ENDBRANCH   2   5
BRANCH   1  20
ATOM     20  N1  NON d   1     -40.382  21.969  -6.701  0.00  0.00    -0.267 N 
ATOM     21  C1  NON d   1     -39.309  22.724  -6.257  0.00  0.00     0.236 C 
ATOM     22  O1  NON d   1     -38.939  22.662  -5.085  0.00  0.00    -0.272 OA
ATOM     23  H12 NON d   1     -40.858  22.079  -7.593  0.00  0.00     0.190 HD
BRANCH  21  24
ATOM     24  C2  NON d   1     -38.675  23.615  -7.308  0.00  0.00     0.105 C 
BRANCH  24  25
ATOM     25  C3  NON d   1     -39.310  23.524  -8.706  0.00  0.00     0.014 C 
BRANCH  25  26
ATOM     26  C4  NON d   1     -38.769  22.399  -9.613  0.00  0.00     0.039 C 
BRANCH  26  27
ATOM     27  C5  NON d   1     -38.644  20.993  -9.076  0.00  0.00    -0.058 A 
ATOM     28  C6  NON d   1     -37.394  20.555  -8.606  0.00  0.00     0.007 A 
ATOM     29  C7  NON d   1     -37.228  19.271  -8.080  0.00  0.00     0.001 A 
ATOM     30  C8  NON d   1     -38.312  18.399  -8.015  0.00  0.00     0.000 A 
ATOM     31  C9  NON d   1     -39.565  18.831  -8.435  0.00  0.00     0.001 A 
ATOM     32  C10 NON d   1     -39.733  20.127  -8.933  0.00  0.00     0.007 A 
ENDBRANCH  26  27
ENDBRANCH  25  26
ENDBRANCH  24  25
ENDBRANCH  21  24
ENDBRANCH   1  20
TORSDOF 8
ENDMDL
MODEL 7
REMARK VINA RESULT:   -14.927      4.355     10.304
REMARK INTER + INTRA:         -19.562
REMARK INTER:                 -17.314
REMARK INTRA:                  -2.248
REMARK CONF_INDEPENDENT:        2.386
REMARK UNBOUND:                -2.248
REMARK  8 active torsions:
REMARK  status: ('A' for Active; 'I' for Inactive)
REMARK    1  A    between atoms: C1_2  and  C2_3 
REMARK       I    between atoms: C1_2  and  N1_12 
REMARK    2  A    between atoms: C2_3  and  C3_4 
REMARK    3  A    between atoms: C3_4  and  C4_5 
REMARK    4  A    between atoms: C4_5  and  C5_6 
REMARK    5  A    between atoms: N1_12  and  N2_13 
REMARK       I    between atoms: N2_13  and  C11_14 
REMARK    6  A    between atoms: C11_14  and  C12_16 
REMARK    7  A    between atoms: C16_20  and  N3_21 
REMARK       I    between atoms: N3_21  and  C17_22 
REMARK    8  A    between atoms: C17_22  and  C18_24 
ROOT
ATOM      1  N2  NON d   1     -39.168  19.122  -2.675  0.00  0.00    -0.263 N 
ATOM      2  C11 NON d   1     -40.251  18.266  -2.563  0.00  0.00     0.270 C 
ATOM      3  O2  NON d   1     -40.338  17.412  -1.685  0.00  0.00    -0.266 OA
ATOM      4  H13 NON d   1     -39.012  19.748  -3.461  0.00  0.00     0.190 HD
ENDROOT
BRANCH   2   5
ATOM      5  C12 NON d   1     -41.346  18.447  -3.584  0.00  0.00     0.035 A 
ATOM      6  C13 NON d   1     -41.211  19.388  -4.615  0.00  0.00     0.017 A 
ATOM      7  C14 NON d   1     -42.231  19.567  -5.540  0.00  0.00     0.003 A 
ATOM      8  C15 NON d   1     -43.406  18.830  -5.435  0.00  0.00     0.029 A 
ATOM      9  C16 NON d   1     -43.596  17.902  -4.406  0.00  0.00     0.036 A 
ATOM     10  C22 NON d   1     -42.548  17.708  -3.482  0.00  0.00     0.046 A 
BRANCH   9  11
ATOM     11  N3  NON d   1     -44.802  17.162  -4.267  0.00  0.00    -0.321 N 
ATOM     12  C17 NON d   1     -45.881  17.163  -5.151  0.00  0.00     0.279 C 
ATOM     13  O3  NON d   1     -45.941  17.825  -6.185  0.00  0.00    -0.265 OA
ATOM     14  H17 NON d   1     -44.916  16.590  -3.437  0.00  0.00     0.169 HD
BRANCH  12  15
ATOM     15  C18 NON d   1     -46.997  16.310  -4.784  0.00  0.00     0.142 A 
ATOM     16  C19 NON d   1     -47.443  15.951  -3.523  0.00  0.00     0.045 A 
ATOM     17  C20 NON d   1     -48.563  15.112  -3.708  0.00  0.00     0.027 A 
ATOM     18  C21 NON d   1     -48.735  15.005  -5.067  0.00  0.00     0.143 A 
ATOM     19  O4  NON d   1     -47.791  15.726  -5.735  0.00  0.00    -0.317 OA
ENDBRANCH  12  15
ENDBRANCH   9  11
ENDBRANCH   2   5
BRANCH   1  20
ATOM     20  N1  NON d   1     -38.163  19.181  -1.700  0.00  0.00    -0.267 N 
ATOM     21  C1  NON d   1     -37.324  20.282  -1.760  0.00  0.00     0.236 C 
ATOM     22  O1  NON d   1     -37.402  21.080  -2.692  0.00  0.00    -0.272 OA
ATOM     23  H12 NON d   1     -38.062  18.389  -1.069  0.00  0.00     0.190 HD
BRANCH  21  24
ATOM     24  C2  NON d   1     -36.328  20.390  -0.621  0.00  0.00     0.105 C 
BRANCH  24  25
ATOM     25  C3  NON d   1     -36.651  21.471   0.424  0.00  0.00     0.014 C 
BRANCH  25  26
ATOM     26  C4  NON d   1     -38.048  21.378   1.071  0.00  0.00     0.039 C 
BRANCH  26  27
ATOM     27  C5  NON d   1     -39.179  22.234   0.549  0.00  0.00    -0.058 A 
ATOM     28  C6  NON d   1     -39.132  22.680  -0.783  0.00  0.00     0.007 A 
ATOM     29  C7  NON d   1     -40.162  23.456  -1.322  0.00  0.00     0.001 A 
ATOM     30  C8  NON d   1     -41.259  23.800  -0.537  0.00  0.00     0.000 A 
ATOM     31  C9  NON d   1     -41.343  23.330   0.769  0.00  0.00     0.001 A 
ATOM     32  C10 NON d   1     -40.324  22.529   1.295  0.00  0.00     0.007 A 
ENDBRANCH  26  27
ENDBRANCH  25  26
ENDBRANCH  24  25
ENDBRANCH  21  24
ENDBRANCH   1  20
TORSDOF 8
ENDMDL
MODEL 8
REMARK VINA RESULT:   -14.610      2.650     10.913
REMARK INTER + INTRA:         -19.292
REMARK INTER:                 -16.997
REMARK INTRA:                  -2.295
REMARK CONF_INDEPENDENT:        2.386
REMARK UNBOUND:                -2.295
REMARK  8 active torsions:
REMARK  status: ('A' for Active; 'I' for Inactive)
REMARK    1  A    between atoms: C1_2  and  C2_3 
REMARK       I    between atoms: C1_2  and  N1_12 
REMARK    2  A    between atoms: C2_3  and  C3_4 
REMARK    3  A    between atoms: C3_4  and  C4_5 
REMARK    4  A    between atoms: C4_5  and  C5_6 
REMARK    5  A    between atoms: N1_12  and  N2_13 
REMARK       I    between atoms: N2_13  and  C11_14 
REMARK    6  A    between atoms: C11_14  and  C12_16 
REMARK    7  A    between atoms: C16_20  and  N3_21 
REMARK       I    between atoms: N3_21  and  C17_22 
REMARK    8  A    between atoms: C17_22  and  C18_24 
ROOT
ATOM      1  N2  NON d   1     -39.687  18.837  -6.645  0.00  0.00    -0.263 N 
ATOM      2  C11 NON d   1     -41.039  19.080  -6.477  0.00  0.00     0.270 C 
ATOM      3  O2  NON d   1     -41.725  19.646  -7.324  0.00  0.00    -0.266 OA
ATOM      4  H13 NON d   1     -39.073  18.487  -5.914  0.00  0.00     0.190 HD
ENDROOT
BRANCH   2   5
ATOM      5  C12 NON d   1     -41.643  18.596  -5.184  0.00  0.00     0.035 A 
ATOM      6  C13 NON d   1     -40.920  18.673  -3.986  0.00  0.00     0.017 A 
ATOM      7  C14 NON d   1     -41.470  18.205  -2.800  0.00  0.00     0.003 A 
ATOM      8  C15 NON d   1     -42.738  17.632  -2.799  0.00  0.00     0.029 A 
ATOM      9  C16 NON d   1     -43.484  17.506  -3.975  0.00  0.00     0.036 A 
ATOM     10  C22 NON d   1     -42.929  18.003  -5.172  0.00  0.00     0.046 A 
BRANCH   9  11
ATOM     11  N3  NON d   1     -44.768  16.895  -3.996  0.00  0.00    -0.321 N 
ATOM     12  C17 NON d   1     -45.712  16.987  -5.017  0.00  0.00     0.279 C 
ATOM     13  O3  NON d   1     -45.565  17.630  -6.055  0.00  0.00    -0.265 OA
ATOM     14  H17 NON d   1     -45.050  16.355  -3.185  0.00  0.00     0.169 HD
BRANCH  12  15
ATOM     15  C18 NON d   1     -46.950  16.259  -4.800  0.00  0.00     0.142 A 
ATOM     16  C19 NON d   1     -47.697  16.137  -3.641  0.00  0.00     0.045 A 
ATOM     17  C20 NON d   1     -48.813  15.331  -3.954  0.00  0.00     0.027 A 
ATOM     18  C21 NON d   1     -48.681  15.005  -5.282  0.00  0.00     0.143 A 
ATOM     19  O4  NON d   1     -47.553  15.560  -5.810  0.00  0.00    -0.317 OA
ENDBRANCH  12  15
ENDBRANCH   9  11
ENDBRANCH   2   5
BRANCH   1  20
ATOM     20  N1  NON d   1     -39.032  19.078  -7.861  0.00  0.00    -0.267 N 
ATOM     21  C1  NON d   1     -37.674  18.810  -7.883  0.00  0.00     0.236 C 
ATOM     22  O1  NON d   1     -37.079  18.496  -6.852  0.00  0.00    -0.272 OA
ATOM     23  H12 NON d   1     -39.567  19.503  -8.615  0.00  0.00     0.190 HD
BRANCH  21  24
ATOM     24  C2  NON d   1     -37.014  18.957  -9.240  0.00  0.00     0.105 C 
BRANCH  24  25
ATOM     25  C3  NON d   1     -36.765  20.407  -9.688  0.00  0.00     0.014 C 
BRANCH  25  26
ATOM     26  C4  NON d   1     -37.886  21.047 -10.534  0.00  0.00     0.039 C 
BRANCH  26  27
ATOM     27  C5  NON d   1     -38.747  22.138  -9.942  0.00  0.00    -0.058 A 
ATOM     28  C6  NON d   1     -39.108  22.056  -8.586  0.00  0.00     0.007 A 
ATOM     29  C7  NON d   1     -39.886  23.049  -7.984  0.00  0.00     0.001 A 
ATOM     30  C8  NON d   1     -40.317  24.144  -8.728  0.00  0.00     0.000 A 
ATOM     31  C9  NON d   1     -39.931  24.263 -10.060  0.00  0.00     0.001 A 
ATOM     32  C10 NON d   1     -39.128  23.282 -10.650  0.00  0.00     0.007 A 
ENDBRANCH  26  27
ENDBRANCH  25  26
ENDBRANCH  24  25
ENDBRANCH  21  24
ENDBRANCH   1  20
TORSDOF 8
ENDMDL
MODEL 9
REMARK VINA RESULT:   -13.872      2.632     12.021
REMARK INTER + INTRA:         -18.120
REMARK INTER:                 -16.258
REMARK INTRA:                  -1.862
REMARK CONF_INDEPENDENT:        2.386
REMARK UNBOUND:                -1.862
REMARK  8 active torsions:
REMARK  status: ('A' for Active; 'I' for Inactive)
REMARK    1  A    between atoms: C1_2  and  C2_3 
REMARK       I    between atoms: C1_2  and  N1_12 
REMARK    2  A    between atoms: C2_3  and  C3_4 
REMARK    3  A    between atoms: C3_4  and  C4_5 
REMARK    4  A    between atoms: C4_5  and  C5_6 
REMARK    5  A    between atoms: N1_12  and  N2_13 
REMARK       I    between atoms: N2_13  and  C11_14 
REMARK    6  A    between atoms: C11_14  and  C12_16 
REMARK    7  A    between atoms: C16_20  and  N3_21 
REMARK       I    between atoms: N3_21  and  C17_22 
REMARK    8  A    between atoms: C17_22  and  C18_24 
ROOT
ATOM      1  N2  NON d   1     -40.843  20.073  -7.025  0.00  0.00    -0.263 N 
ATOM      2  C11 NON d   1     -40.851  18.756  -6.600  0.00  0.00     0.270 C 
ATOM      3  O2  NON d   1     -40.328  17.845  -7.238  0.00  0.00    -0.266 OA
ATOM      4  H13 NON d   1     -41.374  20.820  -6.584  0.00  0.00     0.190 HD
ENDROOT
BRANCH   2   5
ATOM      5  C12 NON d   1     -41.537  18.488  -5.284  0.00  0.00     0.035 A 
ATOM      6  C13 NON d   1     -40.904  18.804  -4.074  0.00  0.00     0.017 A 
ATOM      7  C14 NON d   1     -41.528  18.536  -2.863  0.00  0.00     0.003 A 
ATOM      8  C15 NON d   1     -42.779  17.927  -2.843  0.00  0.00     0.029 A 
ATOM      9  C16 NON d   1     -43.434  17.567  -4.025  0.00  0.00     0.036 A 
ATOM     10  C22 NON d   1     -42.805  17.862  -5.252  0.00  0.00     0.046 A 
BRANCH   9  11
ATOM     11  N3  NON d   1     -44.699  16.916  -4.022  0.00  0.00    -0.321 N 
ATOM     12  C17 NON d   1     -45.665  16.979  -5.024  0.00  0.00     0.279 C 
ATOM     13  O3  NON d   1     -45.559  17.628  -6.063  0.00  0.00    -0.265 OA
ATOM     14  H17 NON d   1     -44.948  16.366  -3.206  0.00  0.00     0.169 HD
BRANCH  12  15
ATOM     15  C18 NON d   1     -46.875  16.214  -4.784  0.00  0.00     0.142 A 
ATOM     16  C19 NON d   1     -47.517  15.952  -3.585  0.00  0.00     0.045 A 
ATOM     17  C20 NON d   1     -48.652  15.169  -3.889  0.00  0.00     0.027 A 
ATOM     18  C21 NON d   1     -48.635  14.995  -5.252  0.00  0.00     0.143 A 
ATOM     19  O4  NON d   1     -47.562  15.623  -5.810  0.00  0.00    -0.317 OA
ENDBRANCH  12  15
ENDBRANCH   9  11
ENDBRANCH   2   5
BRANCH   1  20
ATOM     20  N1  NON d   1     -40.100  20.492  -8.137  0.00  0.00    -0.267 N 
ATOM     21  C1  NON d   1     -39.809  21.844  -8.198  0.00  0.00     0.236 C 
ATOM     22  O1  NON d   1     -40.286  22.627  -7.377  0.00  0.00    -0.272 OA
ATOM     23  H12 NON d   1     -39.893  19.806  -8.859  0.00  0.00     0.190 HD
BRANCH  21  24
ATOM     24  C2  NON d   1     -38.898  22.252  -9.340  0.00  0.00     0.105 C 
BRANCH  24  25
ATOM     25  C3  NON d   1     -37.400  22.288  -8.995  0.00  0.00     0.014 C 
BRANCH  25  26
ATOM     26  C4  NON d   1     -36.444  22.483 -10.190  0.00  0.00     0.039 C 
BRANCH  26  27
ATOM     27  C5  NON d   1     -36.774  21.864 -11.528  0.00  0.00    -0.058 A 
ATOM     28  C6  NON d   1     -36.239  20.603 -11.842  0.00  0.00     0.007 A 
ATOM     29  C7  NON d   1     -36.529  19.976 -13.058  0.00  0.00     0.001 A 
ATOM     30  C8  NON d   1     -37.363  20.601 -13.982  0.00  0.00     0.000 A 
ATOM     31  C9  NON d   1     -37.936  21.829 -13.668  0.00  0.00     0.001 A 
ATOM     32  C10 NON d   1     -37.666  22.438 -12.439  0.00  0.00     0.007 A 
ENDBRANCH  26  27
ENDBRANCH  25  26
ENDBRANCH  24  25
ENDBRANCH  21  24
ENDBRANCH   1  20
TORSDOF 8
ENDMDL
