MODEL 1
REMARK VINA RESULT:    -9.562      0.000      0.000
REMARK INTER + INTRA:         -12.419
REMARK INTER:                 -11.352
REMARK INTRA:                  -1.067
REMARK CONF_INDEPENDENT:        1.790
REMARK UNBOUND:                -1.067
REMARK  6 active torsions:
REMARK  status: ('A' for Active; 'I' for Inactive)
REMARK    1  A    between atoms: C2_2  and  C3_3 
REMARK    2  A    between atoms: C7_7  and  N1_8 
REMARK       I    between atoms: N1_8  and  C8_9 
REMARK       I    between atoms: C8_9  and  N2_10 
REMARK       I    between atoms: N2_10  and  C9_11 
REMARK    3  A    between atoms: C9_11  and  C10_13 
REMARK    4  A    between atoms: N3_20  and  C16_21 
REMARK    5  A    between atoms: C16_21  and  C17_22 
REMARK    6  A    between atoms: C17_22  and  C18_23 
ROOT
ATOM      1  N1  NON d   1     -41.178  19.756  -6.211  0.00  0.00    -0.190 N 
ATOM      2  C8  NON d   1     -40.699  21.040  -6.128  0.00  0.00     0.703 C 
ATOM      3  N2  NON d   1     -40.241  21.635  -7.296  0.00  0.00    -0.154 N 
ATOM      4  C9  NON d   1     -40.149  21.057  -8.559  0.00  0.00     0.273 C 
ATOM      5  O1  NON d   1     -40.509  19.900  -8.764  0.00  0.00    -0.267 OA
ATOM      6  N3  NON d   1     -40.667  21.708  -5.036  0.00  0.00    -0.107 NA
ATOM      7  H9  NON d   1     -41.131  19.338  -7.139  0.00  0.00     0.184 HD
ATOM      8  H10 NON d   1     -39.969  22.590  -7.177  0.00  0.00     0.187 HD
ENDROOT
BRANCH   1   9
ATOM      9  C7  NON d   1     -41.676  18.910  -5.199  0.00  0.00     0.049 A 
ATOM     10  C6  NON d   1     -40.884  18.337  -4.199  0.00  0.00     0.030 A 
ATOM     11  C5  NON d   1     -41.434  17.523  -3.207  0.00  0.00     0.003 A 
ATOM     12  C4  NON d   1     -42.800  17.269  -3.186  0.00  0.00     0.007 A 
ATOM     13  C3  NON d   1     -43.638  17.834  -4.150  0.00  0.00    -0.056 A 
ATOM     14  C26 NON d   1     -43.059  18.646  -5.151  0.00  0.00     0.037 A 
BRANCH  13  15
ATOM     15  C2  NON d   1     -45.136  17.620  -4.169  0.00  0.00     0.034 C 
ATOM     16  C1  NON d   1     -45.655  16.505  -5.072  0.00  0.00     0.010 C 
ENDBRANCH  13  15
ENDBRANCH   1   9
BRANCH   6  17
ATOM     17  C16 NON d   1     -40.165  23.054  -4.831  0.00  0.00     0.173 C 
BRANCH  17  18
ATOM     18  C17 NON d   1     -40.723  23.600  -3.506  0.00  0.00     0.063 C 
BRANCH  18  19
ATOM     19  C18 NON d   1     -40.463  22.773  -2.275  0.00  0.00    -0.029 A 
ATOM     20  C19 NON d   1     -40.686  23.199  -0.921  0.00  0.00    -0.002 A 
ATOM     21  C20 NON d   1     -41.172  24.387  -0.334  0.00  0.00     0.014 A 
ATOM     22  C24 NON d   1     -40.305  22.155  -0.077  0.00  0.00     0.042 A 
ATOM     23  C21 NON d   1     -41.264  24.483   1.060  0.00  0.00     0.001 A 
ATOM     24  C22 NON d   1     -40.881  23.419   1.872  0.00  0.00     0.002 A 
ATOM     25  C23 NON d   1     -40.392  22.234   1.318  0.00  0.00     0.030 A 
ATOM     26  N4  NON d   1     -39.853  21.136  -0.881  0.00  0.00    -0.365 N 
ATOM     27  C25 NON d   1     -39.939  21.496  -2.197  0.00  0.00     0.096 A 
ATOM     28  H23 NON d   1     -39.491  20.255  -0.543  0.00  0.00     0.165 HD
ENDBRANCH  18  19
ENDBRANCH  17  18
ENDBRANCH   6  17
BRANCH   4  29
ATOM     29  C10 NON d   1     -39.590  21.897  -9.671  0.00  0.00     0.071 A 
ATOM     30  C11 NON d   1     -38.766  21.379 -10.688  0.00  0.00     0.020 A 
ATOM     31  C12 NON d   1     -38.276  22.212 -11.705  0.00  0.00     0.001 A 
ATOM     32  C13 NON d   1     -38.605  23.564 -11.728  0.00  0.00     0.003 A 
ATOM     33  C14 NON d   1     -39.425  24.088 -10.735  0.00  0.00     0.043 A 
ATOM     34  C15 NON d   1     -39.909  23.261  -9.719  0.00  0.00     0.132 A 
ATOM     35  F1  NON d   1     -40.691  23.832  -8.790  0.00  0.00    -0.205 F 
ENDBRANCH   4  29
TORSDOF 6
ENDMDL
MODEL 2
REMARK VINA RESULT:    -9.324      3.713      7.672
REMARK INTER + INTRA:         -13.330
REMARK INTER:                 -11.114
REMARK INTRA:                  -2.215
REMARK CONF_INDEPENDENT:        1.790
REMARK UNBOUND:                -2.215
REMARK  6 active torsions:
REMARK  status: ('A' for Active; 'I' for Inactive)
REMARK    1  A    between atoms: C2_2  and  C3_3 
REMARK    2  A    between atoms: C7_7  and  N1_8 
REMARK       I    between atoms: N1_8  and  C8_9 
REMARK       I    between atoms: C8_9  and  N2_10 
REMARK       I    between atoms: N2_10  and  C9_11 
REMARK    3  A    between atoms: C9_11  and  C10_13 
REMARK    4  A    between atoms: N3_20  and  C16_21 
REMARK    5  A    between atoms: C16_21  and  C17_22 
REMARK    6  A    between atoms: C17_22  and  C18_23 
ROOT
ATOM      1  N1  NON d   1     -42.990  18.551  -5.616  0.00  0.00    -0.190 N 
ATOM      2  C8  NON d   1     -43.108  18.182  -4.298  0.00  0.00     0.703 C 
ATOM      3  N2  NON d   1     -44.303  17.605  -3.894  0.00  0.00    -0.154 N 
ATOM      4  C9  NON d   1     -45.446  17.403  -4.663  0.00  0.00     0.273 C 
ATOM      5  O1  NON d   1     -45.488  17.721  -5.849  0.00  0.00    -0.267 OA
ATOM      6  N3  NON d   1     -42.170  18.337  -3.440  0.00  0.00    -0.107 NA
ATOM      7  H9  NON d   1     -43.818  18.385  -6.185  0.00  0.00     0.184 HD
ATOM      8  H10 NON d   1     -44.297  17.300  -2.942  0.00  0.00     0.187 HD
ENDROOT
BRANCH   1   9
ATOM      9  C7  NON d   1     -41.916  19.172  -6.288  0.00  0.00     0.049 A 
ATOM     10  C6  NON d   1     -42.063  20.254  -7.161  0.00  0.00     0.030 A 
ATOM     11  C5  NON d   1     -40.962  20.845  -7.784  0.00  0.00     0.003 A 
ATOM     12  C4  NON d   1     -39.679  20.370  -7.539  0.00  0.00     0.007 A 
ATOM     13  C3  NON d   1     -39.477  19.305  -6.659  0.00  0.00    -0.056 A 
ATOM     14  C26 NON d   1     -40.606  18.715  -6.048  0.00  0.00     0.037 A 
BRANCH  13  15
ATOM     15  C2  NON d   1     -38.106  18.757  -6.328  0.00  0.00     0.034 C 
ATOM     16  C1  NON d   1     -37.236  18.334  -7.508  0.00  0.00     0.010 C 
ENDBRANCH  13  15
ENDBRANCH   1   9
BRANCH   6  17
ATOM     17  C16 NON d   1     -42.194  18.005  -2.028  0.00  0.00     0.173 C 
BRANCH  17  18
ATOM     18  C17 NON d   1     -41.065  18.768  -1.314  0.00  0.00     0.063 C 
BRANCH  18  19
ATOM     19  C18 NON d   1     -39.904  19.203  -2.168  0.00  0.00    -0.029 A 
ATOM     20  C19 NON d   1     -39.824  20.435  -2.904  0.00  0.00    -0.002 A 
ATOM     21  C20 NON d   1     -40.689  21.539  -3.065  0.00  0.00     0.014 A 
ATOM     22  C24 NON d   1     -38.603  20.450  -3.579  0.00  0.00     0.042 A 
ATOM     23  C21 NON d   1     -40.301  22.609  -3.880  0.00  0.00     0.001 A 
ATOM     24  C22 NON d   1     -39.072  22.595  -4.534  0.00  0.00     0.002 A 
ATOM     25  C23 NON d   1     -38.199  21.512  -4.396  0.00  0.00     0.030 A 
ATOM     26  N4  NON d   1     -37.966  19.270  -3.281  0.00  0.00    -0.365 N 
ATOM     27  C25 NON d   1     -38.737  18.514  -2.441  0.00  0.00     0.096 A 
ATOM     28  H23 NON d   1     -37.065  18.994  -3.646  0.00  0.00     0.165 HD
ENDBRANCH  18  19
ENDBRANCH  17  18
ENDBRANCH   6  17
BRANCH   4  29
ATOM     29  C10 NON d   1     -46.636  16.780  -3.992  0.00  0.00     0.071 A 
ATOM     30  C11 NON d   1     -47.079  17.150  -2.708  0.00  0.00     0.020 A 
ATOM     31  C12 NON d   1     -48.202  16.536  -2.134  0.00  0.00     0.001 A 
ATOM     32  C13 NON d   1     -48.900  15.553  -2.828  0.00  0.00     0.003 A 
ATOM     33  C14 NON d   1     -48.480  15.182  -4.100  0.00  0.00     0.043 A 
ATOM     34  C15 NON d   1     -47.359  15.789  -4.672  0.00  0.00     0.132 A 
ATOM     35  F1  NON d   1     -47.005  15.380  -5.899  0.00  0.00    -0.205 F 
ENDBRANCH   4  29
TORSDOF 6
ENDMDL
MODEL 3
REMARK VINA RESULT:    -8.792      3.091      7.366
REMARK INTER + INTRA:         -11.744
REMARK INTER:                 -10.582
REMARK INTRA:                  -1.162
REMARK CONF_INDEPENDENT:        1.790
REMARK UNBOUND:                -1.162
REMARK  6 active torsions:
REMARK  status: ('A' for Active; 'I' for Inactive)
REMARK    1  A    between atoms: C2_2  and  C3_3 
REMARK    2  A    between atoms: C7_7  and  N1_8 
REMARK       I    between atoms: N1_8  and  C8_9 
REMARK       I    between atoms: C8_9  and  N2_10 
REMARK       I    between atoms: N2_10  and  C9_11 
REMARK    3  A    between atoms: C9_11  and  C10_13 
REMARK    4  A    between atoms: N3_20  and  C16_21 
REMARK    5  A    between atoms: C16_21  and  C17_22 
REMARK    6  A    between atoms: C17_22  and  C18_23 
ROOT
ATOM      1  N1  NON d   1     -42.759  18.215  -5.451  0.00  0.00    -0.190 N 
ATOM      2  C8  NON d   1     -43.008  18.016  -4.115  0.00  0.00     0.703 C 
ATOM      3  N2  NON d   1     -44.261  17.540  -3.756  0.00  0.00    -0.154 N 
ATOM      4  C9  NON d   1     -45.342  17.289  -4.596  0.00  0.00     0.273 C 
ATOM      5  O1  NON d   1     -45.267  17.461  -5.810  0.00  0.00    -0.267 OA
ATOM      6  N3  NON d   1     -42.140  18.238  -3.199  0.00  0.00    -0.107 NA
ATOM      7  H9  NON d   1     -43.543  18.013  -6.069  0.00  0.00     0.184 HD
ATOM      8  H10 NON d   1     -44.352  17.354  -2.777  0.00  0.00     0.187 HD
ENDROOT
BRANCH   1   9
ATOM      9  C7  NON d   1     -41.603  18.706  -6.092  0.00  0.00     0.049 A 
ATOM     10  C6  NON d   1     -40.396  18.005  -6.171  0.00  0.00     0.030 A 
ATOM     11  C5  NON d   1     -39.288  18.531  -6.838  0.00  0.00     0.003 A 
ATOM     12  C4  NON d   1     -39.364  19.774  -7.454  0.00  0.00     0.007 A 
ATOM     13  C3  NON d   1     -40.554  20.505  -7.422  0.00  0.00    -0.056 A 
ATOM     14  C26 NON d   1     -41.660  19.960  -6.732  0.00  0.00     0.037 A 
BRANCH  13  15
ATOM     15  C2  NON d   1     -40.713  21.852  -8.093  0.00  0.00     0.034 C 
ATOM     16  C1  NON d   1     -39.612  22.877  -7.837  0.00  0.00     0.010 C 
ENDBRANCH  13  15
ENDBRANCH   1   9
BRANCH   6  17
ATOM     17  C16 NON d   1     -42.302  18.084  -1.766  0.00  0.00     0.173 C 
BRANCH  17  18
ATOM     18  C17 NON d   1     -41.064  18.658  -1.057  0.00  0.00     0.063 C 
BRANCH  18  19
ATOM     19  C18 NON d   1     -40.311  19.738  -1.788  0.00  0.00    -0.029 A 
ATOM     20  C19 NON d   1     -40.031  21.051  -1.278  0.00  0.00    -0.002 A 
ATOM     21  C20 NON d   1     -40.315  21.713  -0.064  0.00  0.00     0.014 A 
ATOM     22  C24 NON d   1     -39.334  21.752  -2.263  0.00  0.00     0.042 A 
ATOM     23  C21 NON d   1     -39.891  23.035   0.120  0.00  0.00     0.001 A 
ATOM     24  C22 NON d   1     -39.192  23.703  -0.882  0.00  0.00     0.002 A 
ATOM     25  C23 NON d   1     -38.902  23.073  -2.095  0.00  0.00     0.030 A 
ATOM     26  N4  NON d   1     -39.206  20.908  -3.339  0.00  0.00    -0.365 N 
ATOM     27  C25 NON d   1     -39.790  19.701  -3.068  0.00  0.00     0.096 A 
ATOM     28  H23 NON d   1     -38.760  21.153  -4.212  0.00  0.00     0.165 HD
ENDBRANCH  18  19
ENDBRANCH  17  18
ENDBRANCH   6  17
BRANCH   4  29
ATOM     29  C10 NON d   1     -46.615  16.800  -3.967  0.00  0.00     0.071 A 
ATOM     30  C11 NON d   1     -47.083  17.255  -2.719  0.00  0.00     0.020 A 
ATOM     31  C12 NON d   1     -48.283  16.765  -2.184  0.00  0.00     0.001 A 
ATOM     32  C13 NON d   1     -49.034  15.824  -2.881  0.00  0.00     0.003 A 
ATOM     33  C14 NON d   1     -48.589  15.371  -4.118  0.00  0.00     0.043 A 
ATOM     34  C15 NON d   1     -47.392  15.854  -4.651  0.00  0.00     0.132 A 
ATOM     35  F1  NON d   1     -47.019  15.372  -5.845  0.00  0.00    -0.205 F 
ENDBRANCH   4  29
TORSDOF 6
ENDMDL
MODEL 4
REMARK VINA RESULT:    -8.590      3.544      7.799
REMARK INTER + INTRA:         -12.723
REMARK INTER:                 -10.379
REMARK INTRA:                  -2.344
REMARK CONF_INDEPENDENT:        1.790
REMARK UNBOUND:                -2.344
REMARK  6 active torsions:
REMARK  status: ('A' for Active; 'I' for Inactive)
REMARK    1  A    between atoms: C2_2  and  C3_3 
REMARK    2  A    between atoms: C7_7  and  N1_8 
REMARK       I    between atoms: N1_8  and  C8_9 
REMARK       I    between atoms: C8_9  and  N2_10 
REMARK       I    between atoms: N2_10  and  C9_11 
REMARK    3  A    between atoms: C9_11  and  C10_13 
REMARK    4  A    between atoms: N3_20  and  C16_21 
REMARK    5  A    between atoms: C16_21  and  C17_22 
REMARK    6  A    between atoms: C17_22  and  C18_23 
ROOT
ATOM      1  N1  NON d   1     -42.717  18.353  -5.442  0.00  0.00    -0.190 N 
ATOM      2  C8  NON d   1     -42.944  18.072  -4.117  0.00  0.00     0.703 C 
ATOM      3  N2  NON d   1     -44.188  17.564  -3.769  0.00  0.00    -0.154 N 
ATOM      4  C9  NON d   1     -45.279  17.354  -4.607  0.00  0.00     0.273 C 
ATOM      5  O1  NON d   1     -45.224  17.599  -5.810  0.00  0.00    -0.267 OA
ATOM      6  N3  NON d   1     -42.065  18.247  -3.202  0.00  0.00    -0.107 NA
ATOM      7  H9  NON d   1     -43.508  18.181  -6.060  0.00  0.00     0.184 HD
ATOM      8  H10 NON d   1     -44.262  17.319  -2.802  0.00  0.00     0.187 HD
ENDROOT
BRANCH   1   9
ATOM      9  C7  NON d   1     -41.574  18.892  -6.069  0.00  0.00     0.049 A 
ATOM     10  C6  NON d   1     -40.663  18.138  -6.816  0.00  0.00     0.030 A 
ATOM     11  C5  NON d   1     -39.560  18.729  -7.434  0.00  0.00     0.003 A 
ATOM     12  C4  NON d   1     -39.345  20.098  -7.327  0.00  0.00     0.007 A 
ATOM     13  C3  NON d   1     -40.237  20.898  -6.610  0.00  0.00    -0.056 A 
ATOM     14  C26 NON d   1     -41.341  20.279  -5.984  0.00  0.00     0.037 A 
BRANCH  13  15
ATOM     15  C2  NON d   1     -40.076  22.397  -6.477  0.00  0.00     0.034 C 
ATOM     16  C1  NON d   1     -40.498  23.013  -5.147  0.00  0.00     0.010 C 
ENDBRANCH  13  15
ENDBRANCH   1   9
BRANCH   6  17
ATOM     17  C16 NON d   1     -42.204  18.005  -1.778  0.00  0.00     0.173 C 
BRANCH  17  18
ATOM     18  C17 NON d   1     -41.066  18.724  -1.035  0.00  0.00     0.063 C 
BRANCH  18  19
ATOM     19  C18 NON d   1     -40.222  19.669  -1.849  0.00  0.00    -0.029 A 
ATOM     20  C19 NON d   1     -39.171  19.284  -2.750  0.00  0.00    -0.002 A 
ATOM     21  C20 NON d   1     -38.628  18.045  -3.151  0.00  0.00     0.014 A 
ATOM     22  C24 NON d   1     -38.625  20.448  -3.290  0.00  0.00     0.042 A 
ATOM     23  C21 NON d   1     -37.574  18.016  -4.072  0.00  0.00     0.001 A 
ATOM     24  C22 NON d   1     -37.056  19.198  -4.596  0.00  0.00     0.002 A 
ATOM     25  C23 NON d   1     -37.572  20.439  -4.213  0.00  0.00     0.030 A 
ATOM     26  N4  NON d   1     -39.303  21.505  -2.731  0.00  0.00    -0.365 N 
ATOM     27  C25 NON d   1     -40.258  21.051  -1.864  0.00  0.00     0.096 A 
ATOM     28  H23 NON d   1     -39.108  22.478  -2.921  0.00  0.00     0.165 HD
ENDBRANCH  18  19
ENDBRANCH  17  18
ENDBRANCH   6  17
BRANCH   4  29
ATOM     29  C10 NON d   1     -46.539  16.817  -3.990  0.00  0.00     0.071 A 
ATOM     30  C11 NON d   1     -47.033  17.249  -2.745  0.00  0.00     0.020 A 
ATOM     31  C12 NON d   1     -48.218  16.714  -2.221  0.00  0.00     0.001 A 
ATOM     32  C13 NON d   1     -48.930  15.750  -2.928  0.00  0.00     0.003 A 
ATOM     33  C14 NON d   1     -48.459  15.318  -4.163  0.00  0.00     0.043 A 
ATOM     34  C15 NON d   1     -47.276  15.847  -4.684  0.00  0.00     0.132 A 
ATOM     35  F1  NON d   1     -46.876  15.383  -5.878  0.00  0.00    -0.205 F 
ENDBRANCH   4  29
TORSDOF 6
ENDMDL
MODEL 5
REMARK VINA RESULT:    -7.994      3.314      7.426
REMARK INTER + INTRA:         -11.693
REMARK INTER:                  -9.783
REMARK INTRA:                  -1.910
REMARK CONF_INDEPENDENT:        1.790
REMARK UNBOUND:                -1.910
REMARK  6 active torsions:
REMARK  status: ('A' for Active; 'I' for Inactive)
REMARK    1  A    between atoms: C2_2  and  C3_3 
REMARK    2  A    between atoms: C7_7  and  N1_8 
REMARK       I    between atoms: N1_8  and  C8_9 
REMARK       I    between atoms: C8_9  and  N2_10 
REMARK       I    between atoms: N2_10  and  C9_11 
REMARK    3  A    between atoms: C9_11  and  C10_13 
REMARK    4  A    between atoms: N3_20  and  C16_21 
REMARK    5  A    between atoms: C16_21  and  C17_22 
REMARK    6  A    between atoms: C17_22  and  C18_23 
ROOT
ATOM      1  N1  NON d   1     -42.861  19.097  -5.664  0.00  0.00    -0.190 N 
ATOM      2  C8  NON d   1     -42.914  18.264  -4.574  0.00  0.00     0.703 C 
ATOM      3  N2  NON d   1     -44.085  17.551  -4.363  0.00  0.00    -0.154 N 
ATOM      4  C9  NON d   1     -45.262  17.620  -5.103  0.00  0.00     0.273 C 
ATOM      5  O1  NON d   1     -45.363  18.355  -6.083  0.00  0.00    -0.267 OA
ATOM      6  N3  NON d   1     -41.937  18.111  -3.760  0.00  0.00    -0.107 NA
ATOM      7  H9  NON d   1     -43.714  19.134  -6.219  0.00  0.00     0.184 HD
ATOM      8  H10 NON d   1     -44.032  16.915  -3.593  0.00  0.00     0.187 HD
ENDROOT
BRANCH   1   9
ATOM      9  C7  NON d   1     -41.825  19.947  -6.103  0.00  0.00     0.049 A 
ATOM     10  C6  NON d   1     -41.243  19.880  -7.373  0.00  0.00     0.030 A 
ATOM     11  C5  NON d   1     -40.235  20.763  -7.763  0.00  0.00     0.003 A 
ATOM     12  C4  NON d   1     -39.787  21.747  -6.890  0.00  0.00     0.007 A 
ATOM     13  C3  NON d   1     -40.350  21.869  -5.617  0.00  0.00    -0.056 A 
ATOM     14  C26 NON d   1     -41.362  20.959  -5.239  0.00  0.00     0.037 A 
BRANCH  13  15
ATOM     15  C2  NON d   1     -39.928  22.934  -4.628  0.00  0.00     0.034 C 
ATOM     16  C1  NON d   1     -40.317  24.370  -4.963  0.00  0.00     0.010 C 
ENDBRANCH  13  15
ENDBRANCH   1   9
BRANCH   6  17
ATOM     17  C16 NON d   1     -41.892  17.280  -2.572  0.00  0.00     0.173 C 
BRANCH  17  18
ATOM     18  C17 NON d   1     -40.424  17.066  -2.166  0.00  0.00     0.063 C 
BRANCH  18  19
ATOM     19  C18 NON d   1     -39.445  18.126  -2.596  0.00  0.00    -0.029 A 
ATOM     20  C19 NON d   1     -39.461  19.498  -2.169  0.00  0.00    -0.002 A 
ATOM     21  C20 NON d   1     -40.285  20.246  -1.302  0.00  0.00     0.014 A 
ATOM     22  C24 NON d   1     -38.407  20.155  -2.806  0.00  0.00     0.042 A 
ATOM     23  C21 NON d   1     -40.024  21.607  -1.100  0.00  0.00     0.001 A 
ATOM     24  C22 NON d   1     -38.959  22.229  -1.747  0.00  0.00     0.002 A 
ATOM     25  C23 NON d   1     -38.130  21.513  -2.615  0.00  0.00     0.030 A 
ATOM     26  N4  NON d   1     -37.781  19.226  -3.602  0.00  0.00    -0.365 N 
ATOM     27  C25 NON d   1     -38.395  18.010  -3.488  0.00  0.00     0.096 A 
ATOM     28  H23 NON d   1     -36.989  19.422  -4.200  0.00  0.00     0.165 HD
ENDBRANCH  18  19
ENDBRANCH  17  18
ENDBRANCH   6  17
BRANCH   4  29
ATOM     29  C10 NON d   1     -46.415  16.766  -4.662  0.00  0.00     0.071 A 
ATOM     30  C11 NON d   1     -47.100  15.890  -5.524  0.00  0.00     0.020 A 
ATOM     31  C12 NON d   1     -48.168  15.112  -5.054  0.00  0.00     0.001 A 
ATOM     32  C13 NON d   1     -48.563  15.189  -3.722  0.00  0.00     0.003 A 
ATOM     33  C14 NON d   1     -47.891  16.044  -2.855  0.00  0.00     0.043 A 
ATOM     34  C15 NON d   1     -46.831  16.823  -3.324  0.00  0.00     0.132 A 
ATOM     35  F1  NON d   1     -46.230  17.629  -2.436  0.00  0.00    -0.205 F 
ENDBRANCH   4  29
TORSDOF 6
ENDMDL
MODEL 6
REMARK VINA RESULT:    -7.838      2.727      4.547
REMARK INTER + INTRA:         -11.510
REMARK INTER:                  -9.628
REMARK INTRA:                  -1.882
REMARK CONF_INDEPENDENT:        1.790
REMARK UNBOUND:                -1.882
REMARK  6 active torsions:
REMARK  status: ('A' for Active; 'I' for Inactive)
REMARK    1  A    between atoms: C2_2  and  C3_3 
REMARK    2  A    between atoms: C7_7  and  N1_8 
REMARK       I    between atoms: N1_8  and  C8_9 
REMARK       I    between atoms: C8_9  and  N2_10 
REMARK       I    between atoms: N2_10  and  C9_11 
REMARK    3  A    between atoms: C9_11  and  C10_13 
REMARK    4  A    between atoms: N3_20  and  C16_21 
REMARK    5  A    between atoms: C16_21  and  C17_22 
REMARK    6  A    between atoms: C17_22  and  C18_23 
ROOT
ATOM      1  N1  NON d   1     -44.263  17.977  -5.026  0.00  0.00    -0.190 N 
ATOM      2  C8  NON d   1     -43.031  17.899  -4.425  0.00  0.00     0.703 C 
ATOM      3  N2  NON d   1     -42.049  18.782  -4.850  0.00  0.00    -0.154 N 
ATOM      4  C9  NON d   1     -42.142  19.720  -5.874  0.00  0.00     0.273 C 
ATOM      5  O1  NON d   1     -43.177  19.869  -6.519  0.00  0.00    -0.267 OA
ATOM      6  N3  NON d   1     -42.757  17.062  -3.495  0.00  0.00    -0.107 NA
ATOM      7  H9  NON d   1     -44.340  18.677  -5.763  0.00  0.00     0.184 HD
ATOM      8  H10 NON d   1     -41.200  18.716  -4.326  0.00  0.00     0.187 HD
ENDROOT
BRANCH   1   9
ATOM      9  C7  NON d   1     -45.423  17.201  -4.817  0.00  0.00     0.049 A 
ATOM     10  C6  NON d   1     -45.969  16.337  -5.771  0.00  0.00     0.030 A 
ATOM     11  C5  NON d   1     -47.107  15.575  -5.502  0.00  0.00     0.003 A 
ATOM     12  C4  NON d   1     -47.725  15.653  -4.260  0.00  0.00     0.007 A 
ATOM     13  C3  NON d   1     -47.207  16.485  -3.265  0.00  0.00    -0.056 A 
ATOM     14  C26 NON d   1     -46.060  17.255  -3.562  0.00  0.00     0.037 A 
BRANCH  13  15
ATOM     15  C2  NON d   1     -47.815  16.596  -1.884  0.00  0.00     0.034 C 
ATOM     16  C1  NON d   1     -49.336  16.505  -1.797  0.00  0.00     0.010 C 
ENDBRANCH  13  15
ENDBRANCH   1   9
BRANCH   6  17
ATOM     17  C16 NON d   1     -41.491  16.880  -2.810  0.00  0.00     0.173 C 
BRANCH  17  18
ATOM     18  C17 NON d   1     -41.152  18.163  -2.032  0.00  0.00     0.063 C 
BRANCH  18  19
ATOM     19  C18 NON d   1     -39.965  18.951  -2.519  0.00  0.00    -0.029 A 
ATOM     20  C19 NON d   1     -39.597  20.267  -2.074  0.00  0.00    -0.002 A 
ATOM     21  C20 NON d   1     -40.140  21.172  -1.137  0.00  0.00     0.014 A 
ATOM     22  C24 NON d   1     -38.456  20.652  -2.778  0.00  0.00     0.042 A 
ATOM     23  C21 NON d   1     -39.523  22.413  -0.936  0.00  0.00     0.001 A 
ATOM     24  C22 NON d   1     -38.380  22.763  -1.651  0.00  0.00     0.002 A 
ATOM     25  C23 NON d   1     -37.826  21.887  -2.589  0.00  0.00     0.030 A 
ATOM     26  N4  NON d   1     -38.145  19.620  -3.631  0.00  0.00    -0.365 N 
ATOM     27  C25 NON d   1     -39.044  18.599  -3.488  0.00  0.00     0.096 A 
ATOM     28  H23 NON d   1     -37.373  19.626  -4.283  0.00  0.00     0.165 HD
ENDBRANCH  18  19
ENDBRANCH  17  18
ENDBRANCH   6  17
BRANCH   4  29
ATOM     29  C10 NON d   1     -40.926  20.551  -6.171  0.00  0.00     0.071 A 
ATOM     30  C11 NON d   1     -40.590  21.711  -5.447  0.00  0.00     0.020 A 
ATOM     31  C12 NON d   1     -39.438  22.444  -5.767  0.00  0.00     0.001 A 
ATOM     32  C13 NON d   1     -38.605  22.032  -6.802  0.00  0.00     0.003 A 
ATOM     33  C14 NON d   1     -38.920  20.884  -7.521  0.00  0.00     0.043 A 
ATOM     34  C15 NON d   1     -40.069  20.155  -7.207  0.00  0.00     0.132 A 
ATOM     35  F1  NON d   1     -40.316  19.061  -7.943  0.00  0.00    -0.205 F 
ENDBRANCH   4  29
TORSDOF 6
ENDMDL
MODEL 7
REMARK VINA RESULT:    -7.740      2.068      3.094
REMARK INTER + INTRA:         -11.427
REMARK INTER:                  -9.529
REMARK INTRA:                  -1.897
REMARK CONF_INDEPENDENT:        1.790
REMARK UNBOUND:                -1.897
REMARK  6 active torsions:
REMARK  status: ('A' for Active; 'I' for Inactive)
REMARK    1  A    between atoms: C2_2  and  C3_3 
REMARK    2  A    between atoms: C7_7  and  N1_8 
REMARK       I    between atoms: N1_8  and  C8_9 
REMARK       I    between atoms: C8_9  and  N2_10 
REMARK       I    between atoms: N2_10  and  C9_11 
REMARK    3  A    between atoms: C9_11  and  C10_13 
REMARK    4  A    between atoms: N3_20  and  C16_21 
REMARK    5  A    between atoms: C16_21  and  C17_22 
REMARK    6  A    between atoms: C17_22  and  C18_23 
ROOT
ATOM      1  N1  NON d   1     -40.643  19.002  -6.126  0.00  0.00    -0.190 N 
ATOM      2  C8  NON d   1     -39.279  19.131  -6.222  0.00  0.00     0.703 C 
ATOM      3  N2  NON d   1     -38.768  19.741  -7.359  0.00  0.00    -0.154 N 
ATOM      4  C9  NON d   1     -39.478  20.196  -8.466  0.00  0.00     0.273 C 
ATOM      5  O1  NON d   1     -40.702  20.107  -8.526  0.00  0.00    -0.267 OA
ATOM      6  N3  NON d   1     -38.471  18.727  -5.315  0.00  0.00    -0.107 NA
ATOM      7  H9  NON d   1     -41.166  19.352  -6.926  0.00  0.00     0.184 HD
ATOM      8  H10 NON d   1     -37.775  19.862  -7.334  0.00  0.00     0.187 HD
ENDROOT
BRANCH   1   9
ATOM      9  C7  NON d   1     -41.426  18.411  -5.112  0.00  0.00     0.049 A 
ATOM     10  C6  NON d   1     -41.022  18.299  -3.778  0.00  0.00     0.030 A 
ATOM     11  C5  NON d   1     -41.847  17.724  -2.810  0.00  0.00     0.003 A 
ATOM     12  C4  NON d   1     -43.109  17.252  -3.154  0.00  0.00     0.007 A 
ATOM     13  C3  NON d   1     -43.567  17.359  -4.469  0.00  0.00    -0.056 A 
ATOM     14  C26 NON d   1     -42.712  17.935  -5.435  0.00  0.00     0.037 A 
BRANCH  13  15
ATOM     15  C2  NON d   1     -44.938  16.890  -4.905  0.00  0.00     0.034 C 
ATOM     16  C1  NON d   1     -46.028  16.880  -3.837  0.00  0.00     0.010 C 
ENDBRANCH  13  15
ENDBRANCH   1   9
BRANCH   6  17
ATOM     17  C16 NON d   1     -37.021  18.792  -5.324  0.00  0.00     0.173 C 
BRANCH  17  18
ATOM     18  C17 NON d   1     -36.566  19.922  -4.385  0.00  0.00     0.063 C 
BRANCH  18  19
ATOM     19  C18 NON d   1     -37.505  20.286  -3.266  0.00  0.00    -0.029 A 
ATOM     20  C19 NON d   1     -38.600  21.212  -3.363  0.00  0.00    -0.002 A 
ATOM     21  C20 NON d   1     -39.125  22.003  -4.407  0.00  0.00     0.014 A 
ATOM     22  C24 NON d   1     -39.208  21.286  -2.110  0.00  0.00     0.042 A 
ATOM     23  C21 NON d   1     -40.232  22.826  -4.163  0.00  0.00     0.001 A 
ATOM     24  C22 NON d   1     -40.819  22.871  -2.901  0.00  0.00     0.002 A 
ATOM     25  C23 NON d   1     -40.316  22.101  -1.849  0.00  0.00     0.030 A 
ATOM     26  N4  NON d   1     -38.506  20.452  -1.274  0.00  0.00    -0.365 N 
ATOM     27  C25 NON d   1     -37.483  19.851  -1.954  0.00  0.00     0.096 A 
ATOM     28  H23 NON d   1     -38.708  20.317  -0.293  0.00  0.00     0.165 HD
ENDBRANCH  18  19
ENDBRANCH  17  18
ENDBRANCH   6  17
BRANCH   4  29
ATOM     29  C10 NON d   1     -38.696  20.801  -9.596  0.00  0.00     0.071 A 
ATOM     30  C11 NON d   1     -39.186  21.847 -10.400  0.00  0.00     0.020 A 
ATOM     31  C12 NON d   1     -38.407  22.376 -11.440  0.00  0.00     0.001 A 
ATOM     32  C13 NON d   1     -37.132  21.878 -11.688  0.00  0.00     0.003 A 
ATOM     33  C14 NON d   1     -36.630  20.851 -10.897  0.00  0.00     0.043 A 
ATOM     34  C15 NON d   1     -37.407  20.319  -9.865  0.00  0.00     0.132 A 
ATOM     35  F1  NON d   1     -36.864  19.327  -9.144  0.00  0.00    -0.205 F 
ENDBRANCH   4  29
TORSDOF 6
ENDMDL
MODEL 8
REMARK VINA RESULT:    -7.612      2.052      6.320
REMARK INTER + INTRA:         -11.450
REMARK INTER:                  -9.401
REMARK INTRA:                  -2.048
REMARK CONF_INDEPENDENT:        1.790
REMARK UNBOUND:                -2.048
REMARK  6 active torsions:
REMARK  status: ('A' for Active; 'I' for Inactive)
REMARK    1  A    between atoms: C2_2  and  C3_3 
REMARK    2  A    between atoms: C7_7  and  N1_8 
REMARK       I    between atoms: N1_8  and  C8_9 
REMARK       I    between atoms: C8_9  and  N2_10 
REMARK       I    between atoms: N2_10  and  C9_11 
REMARK    3  A    between atoms: C9_11  and  C10_13 
REMARK    4  A    between atoms: N3_20  and  C16_21 
REMARK    5  A    between atoms: C16_21  and  C17_22 
REMARK    6  A    between atoms: C17_22  and  C18_23 
ROOT
ATOM      1  N1  NON d   1     -40.424  22.736  -2.050  0.00  0.00    -0.190 N 
ATOM      2  C8  NON d   1     -39.456  21.912  -2.569  0.00  0.00     0.703 C 
ATOM      3  N2  NON d   1     -39.493  21.652  -3.931  0.00  0.00    -0.154 N 
ATOM      4  C9  NON d   1     -40.446  22.085  -4.849  0.00  0.00     0.273 C 
ATOM      5  O1  NON d   1     -41.388  22.798  -4.510  0.00  0.00    -0.267 OA
ATOM      6  N3  NON d   1     -38.526  21.389  -1.860  0.00  0.00    -0.107 NA
ATOM      7  H9  NON d   1     -41.111  23.071  -2.723  0.00  0.00     0.184 HD
ATOM      8  H10 NON d   1     -38.723  21.101  -4.253  0.00  0.00     0.187 HD
ENDROOT
BRANCH   1   9
ATOM      9  C7  NON d   1     -40.643  23.148  -0.718  0.00  0.00     0.049 A 
ATOM     10  C6  NON d   1     -40.523  22.304   0.390  0.00  0.00     0.030 A 
ATOM     11  C5  NON d   1     -40.729  22.770   1.690  0.00  0.00     0.003 A 
ATOM     12  C4  NON d   1     -41.054  24.103   1.914  0.00  0.00     0.007 A 
ATOM     13  C3  NON d   1     -41.165  24.991   0.842  0.00  0.00    -0.056 A 
ATOM     14  C26 NON d   1     -40.962  24.496  -0.466  0.00  0.00     0.037 A 
BRANCH  13  15
ATOM     15  C2  NON d   1     -41.489  26.459   1.017  0.00  0.00     0.034 C 
ATOM     16  C1  NON d   1     -41.811  26.922   2.435  0.00  0.00     0.010 C 
ENDBRANCH  13  15
ENDBRANCH   1   9
BRANCH   6  17
ATOM     17  C16 NON d   1     -37.473  20.493  -2.298  0.00  0.00     0.173 C 
BRANCH  17  18
ATOM     18  C17 NON d   1     -38.037  19.066  -2.396  0.00  0.00     0.063 C 
BRANCH  18  19
ATOM     19  C18 NON d   1     -38.902  18.766  -3.591  0.00  0.00    -0.029 A 
ATOM     20  C19 NON d   1     -40.300  18.434  -3.547  0.00  0.00    -0.002 A 
ATOM     21  C20 NON d   1     -41.243  18.297  -2.507  0.00  0.00     0.014 A 
ATOM     22  C24 NON d   1     -40.726  18.209  -4.857  0.00  0.00     0.042 A 
ATOM     23  C21 NON d   1     -42.565  17.949  -2.811  0.00  0.00     0.001 A 
ATOM     24  C22 NON d   1     -42.958  17.738  -4.131  0.00  0.00     0.002 A 
ATOM     25  C23 NON d   1     -42.043  17.863  -5.180  0.00  0.00     0.030 A 
ATOM     26  N4  NON d   1     -39.631  18.381  -5.669  0.00  0.00    -0.365 N 
ATOM     27  C25 NON d   1     -38.533  18.710  -4.922  0.00  0.00     0.096 A 
ATOM     28  H23 NON d   1     -39.635  18.262  -6.673  0.00  0.00     0.165 HD
ENDBRANCH  18  19
ENDBRANCH  17  18
ENDBRANCH   6  17
BRANCH   4  29
ATOM     29  C10 NON d   1     -40.289  21.647  -6.277  0.00  0.00     0.071 A 
ATOM     30  C11 NON d   1     -41.065  20.629  -6.861  0.00  0.00     0.020 A 
ATOM     31  C12 NON d   1     -40.876  20.267  -8.203  0.00  0.00     0.001 A 
ATOM     32  C13 NON d   1     -39.921  20.913  -8.980  0.00  0.00     0.003 A 
ATOM     33  C14 NON d   1     -39.151  21.926  -8.419  0.00  0.00     0.043 A 
ATOM     34  C15 NON d   1     -39.335  22.285  -7.082  0.00  0.00     0.132 A 
ATOM     35  F1  NON d   1     -38.556  23.267  -6.603  0.00  0.00    -0.205 F 
ENDBRANCH   4  29
TORSDOF 6
ENDMDL
MODEL 9
REMARK VINA RESULT:    -7.608      2.898      5.054
REMARK INTER + INTRA:         -11.680
REMARK INTER:                  -9.398
REMARK INTRA:                  -2.282
REMARK CONF_INDEPENDENT:        1.790
REMARK UNBOUND:                -2.282
REMARK  6 active torsions:
REMARK  status: ('A' for Active; 'I' for Inactive)
REMARK    1  A    between atoms: C2_2  and  C3_3 
REMARK    2  A    between atoms: C7_7  and  N1_8 
REMARK       I    between atoms: N1_8  and  C8_9 
REMARK       I    between atoms: C8_9  and  N2_10 
REMARK       I    between atoms: N2_10  and  C9_11 
REMARK    3  A    between atoms: C9_11  and  C10_13 
REMARK    4  A    between atoms: N3_20  and  C16_21 
REMARK    5  A    between atoms: C16_21  and  C17_22 
REMARK    6  A    between atoms: C17_22  and  C18_23 
ROOT
ATOM      1  N1  NON d   1     -44.275  17.966  -5.025  0.00  0.00    -0.190 N 
ATOM      2  C8  NON d   1     -43.038  17.919  -4.431  0.00  0.00     0.703 C 
ATOM      3  N2  NON d   1     -42.074  18.813  -4.875  0.00  0.00    -0.154 N 
ATOM      4  C9  NON d   1     -42.190  19.734  -5.912  0.00  0.00     0.273 C 
ATOM      5  O1  NON d   1     -43.232  19.855  -6.552  0.00  0.00    -0.267 OA
ATOM      6  N3  NON d   1     -42.742  17.102  -3.490  0.00  0.00    -0.107 NA
ATOM      7  H9  NON d   1     -44.368  18.654  -5.771  0.00  0.00     0.184 HD
ATOM      8  H10 NON d   1     -41.220  18.770  -4.356  0.00  0.00     0.187 HD
ENDROOT
BRANCH   1   9
ATOM      9  C7  NON d   1     -45.419  17.174  -4.795  0.00  0.00     0.049 A 
ATOM     10  C6  NON d   1     -45.941  16.268  -5.724  0.00  0.00     0.030 A 
ATOM     11  C5  NON d   1     -47.065  15.492  -5.436  0.00  0.00     0.003 A 
ATOM     12  C4  NON d   1     -47.692  15.596  -4.200  0.00  0.00     0.007 A 
ATOM     13  C3  NON d   1     -47.197  16.471  -3.230  0.00  0.00    -0.056 A 
ATOM     14  C26 NON d   1     -46.065  17.255  -3.546  0.00  0.00     0.037 A 
BRANCH  13  15
ATOM     15  C2  NON d   1     -47.815  16.614  -1.856  0.00  0.00     0.034 C 
ATOM     16  C1  NON d   1     -49.335  16.505  -1.776  0.00  0.00     0.010 C 
ENDBRANCH  13  15
ENDBRANCH   1   9
BRANCH   6  17
ATOM     17  C16 NON d   1     -41.469  16.952  -2.810  0.00  0.00     0.173 C 
BRANCH  17  18
ATOM     18  C17 NON d   1     -41.335  18.057  -1.748  0.00  0.00     0.063 C 
BRANCH  18  19
ATOM     19  C18 NON d   1     -40.377  19.176  -2.060  0.00  0.00    -0.029 A 
ATOM     20  C19 NON d   1     -39.300  19.113  -3.010  0.00  0.00    -0.002 A 
ATOM     21  C20 NON d   1     -38.821  18.114  -3.883  0.00  0.00     0.014 A 
ATOM     22  C24 NON d   1     -38.640  20.342  -2.988  0.00  0.00     0.042 A 
ATOM     23  C21 NON d   1     -37.715  18.380  -4.699  0.00  0.00     0.001 A 
ATOM     24  C22 NON d   1     -37.083  19.621  -4.657  0.00  0.00     0.002 A 
ATOM     25  C23 NON d   1     -37.534  20.626  -3.798  0.00  0.00     0.030 A 
ATOM     26  N4  NON d   1     -39.277  21.122  -2.053  0.00  0.00    -0.365 N 
ATOM     27  C25 NON d   1     -40.315  20.433  -1.488  0.00  0.00     0.096 A 
ATOM     28  H23 NON d   1     -39.003  22.063  -1.806  0.00  0.00     0.165 HD
ENDBRANCH  18  19
ENDBRANCH  17  18
ENDBRANCH   6  17
BRANCH   4  29
ATOM     29  C10 NON d   1     -40.991  20.582  -6.230  0.00  0.00     0.071 A 
ATOM     30  C11 NON d   1     -40.178  20.374  -7.359  0.00  0.00     0.020 A 
ATOM     31  C12 NON d   1     -39.073  21.202  -7.607  0.00  0.00     0.001 A 
ATOM     32  C13 NON d   1     -38.767  22.247  -6.741  0.00  0.00     0.003 A 
ATOM     33  C14 NON d   1     -39.566  22.470  -5.625  0.00  0.00     0.043 A 
ATOM     34  C15 NON d   1     -40.664  21.644  -5.375  0.00  0.00     0.132 A 
ATOM     35  F1  NON d   1     -41.389  21.911  -4.279  0.00  0.00    -0.205 F 
ENDBRANCH   4  29
TORSDOF 6
ENDMDL
