MODEL 1
REMARK VINA RESULT:   -26.245      0.000      0.000
REMARK INTER + INTRA:         -27.692
REMARK INTER:                 -27.438
REMARK INTRA:                  -0.254
REMARK CONF_INDEPENDENT:        1.193
REMARK UNBOUND:                -0.254
REMARK  4 active torsions:
REMARK  status: ('A' for Active; 'I' for Inactive)
REMARK    1  A    between atoms: C5_6  and  C6_7 
REMARK    2  A    between atoms: C7_9  and  C6_7 
REMARK    3  A    between atoms: C7_9  and  C9_12 
REMARK    4  A    between atoms: C12_16  and  C13_17 
ROOT
ATOM      1  C7  NON d   1     -47.186  15.550  -3.568  0.00  0.00     0.226 C 
ATOM      2  C8  NON d   1     -47.396  15.893  -5.045  0.00  0.00     0.079 C 
ATOM      3  N1  NON d   1     -47.440  16.130  -6.185  0.00  0.00    -0.196 NA
ENDROOT
BRANCH   1   4
ATOM      4  C6  NON d   1     -46.436  16.906  -2.936  0.00  0.00     0.186 C 
ATOM      5  O2  NON d   1     -46.929  17.646  -2.088  0.00  0.00    -0.290 OA
BRANCH   4   6
ATOM      6  C5  NON d   1     -45.085  17.244  -3.448  0.00  0.00     0.043 A 
ATOM      7  C4  NON d   1     -43.817  17.026  -2.813  0.00  0.00     0.042 A 
ATOM      8  C3  NON d   1     -42.863  17.592  -3.621  0.00  0.00     0.143 A 
ATOM      9  O1  NON d   1     -43.437  18.087  -4.742  0.00  0.00    -0.326 OA
ATOM     10  C2  NON d   1     -44.780  17.856  -4.654  0.00  0.00     0.062 A 
ATOM     11  C1  NON d   1     -45.567  18.321  -5.815  0.00  0.00     0.077 C 
ENDBRANCH   4   6
ENDBRANCH   1   4
BRANCH   1  12
ATOM     12  C9  NON d   1     -48.628  15.823  -3.099  0.00  0.00     0.101 C 
ATOM     13  N2  NON d   1     -49.187  16.824  -2.357  0.00  0.00    -0.243 NA
ATOM     14  C10 NON d   1     -50.664  16.769  -2.185  0.00  0.00     0.075 A 
ATOM     15  C11 NON d   1     -51.659  17.630  -1.450  0.00  0.00     0.049 A 
ATOM     16  C16 NON d   1     -51.217  15.706  -2.880  0.00  0.00     0.035 A 
ATOM     17  C12 NON d   1     -53.140  17.428  -1.356  0.00  0.00     0.050 A 
ATOM     18  C14 NON d   1     -53.531  16.284  -2.065  0.00  0.00     0.017 A 
ATOM     19  C15 NON d   1     -52.620  15.448  -2.803  0.00  0.00     0.022 A 
ATOM     20  S1  NON d   1     -49.980  14.897  -3.816  0.00  0.00    -0.071 SA
BRANCH  17  21
ATOM     21  C13 NON d   1     -54.185  18.377  -0.741  0.00  0.00     0.417 C 
ATOM     22  F1  NON d   1     -55.230  19.326  -0.125  0.00  0.00    -0.166 F 
ATOM     23  F2  NON d   1     -54.305  17.581   0.441  0.00  0.00    -0.166 F 
ATOM     24  F3  NON d   1     -53.203  19.347  -0.371  0.00  0.00    -0.166 F 
ENDBRANCH  17  21
ENDBRANCH   1  12
TORSDOF 4
ENDMDL
