MODEL 1
REMARK VINA RESULT:   -30.053      0.000      0.000
REMARK INTER + INTRA:         -32.499
REMARK INTER:                 -31.544
REMARK INTRA:                  -0.955
REMARK CONF_INDEPENDENT:        1.492
REMARK UNBOUND:                -0.955
REMARK  5 active torsions:
REMARK  status: ('A' for Active; 'I' for Inactive)
REMARK    1  A    between atoms: C2_2  and  C3_3 
REMARK    2  A    between atoms: C4_5  and  C5_6 
REMARK    3  A    between atoms: C5_6  and  N2_7 
REMARK       I    between atoms: N2_7  and  C7_9 
REMARK    4  A    between atoms: C7_9  and  C8_11 
REMARK    5  A    between atoms: C10_13  and  C11_14 
ROOT
ATOM      1  C8  NON d   1     -41.454  18.638  -5.346  0.00  0.00     0.046 C 
ATOM      2  C9  NON d   1     -40.773  19.116  -6.482  0.00  0.00     0.050 C 
ATOM      3  C10 NON d   1     -39.387  19.144  -6.492  0.00  0.00     0.069 C 
ATOM      4  N4  NON d   1     -38.692  18.890  -5.361  0.00  0.00    -0.247 NA
ATOM      5  C16 NON d   1     -39.316  18.388  -4.292  0.00  0.00     0.068 C 
ATOM      6  C17 NON d   1     -38.537  18.126  -3.173  0.00  0.00     0.032 C 
ATOM      7  C18 NON d   1     -39.059  17.484  -2.052  0.00  0.00     0.002 C 
ATOM      8  C19 NON d   1     -40.365  17.026  -2.083  0.00  0.00     0.001 C 
ATOM      9  C20 NON d   1     -41.166  17.304  -3.195  0.00  0.00     0.015 C 
ATOM     10  C21 NON d   1     -40.692  18.103  -4.270  0.00  0.00     0.008 C 
ENDROOT
BRANCH   1  11
ATOM     11  C7  NON d   1     -42.958  18.754  -5.431  0.00  0.00     0.254 C 
ATOM     12  N2  NON d   1     -43.833  17.669  -5.135  0.00  0.00    -0.347 N 
ATOM     13  C6  NON d   1     -43.238  16.249  -5.097  0.00  0.00     0.153 C 
ATOM     14  O1  NON d   1     -43.398  19.872  -5.712  0.00  0.00    -0.267 OA
BRANCH  12  15
ATOM     15  C5  NON d   1     -45.250  17.909  -5.448  0.00  0.00     0.185 C 
BRANCH  15  16
ATOM     16  C4  NON d   1     -46.276  17.111  -4.697  0.00  0.00     0.059 A 
ATOM     17  N1  NON d   1     -47.289  16.505  -5.435  0.00  0.00    -0.248 NA
ATOM     18  C3  NON d   1     -48.003  15.695  -4.681  0.00  0.00     0.075 A 
ATOM     19  S1  NON d   1     -47.566  15.685  -3.020  0.00  0.00    -0.085 SA
ATOM     20  C22 NON d   1     -46.284  16.771  -3.356  0.00  0.00     0.080 A 
BRANCH  18  21
ATOM     21  C2  NON d   1     -49.038  14.761  -5.236  0.00  0.00     0.062 C 
ATOM     22  C1  NON d   1     -50.061  14.258  -4.232  0.00  0.00     0.012 C 
ENDBRANCH  18  21
ENDBRANCH  15  16
ENDBRANCH  12  15
ENDBRANCH   1  11
BRANCH   3  23
ATOM     23  C11 NON d   1     -38.550  19.357  -7.699  0.00  0.00    -0.005 A 
ATOM     24  C12 NON d   1     -37.374  18.636  -7.950  0.00  0.00     0.033 A 
ATOM     25  C13 NON d   1     -36.587  18.968  -9.046  0.00  0.00     0.117 A 
ATOM     26  N3  NON d   1     -36.877  19.958  -9.913  0.00  0.00    -0.273 NA
ATOM     27  C14 NON d   1     -38.008  20.648  -9.673  0.00  0.00     0.117 A 
ATOM     28  C15 NON d   1     -38.856  20.386  -8.608  0.00  0.00     0.033 A 
ENDBRANCH   3  23
TORSDOF 5
ENDMDL
MODEL 2
REMARK VINA RESULT:   -29.642      2.561      4.576
REMARK INTER + INTRA:         -32.108
REMARK INTER:                 -31.133
REMARK INTRA:                  -0.975
REMARK CONF_INDEPENDENT:        1.492
REMARK UNBOUND:                -0.975
REMARK  5 active torsions:
REMARK  status: ('A' for Active; 'I' for Inactive)
REMARK    1  A    between atoms: C2_2  and  C3_3 
REMARK    2  A    between atoms: C4_5  and  C5_6 
REMARK    3  A    between atoms: C5_6  and  N2_7 
REMARK       I    between atoms: N2_7  and  C7_9 
REMARK    4  A    between atoms: C7_9  and  C8_11 
REMARK    5  A    between atoms: C10_13  and  C11_14 
ROOT
ATOM      1  C8  NON d   1     -41.621  19.580  -5.157  0.00  0.00     0.046 C 
ATOM      2  C9  NON d   1     -41.538  20.156  -3.876  0.00  0.00     0.050 C 
ATOM      3  C10 NON d   1     -40.298  20.461  -3.337  0.00  0.00     0.069 C 
ATOM      4  N4  NON d   1     -39.168  20.045  -3.951  0.00  0.00    -0.247 NA
ATOM      5  C16 NON d   1     -39.225  19.542  -5.186  0.00  0.00     0.068 C 
ATOM      6  C17 NON d   1     -38.024  19.157  -5.767  0.00  0.00     0.032 C 
ATOM      7  C18 NON d   1     -37.952  18.744  -7.096  0.00  0.00     0.002 C 
ATOM      8  C19 NON d   1     -39.093  18.789  -7.879  0.00  0.00     0.001 C 
ATOM      9  C20 NON d   1     -40.312  19.152  -7.300  0.00  0.00     0.015 C 
ATOM     10  C21 NON d   1     -40.425  19.414  -5.908  0.00  0.00     0.008 C 
ENDROOT
BRANCH   1  11
ATOM     11  C7  NON d   1     -43.023  19.209  -5.580  0.00  0.00     0.254 C 
ATOM     12  N2  NON d   1     -43.784  18.197  -4.925  0.00  0.00    -0.347 N 
ATOM     13  C6  NON d   1     -43.037  17.202  -4.018  0.00  0.00     0.153 C 
ATOM     14  O1  NON d   1     -43.506  19.880  -6.495  0.00  0.00    -0.267 OA
BRANCH  12  15
ATOM     15  C5  NON d   1     -45.050  17.845  -5.586  0.00  0.00     0.185 C 
BRANCH  15  16
ATOM     16  C4  NON d   1     -46.103  17.162  -4.760  0.00  0.00     0.059 A 
ATOM     17  N1  NON d   1     -47.127  16.505  -5.435  0.00  0.00    -0.248 NA
ATOM     18  C3  NON d   1     -47.867  15.803  -4.603  0.00  0.00     0.075 A 
ATOM     19  S1  NON d   1     -47.440  15.966  -2.947  0.00  0.00    -0.085 SA
ATOM     20  C22 NON d   1     -46.127  16.973  -3.390  0.00  0.00     0.080 A 
BRANCH  18  21
ATOM     21  C2  NON d   1     -48.925  14.842  -5.060  0.00  0.00     0.062 C 
ATOM     22  C1  NON d   1     -50.068  14.623  -4.084  0.00  0.00     0.012 C 
ENDBRANCH  18  21
ENDBRANCH  15  16
ENDBRANCH  12  15
ENDBRANCH   1  11
BRANCH   3  23
ATOM     23  C11 NON d   1     -40.076  21.310  -2.139  0.00  0.00    -0.005 A 
ATOM     24  C12 NON d   1     -39.763  20.785  -0.878  0.00  0.00     0.033 A 
ATOM     25  C13 NON d   1     -39.678  21.636   0.217  0.00  0.00     0.117 A 
ATOM     26  N3  NON d   1     -39.877  22.967   0.157  0.00  0.00    -0.273 NA
ATOM     27  C14 NON d   1     -40.175  23.472  -1.055  0.00  0.00     0.117 A 
ATOM     28  C15 NON d   1     -40.278  22.700  -2.203  0.00  0.00     0.033 A 
ENDBRANCH   3  23
TORSDOF 5
ENDMDL
MODEL 3
REMARK VINA RESULT:   -28.644      3.479      8.240
REMARK INTER + INTRA:         -31.104
REMARK INTER:                 -30.135
REMARK INTRA:                  -0.969
REMARK CONF_INDEPENDENT:        1.492
REMARK UNBOUND:                -0.969
REMARK  5 active torsions:
REMARK  status: ('A' for Active; 'I' for Inactive)
REMARK    1  A    between atoms: C2_2  and  C3_3 
REMARK    2  A    between atoms: C4_5  and  C5_6 
REMARK    3  A    between atoms: C5_6  and  N2_7 
REMARK       I    between atoms: N2_7  and  C7_9 
REMARK    4  A    between atoms: C7_9  and  C8_11 
REMARK    5  A    between atoms: C10_13  and  C11_14 
ROOT
ATOM      1  C8  NON d   1     -41.673  19.711  -4.913  0.00  0.00     0.046 C 
ATOM      2  C9  NON d   1     -42.915  19.208  -5.344  0.00  0.00     0.050 C 
ATOM      3  C10 NON d   1     -43.408  18.033  -4.798  0.00  0.00     0.069 C 
ATOM      4  N4  NON d   1     -42.628  17.275  -3.995  0.00  0.00    -0.247 NA
ATOM      5  C16 NON d   1     -41.471  17.759  -3.538  0.00  0.00     0.068 C 
ATOM      6  C17 NON d   1     -40.731  16.938  -2.697  0.00  0.00     0.032 C 
ATOM      7  C18 NON d   1     -39.577  17.390  -2.060  0.00  0.00     0.002 C 
ATOM      8  C19 NON d   1     -39.199  18.713  -2.210  0.00  0.00     0.001 C 
ATOM      9  C20 NON d   1     -39.920  19.543  -3.071  0.00  0.00     0.015 C 
ATOM     10  C21 NON d   1     -40.999  19.046  -3.853  0.00  0.00     0.008 C 
ENDROOT
BRANCH   1  11
ATOM     11  C7  NON d   1     -41.210  20.941  -5.659  0.00  0.00     0.254 C 
ATOM     12  N2  NON d   1     -40.717  20.893  -6.995  0.00  0.00    -0.347 N 
ATOM     13  C6  NON d   1     -40.289  19.526  -7.561  0.00  0.00     0.153 C 
ATOM     14  O1  NON d   1     -41.343  22.014  -5.065  0.00  0.00    -0.267 OA
BRANCH  12  15
ATOM     15  C5  NON d   1     -40.142  22.152  -7.492  0.00  0.00     0.185 C 
BRANCH  15  16
ATOM     16  C4  NON d   1     -39.966  22.302  -8.976  0.00  0.00     0.059 A 
ATOM     17  N1  NON d   1     -40.297  23.528  -9.545  0.00  0.00    -0.248 NA
ATOM     18  C3  NON d   1     -39.923  23.580 -10.806  0.00  0.00     0.075 A 
ATOM     19  S1  NON d   1     -39.238  22.126 -11.415  0.00  0.00    -0.085 SA
ATOM     20  C22 NON d   1     -39.377  21.417  -9.862  0.00  0.00     0.080 A 
BRANCH  18  21
ATOM     21  C2  NON d   1     -39.974  24.837 -11.624  0.00  0.00     0.062 C 
ATOM     22  C1  NON d   1     -40.924  24.802 -12.808  0.00  0.00     0.012 C 
ENDBRANCH  18  21
ENDBRANCH  15  16
ENDBRANCH  12  15
ENDBRANCH   1  11
BRANCH   3  23
ATOM     23  C11 NON d   1     -44.801  17.543  -4.951  0.00  0.00    -0.005 A 
ATOM     24  C12 NON d   1     -45.333  16.500  -4.180  0.00  0.00     0.033 A 
ATOM     25  C13 NON d   1     -46.609  16.025  -4.457  0.00  0.00     0.117 A 
ATOM     26  N3  NON d   1     -47.398  16.507  -5.436  0.00  0.00    -0.273 NA
ATOM     27  C14 NON d   1     -46.888  17.509  -6.175  0.00  0.00     0.117 A 
ATOM     28  C15 NON d   1     -45.627  18.049  -5.970  0.00  0.00     0.033 A 
ENDBRANCH   3  23
TORSDOF 5
ENDMDL
MODEL 4
REMARK VINA RESULT:   -28.381      3.113      7.982
REMARK INTER + INTRA:         -31.074
REMARK INTER:                 -29.873
REMARK INTRA:                  -1.201
REMARK CONF_INDEPENDENT:        1.492
REMARK UNBOUND:                -1.201
REMARK  5 active torsions:
REMARK  status: ('A' for Active; 'I' for Inactive)
REMARK    1  A    between atoms: C2_2  and  C3_3 
REMARK    2  A    between atoms: C4_5  and  C5_6 
REMARK    3  A    between atoms: C5_6  and  N2_7 
REMARK       I    between atoms: N2_7  and  C7_9 
REMARK    4  A    between atoms: C7_9  and  C8_11 
REMARK    5  A    between atoms: C10_13  and  C11_14 
ROOT
ATOM      1  C8  NON d   1     -41.611  19.544  -5.307  0.00  0.00     0.046 C 
ATOM      2  C9  NON d   1     -42.862  19.013  -5.674  0.00  0.00     0.050 C 
ATOM      3  C10 NON d   1     -43.402  17.961  -4.950  0.00  0.00     0.069 C 
ATOM      4  N4  NON d   1     -42.661  17.326  -4.015  0.00  0.00    -0.247 NA
ATOM      5  C16 NON d   1     -41.496  17.845  -3.621  0.00  0.00     0.068 C 
ATOM      6  C17 NON d   1     -40.798  17.154  -2.638  0.00  0.00     0.032 C 
ATOM      7  C18 NON d   1     -39.641  17.671  -2.061  0.00  0.00     0.002 C 
ATOM      8  C19 NON d   1     -39.216  18.939  -2.421  0.00  0.00     0.001 C 
ATOM      9  C20 NON d   1     -39.896  19.634  -3.425  0.00  0.00     0.015 C 
ATOM     10  C21 NON d   1     -40.977  19.045  -4.135  0.00  0.00     0.008 C 
ENDROOT
BRANCH   1  11
ATOM     11  C7  NON d   1     -41.096  20.617  -6.237  0.00  0.00     0.254 C 
ATOM     12  N2  NON d   1     -40.577  21.859  -5.769  0.00  0.00    -0.347 N 
ATOM     13  C6  NON d   1     -40.893  22.276  -4.320  0.00  0.00     0.153 C 
ATOM     14  O1  NON d   1     -41.090  20.333  -7.437  0.00  0.00    -0.267 OA
BRANCH  12  15
ATOM     15  C5  NON d   1     -40.296  22.851  -6.818  0.00  0.00     0.185 C 
BRANCH  15  16
ATOM     16  C4  NON d   1     -39.351  22.457  -7.917  0.00  0.00     0.059 A 
ATOM     17  N1  NON d   1     -38.527  21.358  -7.696  0.00  0.00    -0.248 NA
ATOM     18  C3  NON d   1     -37.890  21.016  -8.797  0.00  0.00     0.075 A 
ATOM     19  S1  NON d   1     -38.166  22.052 -10.140  0.00  0.00    -0.085 SA
ATOM     20  C22 NON d   1     -39.275  22.962  -9.203  0.00  0.00     0.080 A 
BRANCH  18  21
ATOM     21  C2  NON d   1     -37.080  19.759  -8.917  0.00  0.00     0.062 C 
ATOM     22  C1  NON d   1     -37.778  18.492  -8.454  0.00  0.00     0.012 C 
ENDBRANCH  18  21
ENDBRANCH  15  16
ENDBRANCH  12  15
ENDBRANCH   1  11
BRANCH   3  23
ATOM     23  C11 NON d   1     -44.808  17.495  -5.049  0.00  0.00    -0.005 A 
ATOM     24  C12 NON d   1     -45.323  16.449  -4.269  0.00  0.00     0.033 A 
ATOM     25  C13 NON d   1     -46.617  15.998  -4.497  0.00  0.00     0.117 A 
ATOM     26  N3  NON d   1     -47.441  16.504  -5.435  0.00  0.00    -0.273 NA
ATOM     27  C14 NON d   1     -46.947  17.510  -6.182  0.00  0.00     0.117 A 
ATOM     28  C15 NON d   1     -45.670  18.027  -6.024  0.00  0.00     0.033 A 
ENDBRANCH   3  23
TORSDOF 5
ENDMDL
MODEL 5
REMARK VINA RESULT:   -27.899      3.195      8.128
REMARK INTER + INTRA:         -30.549
REMARK INTER:                 -29.391
REMARK INTRA:                  -1.158
REMARK CONF_INDEPENDENT:        1.492
REMARK UNBOUND:                -1.158
REMARK  5 active torsions:
REMARK  status: ('A' for Active; 'I' for Inactive)
REMARK    1  A    between atoms: C2_2  and  C3_3 
REMARK    2  A    between atoms: C4_5  and  C5_6 
REMARK    3  A    between atoms: C5_6  and  N2_7 
REMARK       I    between atoms: N2_7  and  C7_9 
REMARK    4  A    between atoms: C7_9  and  C8_11 
REMARK    5  A    between atoms: C10_13  and  C11_14 
ROOT
ATOM      1  C8  NON d   1     -41.467  19.467  -5.499  0.00  0.00     0.046 C 
ATOM      2  C9  NON d   1     -42.637  18.750  -5.813  0.00  0.00     0.050 C 
ATOM      3  C10 NON d   1     -43.377  18.162  -4.799  0.00  0.00     0.069 C 
ATOM      4  N4  NON d   1     -42.890  18.117  -3.538  0.00  0.00    -0.247 NA
ATOM      5  C16 NON d   1     -41.810  18.832  -3.214  0.00  0.00     0.068 C 
ATOM      6  C17 NON d   1     -41.379  18.761  -1.896  0.00  0.00     0.032 C 
ATOM      7  C18 NON d   1     -40.346  19.564  -1.418  0.00  0.00     0.002 C 
ATOM      8  C19 NON d   1     -39.784  20.511  -2.258  0.00  0.00     0.001 C 
ATOM      9  C20 NON d   1     -40.194  20.577  -3.592  0.00  0.00     0.015 C 
ATOM     10  C21 NON d   1     -41.128  19.651  -4.130  0.00  0.00     0.008 C 
ENDROOT
BRANCH   1  11
ATOM     11  C7  NON d   1     -40.706  19.969  -6.704  0.00  0.00     0.254 C 
ATOM     12  N2  NON d   1     -39.344  19.631  -6.951  0.00  0.00    -0.347 N 
ATOM     13  C6  NON d   1     -38.516  19.058  -5.785  0.00  0.00     0.153 C 
ATOM     14  O1  NON d   1     -41.353  20.646  -7.507  0.00  0.00    -0.267 OA
BRANCH  12  15
ATOM     15  C5  NON d   1     -38.716  20.357  -8.066  0.00  0.00     0.185 C 
BRANCH  15  16
ATOM     16  C4  NON d   1     -38.965  21.834  -8.167  0.00  0.00     0.059 A 
ATOM     17  N1  NON d   1     -39.206  22.363  -9.431  0.00  0.00    -0.248 NA
ATOM     18  C3  NON d   1     -39.587  23.621  -9.353  0.00  0.00     0.075 A 
ATOM     19  S1  NON d   1     -39.586  24.276  -7.765  0.00  0.00    -0.085 SA
ATOM     20  C22 NON d   1     -39.128  22.748  -7.141  0.00  0.00     0.080 A 
BRANCH  18  21
ATOM     21  C2  NON d   1     -40.099  24.396 -10.532  0.00  0.00     0.062 C 
ATOM     22  C1  NON d   1     -40.066  23.656 -11.858  0.00  0.00     0.012 C 
ENDBRANCH  18  21
ENDBRANCH  15  16
ENDBRANCH  12  15
ENDBRANCH   1  11
BRANCH   3  23
ATOM     23  C11 NON d   1     -44.752  17.624  -4.951  0.00  0.00    -0.005 A 
ATOM     24  C12 NON d   1     -45.235  16.538  -4.208  0.00  0.00     0.033 A 
ATOM     25  C13 NON d   1     -46.495  16.024  -4.486  0.00  0.00     0.117 A 
ATOM     26  N3  NON d   1     -47.315  16.505  -5.440  0.00  0.00    -0.273 NA
ATOM     27  C14 NON d   1     -46.852  17.549  -6.153  0.00  0.00     0.117 A 
ATOM     28  C15 NON d   1     -45.610  18.130  -5.945  0.00  0.00     0.033 A 
ENDBRANCH   3  23
TORSDOF 5
ENDMDL
MODEL 6
REMARK VINA RESULT:   -27.882      4.481      8.423
REMARK INTER + INTRA:         -30.483
REMARK INTER:                 -29.373
REMARK INTRA:                  -1.110
REMARK CONF_INDEPENDENT:        1.492
REMARK UNBOUND:                -1.110
REMARK  5 active torsions:
REMARK  status: ('A' for Active; 'I' for Inactive)
REMARK    1  A    between atoms: C2_2  and  C3_3 
REMARK    2  A    between atoms: C4_5  and  C5_6 
REMARK    3  A    between atoms: C5_6  and  N2_7 
REMARK       I    between atoms: N2_7  and  C7_9 
REMARK    4  A    between atoms: C7_9  and  C8_11 
REMARK    5  A    between atoms: C10_13  and  C11_14 
ROOT
ATOM      1  C8  NON d   1     -41.292  19.331  -3.995  0.00  0.00     0.046 C 
ATOM      2  C9  NON d   1     -42.607  18.840  -3.882  0.00  0.00     0.050 C 
ATOM      3  C10 NON d   1     -43.407  18.752  -5.011  0.00  0.00     0.069 C 
ATOM      4  N4  NON d   1     -43.002  19.301  -6.178  0.00  0.00    -0.247 NA
ATOM      5  C16 NON d   1     -41.743  19.724  -6.315  0.00  0.00     0.068 C 
ATOM      6  C17 NON d   1     -41.387  20.253  -7.549  0.00  0.00     0.032 C 
ATOM      7  C18 NON d   1     -40.071  20.604  -7.843  0.00  0.00     0.002 C 
ATOM      8  C19 NON d   1     -39.080  20.348  -6.910  0.00  0.00     0.001 C 
ATOM      9  C20 NON d   1     -39.429  19.838  -5.657  0.00  0.00     0.015 C 
ATOM     10  C21 NON d   1     -40.787  19.635  -5.289  0.00  0.00     0.008 C 
ENDROOT
BRANCH   1  11
ATOM     11  C7  NON d   1     -40.566  19.466  -2.676  0.00  0.00     0.254 C 
ATOM     12  N2  NON d   1     -40.207  20.728  -2.121  0.00  0.00    -0.347 N 
ATOM     13  C6  NON d   1     -40.215  21.957  -3.048  0.00  0.00     0.153 C 
ATOM     14  O1  NON d   1     -40.354  18.415  -2.067  0.00  0.00    -0.267 OA
BRANCH  12  15
ATOM     15  C5  NON d   1     -39.346  20.660  -0.929  0.00  0.00     0.185 C 
BRANCH  15  16
ATOM     16  C4  NON d   1     -39.309  21.859  -0.025  0.00  0.00     0.059 A 
ATOM     17  N1  NON d   1     -40.310  22.814  -0.178  0.00  0.00    -0.248 NA
ATOM     18  C3  NON d   1     -40.263  23.706   0.789  0.00  0.00     0.075 A 
ATOM     19  S1  NON d   1     -38.956  23.511   1.887  0.00  0.00    -0.085 SA
ATOM     20  C22 NON d   1     -38.478  22.090   1.057  0.00  0.00     0.080 A 
BRANCH  18  21
ATOM     21  C2  NON d   1     -41.327  24.743   0.998  0.00  0.00     0.062 C 
ATOM     22  C1  NON d   1     -41.046  25.747   2.103  0.00  0.00     0.012 C 
ENDBRANCH  18  21
ENDBRANCH  15  16
ENDBRANCH  12  15
ENDBRANCH   1  11
BRANCH   3  23
ATOM     23  C11 NON d   1     -44.690  18.009  -5.088  0.00  0.00    -0.005 A 
ATOM     24  C12 NON d   1     -44.966  16.878  -4.308  0.00  0.00     0.033 A 
ATOM     25  C13 NON d   1     -46.145  16.173  -4.516  0.00  0.00     0.117 A 
ATOM     26  N3  NON d   1     -47.072  16.505  -5.435  0.00  0.00    -0.273 NA
ATOM     27  C14 NON d   1     -46.808  17.593  -6.182  0.00  0.00     0.117 A 
ATOM     28  C15 NON d   1     -45.661  18.359  -6.043  0.00  0.00     0.033 A 
ENDBRANCH   3  23
TORSDOF 5
ENDMDL
MODEL 7
REMARK VINA RESULT:   -27.769      3.166      3.706
REMARK INTER + INTRA:         -29.897
REMARK INTER:                 -29.261
REMARK INTRA:                  -0.637
REMARK CONF_INDEPENDENT:        1.492
REMARK UNBOUND:                -0.637
REMARK  5 active torsions:
REMARK  status: ('A' for Active; 'I' for Inactive)
REMARK    1  A    between atoms: C2_2  and  C3_3 
REMARK    2  A    between atoms: C4_5  and  C5_6 
REMARK    3  A    between atoms: C5_6  and  N2_7 
REMARK       I    between atoms: N2_7  and  C7_9 
REMARK    4  A    between atoms: C7_9  and  C8_11 
REMARK    5  A    between atoms: C10_13  and  C11_14 
ROOT
ATOM      1  C8  NON d   1     -41.869  19.908  -4.488  0.00  0.00     0.046 C 
ATOM      2  C9  NON d   1     -41.808  21.310  -4.599  0.00  0.00     0.050 C 
ATOM      3  C10 NON d   1     -40.788  22.006  -3.969  0.00  0.00     0.069 C 
ATOM      4  N4  NON d   1     -39.963  21.373  -3.106  0.00  0.00    -0.247 NA
ATOM      5  C16 NON d   1     -39.974  20.041  -3.027  0.00  0.00     0.068 C 
ATOM      6  C17 NON d   1     -39.083  19.454  -2.138  0.00  0.00     0.032 C 
ATOM      7  C18 NON d   1     -38.919  18.072  -2.070  0.00  0.00     0.002 C 
ATOM      8  C19 NON d   1     -39.606  17.267  -2.962  0.00  0.00     0.001 C 
ATOM      9  C20 NON d   1     -40.522  17.843  -3.846  0.00  0.00     0.015 C 
ATOM     10  C21 NON d   1     -40.819  19.232  -3.807  0.00  0.00     0.008 C 
ENDROOT
BRANCH   1  11
ATOM     11  C7  NON d   1     -43.083  19.287  -5.138  0.00  0.00     0.254 C 
ATOM     12  N2  NON d   1     -43.913  18.338  -4.474  0.00  0.00    -0.347 N 
ATOM     13  C6  NON d   1     -43.357  17.644  -3.216  0.00  0.00     0.153 C 
ATOM     14  O1  NON d   1     -43.359  19.697  -6.268  0.00  0.00    -0.267 OA
BRANCH  12  15
ATOM     15  C5  NON d   1     -44.936  17.705  -5.320  0.00  0.00     0.185 C 
BRANCH  15  16
ATOM     16  C4  NON d   1     -46.099  17.047  -4.637  0.00  0.00     0.059 A 
ATOM     17  N1  NON d   1     -47.098  16.505  -5.440  0.00  0.00    -0.248 NA
ATOM     18  C3  NON d   1     -47.953  15.805  -4.724  0.00  0.00     0.075 A 
ATOM     19  S1  NON d   1     -47.667  15.835  -3.030  0.00  0.00    -0.085 SA
ATOM     20  C22 NON d   1     -46.259  16.775  -3.289  0.00  0.00     0.080 A 
BRANCH  18  21
ATOM     21  C2  NON d   1     -49.024  14.949  -5.334  0.00  0.00     0.062 C 
ATOM     22  C1  NON d   1     -50.057  14.411  -4.360  0.00  0.00     0.012 C 
ENDBRANCH  18  21
ENDBRANCH  15  16
ENDBRANCH  12  15
ENDBRANCH   1  11
BRANCH   3  23
ATOM     23  C11 NON d   1     -40.446  23.428  -4.224  0.00  0.00    -0.005 A 
ATOM     24  C12 NON d   1     -39.680  23.845  -5.321  0.00  0.00     0.033 A 
ATOM     25  C13 NON d   1     -39.309  25.180  -5.431  0.00  0.00     0.117 A 
ATOM     26  N3  NON d   1     -39.642  26.133  -4.539  0.00  0.00    -0.273 NA
ATOM     27  C14 NON d   1     -40.380  25.733  -3.486  0.00  0.00     0.117 A 
ATOM     28  C15 NON d   1     -40.798  24.424  -3.295  0.00  0.00     0.033 A 
ENDBRANCH   3  23
TORSDOF 5
ENDMDL
MODEL 8
REMARK VINA RESULT:   -27.634      3.351      8.094
REMARK INTER + INTRA:         -30.446
REMARK INTER:                 -29.125
REMARK INTRA:                  -1.321
REMARK CONF_INDEPENDENT:        1.492
REMARK UNBOUND:                -1.321
REMARK  5 active torsions:
REMARK  status: ('A' for Active; 'I' for Inactive)
REMARK    1  A    between atoms: C2_2  and  C3_3 
REMARK    2  A    between atoms: C4_5  and  C5_6 
REMARK    3  A    between atoms: C5_6  and  N2_7 
REMARK       I    between atoms: N2_7  and  C7_9 
REMARK    4  A    between atoms: C7_9  and  C8_11 
REMARK    5  A    between atoms: C10_13  and  C11_14 
ROOT
ATOM      1  C8  NON d   1     -41.393  19.257  -5.482  0.00  0.00     0.046 C 
ATOM      2  C9  NON d   1     -42.579  18.565  -5.791  0.00  0.00     0.050 C 
ATOM      3  C10 NON d   1     -43.365  18.055  -4.769  0.00  0.00     0.069 C 
ATOM      4  N4  NON d   1     -42.911  18.057  -3.496  0.00  0.00    -0.247 NA
ATOM      5  C16 NON d   1     -41.816  18.750  -3.178  0.00  0.00     0.068 C 
ATOM      6  C17 NON d   1     -41.420  18.730  -1.847  0.00  0.00     0.032 C 
ATOM      7  C18 NON d   1     -40.371  19.521  -1.383  0.00  0.00     0.002 C 
ATOM      8  C19 NON d   1     -39.757  20.405  -2.253  0.00  0.00     0.001 C 
ATOM      9  C20 NON d   1     -40.130  20.419  -3.599  0.00  0.00     0.015 C 
ATOM     10  C21 NON d   1     -41.082  19.498  -4.115  0.00  0.00     0.008 C 
ENDROOT
BRANCH   1  11
ATOM     11  C7  NON d   1     -40.585  19.672  -6.690  0.00  0.00     0.254 C 
ATOM     12  N2  NON d   1     -39.207  19.348  -6.843  0.00  0.00    -0.347 N 
ATOM     13  C6  NON d   1     -38.425  18.898  -5.595  0.00  0.00     0.153 C 
ATOM     14  O1  NON d   1     -41.207  20.261  -7.578  0.00  0.00    -0.267 OA
BRANCH  12  15
ATOM     15  C5  NON d   1     -38.540  19.990  -7.986  0.00  0.00     0.185 C 
BRANCH  15  16
ATOM     16  C4  NON d   1     -38.789  21.454  -8.209  0.00  0.00     0.059 A 
ATOM     17  N1  NON d   1     -38.978  22.254  -7.086  0.00  0.00    -0.248 NA
ATOM     18  C3  NON d   1     -39.001  23.530  -7.413  0.00  0.00     0.075 A 
ATOM     19  S1  NON d   1     -38.895  23.843  -9.100  0.00  0.00    -0.085 SA
ATOM     20  C22 NON d   1     -38.722  22.164  -9.395  0.00  0.00     0.080 A 
BRANCH  18  21
ATOM     21  C2  NON d   1     -38.998  24.635  -6.399  0.00  0.00     0.062 C 
ATOM     22  C1  NON d   1     -40.024  24.497  -5.287  0.00  0.00     0.012 C 
ENDBRANCH  18  21
ENDBRANCH  15  16
ENDBRANCH  12  15
ENDBRANCH   1  11
BRANCH   3  23
ATOM     23  C11 NON d   1     -44.754  17.556  -4.932  0.00  0.00    -0.005 A 
ATOM     24  C12 NON d   1     -45.285  16.510  -4.166  0.00  0.00     0.033 A 
ATOM     25  C13 NON d   1     -46.556  16.028  -4.452  0.00  0.00     0.117 A 
ATOM     26  N3  NON d   1     -47.342  16.505  -5.436  0.00  0.00    -0.273 NA
ATOM     27  C14 NON d   1     -46.833  17.512  -6.170  0.00  0.00     0.117 A 
ATOM     28  C15 NON d   1     -45.576  18.059  -5.956  0.00  0.00     0.033 A 
ENDBRANCH   3  23
TORSDOF 5
ENDMDL
