MODEL 1
REMARK VINA RESULT:   -13.408      0.000      0.000
REMARK INTER + INTRA:         -15.727
REMARK INTER:                 -14.899
REMARK INTRA:                  -0.828
REMARK CONF_INDEPENDENT:        1.492
REMARK UNBOUND:                -0.828
REMARK  5 active torsions:
REMARK  status: ('A' for Active; 'I' for Inactive)
REMARK    1  A    between atoms: C2_2  and  C3_4 
REMARK    2  A    between atoms: C6_7  and  N1_8 
REMARK       I    between atoms: N2_11  and  C9_12 
REMARK    3  A    between atoms: C9_12  and  C10_14 
REMARK    4  A    between atoms: C12_17  and  N3_18 
REMARK       I    between atoms: N3_18  and  C13_19 
REMARK       I    between atoms: C13_19  and  N4_21 
REMARK    5  A    between atoms: N4_21  and  C14_22 
ROOT
ATOM      1  C10 NON d   1     -45.133  16.828  -4.297  0.00  0.00     0.134 A 
ATOM      2  C11 NON d   1     -45.738  16.897  -5.537  0.00  0.00     0.090 A 
ATOM      3  S1  NON d   1     -47.435  16.701  -5.435  0.00  0.00    -0.059 SA
ATOM      4  C12 NON d   1     -47.298  16.407  -3.742  0.00  0.00     0.198 A 
ATOM      5  N5  NON d   1     -46.074  16.542  -3.279  0.00  0.00    -0.217 NA
ENDROOT
BRANCH   1   6
ATOM      6  C9  NON d   1     -43.684  16.932  -3.944  0.00  0.00     0.273 C 
ATOM      7  N2  NON d   1     -42.819  17.949  -4.453  0.00  0.00    -0.344 N 
ATOM      8  C8  NON d   1     -43.172  18.964  -5.435  0.00  0.00     0.146 C 
ATOM      9  C21 NON d   1     -41.388  17.630  -4.409  0.00  0.00     0.146 C 
ATOM     10  C7  NON d   1     -42.190  20.151  -5.572  0.00  0.00     0.143 C 
ATOM     11  N1  NON d   1     -40.757  19.752  -5.608  0.00  0.00    -0.378 N 
ATOM     12  C22 NON d   1     -40.435  18.841  -4.480  0.00  0.00     0.143 C 
ATOM     13  O2  NON d   1     -43.178  16.096  -3.185  0.00  0.00    -0.266 OA
BRANCH  11  14
ATOM     14  C6  NON d   1     -39.810  20.745  -5.955  0.00  0.00     0.030 A 
ATOM     15  C5  NON d   1     -39.915  22.074  -5.503  0.00  0.00     0.030 A 
ATOM     16  C4  NON d   1     -38.997  23.081  -5.866  0.00  0.00     0.017 A 
ATOM     17  C3  NON d   1     -37.927  22.814  -6.724  0.00  0.00     0.009 A 
ATOM     18  C24 NON d   1     -37.804  21.519  -7.217  0.00  0.00     0.017 A 
ATOM     19  C23 NON d   1     -38.735  20.515  -6.841  0.00  0.00     0.030 A 
BRANCH  17  20
ATOM     20  C2  NON d   1     -36.975  23.931  -7.048  0.00  0.00     0.155 C 
ATOM     21  C1  NON d   1     -36.370  24.028  -8.461  0.00  0.00     0.096 C 
ATOM     22  O1  NON d   1     -36.673  24.733  -6.164  0.00  0.00    -0.293 OA
ENDBRANCH  17  20
ENDBRANCH  11  14
ENDBRANCH   1   6
BRANCH   4  23
ATOM     23  N3  NON d   1     -48.461  16.116  -3.112  0.00  0.00    -0.167 NA
ATOM     24  C13 NON d   1     -49.547  16.879  -3.240  0.00  0.00     0.348 C 
ATOM     25  O3  NON d   1     -49.725  17.873  -3.934  0.00  0.00    -0.245 OA
ATOM     26  N4  NON d   1     -50.508  16.376  -2.384  0.00  0.00    -0.307 N 
ATOM     27  H11 NON d   1     -50.150  15.584  -1.872  0.00  0.00     0.170 HD
BRANCH  26  28
ATOM     28  C14 NON d   1     -51.824  16.800  -2.124  0.00  0.00     0.036 A 
ATOM     29  C15 NON d   1     -52.857  16.147  -2.810  0.00  0.00     0.029 A 
ATOM     30  C16 NON d   1     -54.194  16.506  -2.610  0.00  0.00     0.003 A 
ATOM     31  C17 NON d   1     -54.513  17.533  -1.723  0.00  0.00     0.007 A 
ATOM     32  C18 NON d   1     -53.497  18.209  -1.041  0.00  0.00    -0.060 A 
ATOM     33  C19 NON d   1     -53.831  19.295  -0.063  0.00  0.00     0.048 C 
ATOM     34  C20 NON d   1     -52.157  17.825  -1.235  0.00  0.00     0.036 A 
ENDBRANCH  26  28
ENDBRANCH   4  23
TORSDOF 5
ENDMDL
MODEL 2
REMARK VINA RESULT:   -12.443      0.509      1.190
REMARK INTER + INTRA:         -14.791
REMARK INTER:                 -13.935
REMARK INTRA:                  -0.856
REMARK CONF_INDEPENDENT:        1.492
REMARK UNBOUND:                -0.856
REMARK  5 active torsions:
REMARK  status: ('A' for Active; 'I' for Inactive)
REMARK    1  A    between atoms: C2_2  and  C3_4 
REMARK    2  A    between atoms: C6_7  and  N1_8 
REMARK       I    between atoms: N2_11  and  C9_12 
REMARK    3  A    between atoms: C9_12  and  C10_14 
REMARK    4  A    between atoms: C12_17  and  N3_18 
REMARK       I    between atoms: N3_18  and  C13_19 
REMARK       I    between atoms: C13_19  and  N4_21 
REMARK    5  A    between atoms: N4_21  and  C14_22 
ROOT
ATOM      1  C10 NON d   1     -45.074  16.745  -4.330  0.00  0.00     0.134 A 
ATOM      2  C11 NON d   1     -45.692  16.722  -5.565  0.00  0.00     0.090 A 
ATOM      3  S1  NON d   1     -47.388  16.539  -5.432  0.00  0.00    -0.059 SA
ATOM      4  C12 NON d   1     -47.234  16.373  -3.723  0.00  0.00     0.198 A 
ATOM      5  N5  NON d   1     -46.006  16.540  -3.284  0.00  0.00    -0.217 NA
ENDROOT
BRANCH   1   6
ATOM      6  C9  NON d   1     -43.621  16.871  -4.000  0.00  0.00     0.273 C 
ATOM      7  N2  NON d   1     -42.788  17.923  -4.493  0.00  0.00    -0.344 N 
ATOM      8  C8  NON d   1     -43.183  18.958  -5.437  0.00  0.00     0.146 C 
ATOM      9  C21 NON d   1     -41.351  17.635  -4.484  0.00  0.00     0.146 C 
ATOM     10  C7  NON d   1     -42.230  20.171  -5.556  0.00  0.00     0.143 C 
ATOM     11  N1  NON d   1     -40.789  19.806  -5.629  0.00  0.00    -0.378 N 
ATOM     12  C22 NON d   1     -40.426  18.869  -4.536  0.00  0.00     0.143 C 
ATOM     13  O2  NON d   1     -43.083  16.025  -3.276  0.00  0.00    -0.266 OA
BRANCH  11  14
ATOM     14  C6  NON d   1     -39.871  20.829  -5.963  0.00  0.00     0.030 A 
ATOM     15  C5  NON d   1     -39.307  21.678  -4.992  0.00  0.00     0.030 A 
ATOM     16  C4  NON d   1     -38.415  22.722  -5.312  0.00  0.00     0.017 A 
ATOM     17  C3  NON d   1     -38.053  22.988  -6.635  0.00  0.00     0.009 A 
ATOM     18  C24 NON d   1     -38.612  22.191  -7.629  0.00  0.00     0.017 A 
ATOM     19  C23 NON d   1     -39.506  21.142  -7.291  0.00  0.00     0.030 A 
BRANCH  17  20
ATOM     20  C2  NON d   1     -37.080  24.102  -6.899  0.00  0.00     0.155 C 
ATOM     21  C1  NON d   1     -36.444  24.242  -8.295  0.00  0.00     0.096 C 
ATOM     22  O1  NON d   1     -36.784  24.868  -5.980  0.00  0.00    -0.293 OA
ENDBRANCH  17  20
ENDBRANCH  11  14
ENDBRANCH   1   6
BRANCH   4  23
ATOM     23  N3  NON d   1     -48.391  16.135  -3.062  0.00  0.00    -0.167 NA
ATOM     24  C13 NON d   1     -49.443  16.950  -3.154  0.00  0.00     0.348 C 
ATOM     25  O3  NON d   1     -49.592  17.958  -3.836  0.00  0.00    -0.245 OA
ATOM     26  N4  NON d   1     -50.402  16.488  -2.273  0.00  0.00    -0.307 N 
ATOM     27  H11 NON d   1     -50.068  15.676  -1.776  0.00  0.00     0.170 HD
BRANCH  26  28
ATOM     28  C14 NON d   1     -51.688  16.973  -1.972  0.00  0.00     0.036 A 
ATOM     29  C15 NON d   1     -51.819  17.791  -0.842  0.00  0.00     0.029 A 
ATOM     30  C16 NON d   1     -53.062  18.314  -0.472  0.00  0.00     0.003 A 
ATOM     31  C17 NON d   1     -54.195  18.018  -1.228  0.00  0.00     0.007 A 
ATOM     32  C18 NON d   1     -54.090  17.190  -2.350  0.00  0.00    -0.060 A 
ATOM     33  C19 NON d   1     -55.297  16.889  -3.187  0.00  0.00     0.048 C 
ATOM     34  C20 NON d   1     -52.830  16.686  -2.724  0.00  0.00     0.036 A 
ENDBRANCH  26  28
ENDBRANCH   4  23
TORSDOF 5
ENDMDL
MODEL 3
REMARK VINA RESULT:   -11.763      3.340      4.841
REMARK INTER + INTRA:         -14.090
REMARK INTER:                 -13.254
REMARK INTRA:                  -0.836
REMARK CONF_INDEPENDENT:        1.492
REMARK UNBOUND:                -0.836
REMARK  5 active torsions:
REMARK  status: ('A' for Active; 'I' for Inactive)
REMARK    1  A    between atoms: C2_2  and  C3_4 
REMARK    2  A    between atoms: C6_7  and  N1_8 
REMARK       I    between atoms: N2_11  and  C9_12 
REMARK    3  A    between atoms: C9_12  and  C10_14 
REMARK    4  A    between atoms: C12_17  and  N3_18 
REMARK       I    between atoms: N3_18  and  C13_19 
REMARK       I    between atoms: C13_19  and  N4_21 
REMARK    5  A    between atoms: N4_21  and  C14_22 
ROOT
ATOM      1  C10 NON d   1     -42.054  18.979  -5.332  0.00  0.00     0.134 A 
ATOM      2  C11 NON d   1     -41.773  17.713  -5.809  0.00  0.00     0.090 A 
ATOM      3  S1  NON d   1     -42.940  16.565  -5.314  0.00  0.00    -0.059 SA
ATOM      4  C12 NON d   1     -43.726  17.773  -4.370  0.00  0.00     0.198 A 
ATOM      5  N5  NON d   1     -43.199  18.972  -4.498  0.00  0.00    -0.217 NA
ENDROOT
BRANCH   1   6
ATOM      6  C9  NON d   1     -41.292  20.251  -5.514  0.00  0.00     0.273 C 
ATOM      7  N2  NON d   1     -40.711  20.651  -6.757  0.00  0.00    -0.344 N 
ATOM      8  C8  NON d   1     -40.689  19.870  -7.985  0.00  0.00     0.146 C 
ATOM      9  C21 NON d   1     -39.625  21.631  -6.651  0.00  0.00     0.146 C 
ATOM     10  C7  NON d   1     -40.316  20.638  -9.275  0.00  0.00     0.143 C 
ATOM     11  N1  NON d   1     -39.152  21.551  -9.122  0.00  0.00    -0.378 N 
ATOM     12  C22 NON d   1     -39.321  22.429  -7.936  0.00  0.00     0.143 C 
ATOM     13  O2  NON d   1     -41.128  21.010  -4.551  0.00  0.00    -0.266 OA
BRANCH  11  14
ATOM     14  C6  NON d   1     -38.605  22.118 -10.298  0.00  0.00     0.030 A 
ATOM     15  C5  NON d   1     -39.144  23.274 -10.895  0.00  0.00     0.030 A 
ATOM     16  C4  NON d   1     -38.631  23.832 -12.084  0.00  0.00     0.017 A 
ATOM     17  C3  NON d   1     -37.555  23.247 -12.756  0.00  0.00     0.009 A 
ATOM     18  C24 NON d   1     -37.012  22.086 -12.215  0.00  0.00     0.017 A 
ATOM     19  C23 NON d   1     -37.538  21.536 -11.016  0.00  0.00     0.030 A 
BRANCH  17  20
ATOM     20  C2  NON d   1     -37.046  23.910 -14.005  0.00  0.00     0.155 C 
ATOM     21  C1  NON d   1     -37.469  23.365 -15.382  0.00  0.00     0.096 C 
ATOM     22  O1  NON d   1     -36.272  24.863 -13.901  0.00  0.00    -0.293 OA
ENDBRANCH  17  20
ENDBRANCH  11  14
ENDBRANCH   1   6
BRANCH   4  23
ATOM     23  N3  NON d   1     -44.794  17.343  -3.658  0.00  0.00    -0.167 NA
ATOM     24  C13 NON d   1     -45.900  16.882  -4.245  0.00  0.00     0.348 C 
ATOM     25  O3  NON d   1     -46.138  16.712  -5.435  0.00  0.00    -0.245 OA
ATOM     26  N4  NON d   1     -46.828  16.644  -3.249  0.00  0.00    -0.307 N 
ATOM     27  H11 NON d   1     -46.452  16.889  -2.346  0.00  0.00     0.170 HD
BRANCH  26  28
ATOM     28  C14 NON d   1     -48.147  16.160  -3.314  0.00  0.00     0.036 A 
ATOM     29  C15 NON d   1     -48.371  15.003  -4.074  0.00  0.00     0.029 A 
ATOM     30  C16 NON d   1     -49.652  14.456  -4.191  0.00  0.00     0.003 A 
ATOM     31  C17 NON d   1     -50.731  15.067  -3.554  0.00  0.00     0.007 A 
ATOM     32  C18 NON d   1     -50.533  16.231  -2.805  0.00  0.00    -0.060 A 
ATOM     33  C19 NON d   1     -51.681  16.880  -2.092  0.00  0.00     0.048 C 
ATOM     34  C20 NON d   1     -49.236  16.761  -2.678  0.00  0.00     0.036 A 
ENDBRANCH  26  28
ENDBRANCH   4  23
TORSDOF 5
ENDMDL
MODEL 4
REMARK VINA RESULT:   -11.058      4.721     12.208
REMARK INTER + INTRA:         -13.435
REMARK INTER:                 -12.550
REMARK INTRA:                  -0.885
REMARK CONF_INDEPENDENT:        1.492
REMARK UNBOUND:                -0.885
REMARK  5 active torsions:
REMARK  status: ('A' for Active; 'I' for Inactive)
REMARK    1  A    between atoms: C2_2  and  C3_4 
REMARK    2  A    between atoms: C6_7  and  N1_8 
REMARK       I    between atoms: N2_11  and  C9_12 
REMARK    3  A    between atoms: C9_12  and  C10_14 
REMARK    4  A    between atoms: C12_17  and  N3_18 
REMARK       I    between atoms: N3_18  and  C13_19 
REMARK       I    between atoms: C13_19  and  N4_21 
REMARK    5  A    between atoms: N4_21  and  C14_22 
ROOT
ATOM      1  C10 NON d   1     -37.470  22.574  -5.078  0.00  0.00     0.134 A 
ATOM      2  C11 NON d   1     -36.516  23.536  -4.808  0.00  0.00     0.090 A 
ATOM      3  S1  NON d   1     -36.383  24.682  -6.072  0.00  0.00    -0.059 SA
ATOM      4  C12 NON d   1     -37.524  23.786  -7.002  0.00  0.00     0.198 A 
ATOM      5  N5  NON d   1     -38.034  22.754  -6.364  0.00  0.00    -0.217 NA
ENDROOT
BRANCH   1   6
ATOM      6  C9  NON d   1     -37.886  21.397  -4.257  0.00  0.00     0.273 C 
ATOM      7  N2  NON d   1     -39.133  20.718  -4.425  0.00  0.00    -0.344 N 
ATOM      8  C8  NON d   1     -40.204  21.105  -5.330  0.00  0.00     0.146 C 
ATOM      9  C21 NON d   1     -39.579  19.940  -3.265  0.00  0.00     0.146 C 
ATOM     10  C7  NON d   1     -41.297  20.041  -5.587  0.00  0.00     0.143 C 
ATOM     11  N1  NON d   1     -41.768  19.347  -4.358  0.00  0.00    -0.378 N 
ATOM     12  C22 NON d   1     -40.620  18.840  -3.564  0.00  0.00     0.143 C 
ATOM     13  O2  NON d   1     -37.135  20.975  -3.367  0.00  0.00    -0.266 OA
BRANCH  11  14
ATOM     14  C6  NON d   1     -42.916  18.526  -4.469  0.00  0.00     0.030 A 
ATOM     15  C5  NON d   1     -44.037  18.901  -5.233  0.00  0.00     0.030 A 
ATOM     16  C4  NON d   1     -45.200  18.110  -5.327  0.00  0.00     0.017 A 
ATOM     17  C3  NON d   1     -45.311  16.898  -4.640  0.00  0.00     0.009 A 
ATOM     18  C24 NON d   1     -44.236  16.505  -3.849  0.00  0.00     0.017 A 
ATOM     19  C23 NON d   1     -43.071  17.311  -3.766  0.00  0.00     0.030 A 
BRANCH  17  20
ATOM     20  C2  NON d   1     -46.571  16.095  -4.806  0.00  0.00     0.155 C 
ATOM     21  C1  NON d   1     -47.654  16.145  -3.713  0.00  0.00     0.096 C 
ATOM     22  O1  NON d   1     -46.699  15.386  -5.805  0.00  0.00    -0.293 OA
ENDBRANCH  17  20
ENDBRANCH  11  14
ENDBRANCH   1   6
BRANCH   4  23
ATOM     23  N3  NON d   1     -37.771  24.278  -8.239  0.00  0.00    -0.167 NA
ATOM     24  C13 NON d   1     -38.736  23.788  -9.019  0.00  0.00     0.348 C 
ATOM     25  O3  NON d   1     -39.562  22.913  -8.782  0.00  0.00    -0.245 OA
ATOM     26  N4  NON d   1     -38.642  24.424 -10.242  0.00  0.00    -0.307 N 
ATOM     27  H11 NON d   1     -37.871  25.075 -10.246  0.00  0.00     0.170 HD
BRANCH  26  28
ATOM     28  C14 NON d   1     -39.406  24.285 -11.415  0.00  0.00     0.036 A 
ATOM     29  C15 NON d   1     -39.244  23.103 -12.151  0.00  0.00     0.029 A 
ATOM     30  C16 NON d   1     -39.965  22.885 -13.329  0.00  0.00     0.003 A 
ATOM     31  C17 NON d   1     -40.854  23.854 -13.791  0.00  0.00     0.007 A 
ATOM     32  C18 NON d   1     -41.017  25.048 -13.082  0.00  0.00    -0.060 A 
ATOM     33  C19 NON d   1     -41.992  26.085 -13.555  0.00  0.00     0.048 C 
ATOM     34  C20 NON d   1     -40.301  25.248 -11.887  0.00  0.00     0.036 A 
ENDBRANCH  26  28
ENDBRANCH   4  23
TORSDOF 5
ENDMDL
MODEL 5
REMARK VINA RESULT:   -10.435      3.868     12.912
REMARK INTER + INTRA:         -12.814
REMARK INTER:                 -11.927
REMARK INTRA:                  -0.887
REMARK CONF_INDEPENDENT:        1.492
REMARK UNBOUND:                -0.887
REMARK  5 active torsions:
REMARK  status: ('A' for Active; 'I' for Inactive)
REMARK    1  A    between atoms: C2_2  and  C3_4 
REMARK    2  A    between atoms: C6_7  and  N1_8 
REMARK       I    between atoms: N2_11  and  C9_12 
REMARK    3  A    between atoms: C9_12  and  C10_14 
REMARK    4  A    between atoms: C12_17  and  N3_18 
REMARK       I    between atoms: N3_18  and  C13_19 
REMARK       I    between atoms: C13_19  and  N4_21 
REMARK    5  A    between atoms: N4_21  and  C14_22 
ROOT
ATOM      1  C10 NON d   1     -40.345  20.150  -5.620  0.00  0.00     0.134 A 
ATOM      2  C11 NON d   1     -39.628  21.238  -5.160  0.00  0.00     0.090 A 
ATOM      3  S1  NON d   1     -39.398  22.417  -6.379  0.00  0.00    -0.059 SA
ATOM      4  C12 NON d   1     -40.162  21.380  -7.524  0.00  0.00     0.198 A 
ATOM      5  N5  NON d   1     -40.637  20.271  -7.000  0.00  0.00    -0.217 NA
ENDROOT
BRANCH   1   6
ATOM      6  C9  NON d   1     -40.747  18.907  -4.894  0.00  0.00     0.273 C 
ATOM      7  N2  NON d   1     -42.103  18.475  -4.759  0.00  0.00    -0.344 N 
ATOM      8  C8  NON d   1     -43.282  19.198  -5.213  0.00  0.00     0.146 C 
ATOM      9  C21 NON d   1     -42.356  17.553  -3.648  0.00  0.00     0.146 C 
ATOM     10  C7  NON d   1     -44.599  18.388  -5.267  0.00  0.00     0.143 C 
ATOM     11  N1  NON d   1     -44.838  17.538  -4.070  0.00  0.00    -0.378 N 
ATOM     12  C22 NON d   1     -43.643  16.710  -3.763  0.00  0.00     0.143 C 
ATOM     13  O2  NON d   1     -39.881  18.202  -4.361  0.00  0.00    -0.266 OA
BRANCH  11  14
ATOM     14  C6  NON d   1     -46.114  16.942  -3.934  0.00  0.00     0.030 A 
ATOM     15  C5  NON d   1     -46.935  17.170  -2.813  0.00  0.00     0.030 A 
ATOM     16  C4  NON d   1     -48.194  16.559  -2.649  0.00  0.00     0.017 A 
ATOM     17  C3  NON d   1     -48.696  15.662  -3.596  0.00  0.00     0.009 A 
ATOM     18  C24 NON d   1     -47.903  15.386  -4.705  0.00  0.00     0.017 A 
ATOM     19  C23 NON d   1     -46.638  16.011  -4.858  0.00  0.00     0.030 A 
BRANCH  17  20
ATOM     20  C2  NON d   1     -50.057  15.067  -3.366  0.00  0.00     0.155 C 
ATOM     21  C1  NON d   1     -51.178  15.940  -2.772  0.00  0.00     0.096 C 
ATOM     22  O1  NON d   1     -50.240  13.878  -3.629  0.00  0.00    -0.293 OA
ENDBRANCH  17  20
ENDBRANCH  11  14
ENDBRANCH   1   6
BRANCH   4  23
ATOM     23  N3  NON d   1     -40.206  21.855  -8.791  0.00  0.00    -0.167 NA
ATOM     24  C13 NON d   1     -39.307  21.507  -9.713  0.00  0.00     0.348 C 
ATOM     25  O3  NON d   1     -38.377  20.713  -9.633  0.00  0.00    -0.245 OA
ATOM     26  N4  NON d   1     -39.566  22.253 -10.846  0.00  0.00    -0.307 N 
ATOM     27  H11 NON d   1     -40.344  22.877 -10.692  0.00  0.00     0.170 HD
BRANCH  26  28
ATOM     28  C14 NON d   1     -38.925  22.282 -12.099  0.00  0.00     0.036 A 
ATOM     29  C15 NON d   1     -39.321  23.279 -13.001  0.00  0.00     0.029 A 
ATOM     30  C16 NON d   1     -38.735  23.378 -14.266  0.00  0.00     0.003 A 
ATOM     31  C17 NON d   1     -37.746  22.472 -14.648  0.00  0.00     0.007 A 
ATOM     32  C18 NON d   1     -37.349  21.459 -13.770  0.00  0.00    -0.060 A 
ATOM     33  C19 NON d   1     -36.267  20.497 -14.160  0.00  0.00     0.048 C 
ATOM     34  C20 NON d   1     -37.932  21.381 -12.492  0.00  0.00     0.036 A 
ENDBRANCH  26  28
ENDBRANCH   4  23
TORSDOF 5
ENDMDL
