MODEL 1
REMARK VINA RESULT:   -12.583      0.000      0.000
REMARK INTER + INTRA:         -14.825
REMARK INTER:                 -14.075
REMARK INTRA:                  -0.751
REMARK CONF_INDEPENDENT:        1.492
REMARK UNBOUND:                -0.751
REMARK  5 active torsions:
REMARK  status: ('A' for Active; 'I' for Inactive)
REMARK    1  A    between atoms: C2_2  and  C3_4 
REMARK    2  A    between atoms: C6_7  and  N1_8 
REMARK       I    between atoms: N2_11  and  C9_12 
REMARK    3  A    between atoms: C9_12  and  C10_14 
REMARK    4  A    between atoms: C12_17  and  N3_18 
REMARK       I    between atoms: N3_18  and  C13_19 
REMARK       I    between atoms: C13_19  and  N4_21 
REMARK    5  A    between atoms: N4_21  and  C14_22 
ROOT
ATOM      1  C10 NON d   1     -44.848  16.885  -4.463  0.00  0.00     0.134 A 
ATOM      2  C11 NON d   1     -45.565  17.042  -5.637  0.00  0.00     0.090 A 
ATOM      3  S1  NON d   1     -47.217  16.610  -5.435  0.00  0.00    -0.061 SA
ATOM      4  C12 NON d   1     -46.925  16.335  -3.778  0.00  0.00     0.175 A 
ATOM      5  N5  NON d   1     -45.684  16.470  -3.394  0.00  0.00    -0.218 NA
ENDROOT
BRANCH   1   6
ATOM      6  C9  NON d   1     -43.406  17.166  -4.180  0.00  0.00     0.273 C 
ATOM      7  N2  NON d   1     -42.652  18.171  -4.847  0.00  0.00    -0.344 N 
ATOM      8  C8  NON d   1     -43.169  19.134  -5.809  0.00  0.00     0.146 C 
ATOM      9  C21 NON d   1     -41.441  18.615  -4.142  0.00  0.00     0.146 C 
ATOM     10  C7  NON d   1     -42.115  19.901  -6.642  0.00  0.00     0.143 C 
ATOM     11  N1  NON d   1     -40.981  20.415  -5.836  0.00  0.00    -0.378 N 
ATOM     12  C22 NON d   1     -40.386  19.336  -5.007  0.00  0.00     0.143 C 
ATOM     13  O2  NON d   1     -42.840  16.501  -3.306  0.00  0.00    -0.266 OA
BRANCH  11  14
ATOM     14  C6  NON d   1     -40.103  21.331  -6.466  0.00  0.00     0.030 A 
ATOM     15  C5  NON d   1     -39.863  21.304  -7.852  0.00  0.00     0.030 A 
ATOM     16  C4  NON d   1     -39.014  22.221  -8.501  0.00  0.00     0.017 A 
ATOM     17  C3  NON d   1     -38.370  23.238  -7.793  0.00  0.00     0.009 A 
ATOM     18  C24 NON d   1     -38.607  23.323  -6.425  0.00  0.00     0.017 A 
ATOM     19  C23 NON d   1     -39.463  22.389  -5.785  0.00  0.00     0.030 A 
BRANCH  17  20
ATOM     20  C2  NON d   1     -37.460  24.163  -8.547  0.00  0.00     0.155 C 
ATOM     21  C1  NON d   1     -37.520  24.205 -10.085  0.00  0.00     0.096 C 
ATOM     22  O1  NON d   1     -36.699  24.900  -7.915  0.00  0.00    -0.293 OA
ENDBRANCH  17  20
ENDBRANCH  11  14
ENDBRANCH   1   6
BRANCH   4  23
ATOM     23  N3  NON d   1     -48.066  16.017  -3.091  0.00  0.00    -0.287 N 
ATOM     24  C13 NON d   1     -49.197  16.813  -3.047  0.00  0.00     0.326 C 
ATOM     25  O3  NON d   1     -49.316  17.900  -3.590  0.00  0.00    -0.247 OA
ATOM     26  N4  NON d   1     -50.192  16.179  -2.300  0.00  0.00    -0.309 N 
ATOM     27  H12 NON d   1     -49.912  15.356  -1.792  0.00  0.00     0.170 HD
ATOM     28  H11 NON d   1     -48.111  15.076  -2.744  0.00  0.00     0.172 HD
BRANCH  26  29
ATOM     29  C14 NON d   1     -51.529  16.586  -2.096  0.00  0.00     0.036 A 
ATOM     30  C15 NON d   1     -52.521  15.894  -2.810  0.00  0.00     0.029 A 
ATOM     31  C16 NON d   1     -53.869  16.233  -2.675  0.00  0.00     0.003 A 
ATOM     32  C17 NON d   1     -54.244  17.273  -1.830  0.00  0.00     0.007 A 
ATOM     33  C18 NON d   1     -53.271  17.988  -1.124  0.00  0.00    -0.060 A 
ATOM     34  C19 NON d   1     -53.674  19.088  -0.185  0.00  0.00     0.048 C 
ATOM     35  C20 NON d   1     -51.917  17.630  -1.255  0.00  0.00     0.036 A 
ENDBRANCH  26  29
ENDBRANCH   4  23
TORSDOF 5
ENDMDL
MODEL 2
REMARK VINA RESULT:   -12.381      7.069     11.444
REMARK INTER + INTRA:         -14.692
REMARK INTER:                 -13.873
REMARK INTRA:                  -0.819
REMARK CONF_INDEPENDENT:        1.492
REMARK UNBOUND:                -0.819
REMARK  5 active torsions:
REMARK  status: ('A' for Active; 'I' for Inactive)
REMARK    1  A    between atoms: C2_2  and  C3_4 
REMARK    2  A    between atoms: C6_7  and  N1_8 
REMARK       I    between atoms: N2_11  and  C9_12 
REMARK    3  A    between atoms: C9_12  and  C10_14 
REMARK    4  A    between atoms: C12_17  and  N3_18 
REMARK       I    between atoms: N3_18  and  C13_19 
REMARK       I    between atoms: C13_19  and  N4_21 
REMARK    5  A    between atoms: N4_21  and  C14_22 
ROOT
ATOM      1  C10 NON d   1     -37.399  20.821  -1.063  0.00  0.00     0.134 A 
ATOM      2  C11 NON d   1     -36.647  20.049  -0.195  0.00  0.00     0.090 A 
ATOM      3  S1  NON d   1     -36.385  20.849   1.303  0.00  0.00    -0.061 SA
ATOM      4  C12 NON d   1     -37.366  22.136   0.768  0.00  0.00     0.175 A 
ATOM      5  N5  NON d   1     -37.804  22.039  -0.459  0.00  0.00    -0.218 NA
ENDROOT
BRANCH   1   6
ATOM      6  C9  NON d   1     -37.882  20.510  -2.445  0.00  0.00     0.273 C 
ATOM      7  N2  NON d   1     -39.138  19.902  -2.723  0.00  0.00    -0.344 N 
ATOM      8  C8  NON d   1     -40.175  19.590  -1.749  0.00  0.00     0.146 C 
ATOM      9  C21 NON d   1     -39.637  20.098  -4.092  0.00  0.00     0.146 C 
ATOM     10  C7  NON d   1     -41.298  18.641  -2.228  0.00  0.00     0.143 C 
ATOM     11  N1  NON d   1     -41.827  18.977  -3.572  0.00  0.00    -0.378 N 
ATOM     12  C22 NON d   1     -40.725  19.107  -4.559  0.00  0.00     0.143 C 
ATOM     13  O2  NON d   1     -37.160  20.811  -3.400  0.00  0.00    -0.266 OA
BRANCH  11  14
ATOM     14  C6  NON d   1     -43.013  18.320  -3.983  0.00  0.00     0.030 A 
ATOM     15  C5  NON d   1     -43.500  17.175  -3.326  0.00  0.00     0.030 A 
ATOM     16  C4  NON d   1     -44.690  16.523  -3.704  0.00  0.00     0.017 A 
ATOM     17  C3  NON d   1     -45.476  17.001  -4.755  0.00  0.00     0.009 A 
ATOM     18  C24 NON d   1     -45.049  18.152  -5.409  0.00  0.00     0.017 A 
ATOM     19  C23 NON d   1     -43.846  18.795  -5.020  0.00  0.00     0.030 A 
BRANCH  17  20
ATOM     20  C2  NON d   1     -46.718  16.240  -5.117  0.00  0.00     0.155 C 
ATOM     21  C1  NON d   1     -48.050  16.581  -4.422  0.00  0.00     0.096 C 
ATOM     22  O1  NON d   1     -46.655  15.374  -5.991  0.00  0.00    -0.293 OA
ENDBRANCH  17  20
ENDBRANCH  11  14
ENDBRANCH   1   6
BRANCH   4  23
ATOM     23  N3  NON d   1     -37.554  23.089   1.734  0.00  0.00    -0.287 N 
ATOM     24  C13 NON d   1     -38.793  23.546   2.147  0.00  0.00     0.326 C 
ATOM     25  O3  NON d   1     -39.866  23.181   1.693  0.00  0.00    -0.247 OA
ATOM     26  N4  NON d   1     -38.634  24.479   3.173  0.00  0.00    -0.309 N 
ATOM     27  H12 NON d   1     -37.692  24.793   3.349  0.00  0.00     0.170 HD
ATOM     28  H11 NON d   1     -36.736  23.332   2.264  0.00  0.00     0.172 HD
BRANCH  26  29
ATOM     29  C14 NON d   1     -39.632  25.108   3.950  0.00  0.00     0.036 A 
ATOM     30  C15 NON d   1     -39.463  25.084   5.343  0.00  0.00     0.029 A 
ATOM     31  C16 NON d   1     -40.403  25.675   6.190  0.00  0.00     0.003 A 
ATOM     32  C17 NON d   1     -41.530  26.292   5.655  0.00  0.00     0.007 A 
ATOM     33  C18 NON d   1     -41.729  26.310   4.271  0.00  0.00    -0.060 A 
ATOM     34  C19 NON d   1     -42.926  27.004   3.687  0.00  0.00     0.048 C 
ATOM     35  C20 NON d   1     -40.768  25.725   3.425  0.00  0.00     0.036 A 
ENDBRANCH  26  29
ENDBRANCH   4  23
TORSDOF 5
ENDMDL
MODEL 3
REMARK VINA RESULT:   -11.143      3.431     12.957
REMARK INTER + INTRA:         -13.404
REMARK INTER:                 -12.635
REMARK INTRA:                  -0.770
REMARK CONF_INDEPENDENT:        1.492
REMARK UNBOUND:                -0.770
REMARK  5 active torsions:
REMARK  status: ('A' for Active; 'I' for Inactive)
REMARK    1  A    between atoms: C2_2  and  C3_4 
REMARK    2  A    between atoms: C6_7  and  N1_8 
REMARK       I    between atoms: N2_11  and  C9_12 
REMARK    3  A    between atoms: C9_12  and  C10_14 
REMARK    4  A    between atoms: C12_17  and  N3_18 
REMARK       I    between atoms: N3_18  and  C13_19 
REMARK       I    between atoms: C13_19  and  N4_21 
REMARK    5  A    between atoms: N4_21  and  C14_22 
ROOT
ATOM      1  C10 NON d   1     -40.253  20.592  -5.802  0.00  0.00     0.134 A 
ATOM      2  C11 NON d   1     -39.874  21.883  -5.479  0.00  0.00     0.090 A 
ATOM      3  S1  NON d   1     -39.607  22.838  -6.883  0.00  0.00    -0.061 SA
ATOM      4  C12 NON d   1     -40.106  21.526  -7.850  0.00  0.00     0.175 A 
ATOM      5  N5  NON d   1     -40.380  20.423  -7.206  0.00  0.00    -0.218 NA
ENDROOT
BRANCH   1   6
ATOM      6  C9  NON d   1     -40.609  19.447  -4.907  0.00  0.00     0.273 C 
ATOM      7  N2  NON d   1     -41.919  18.903  -4.805  0.00  0.00    -0.344 N 
ATOM      8  C8  NON d   1     -43.072  19.286  -5.608  0.00  0.00     0.146 C 
ATOM      9  C21 NON d   1     -41.988  17.538  -4.265  0.00  0.00     0.146 C 
ATOM     10  C7  NON d   1     -44.450  18.803  -5.099  0.00  0.00     0.143 C 
ATOM     11  N1  NON d   1     -44.463  17.380  -4.680  0.00  0.00    -0.378 N 
ATOM     12  C22 NON d   1     -43.365  17.099  -3.721  0.00  0.00     0.143 C 
ATOM     13  O2  NON d   1     -39.713  18.933  -4.229  0.00  0.00    -0.266 OA
BRANCH  11  14
ATOM     14  C6  NON d   1     -45.728  16.790  -4.434  0.00  0.00     0.030 A 
ATOM     15  C5  NON d   1     -46.367  16.885  -3.184  0.00  0.00     0.030 A 
ATOM     16  C4  NON d   1     -47.635  16.327  -2.928  0.00  0.00     0.017 A 
ATOM     17  C3  NON d   1     -48.347  15.659  -3.926  0.00  0.00     0.009 A 
ATOM     18  C24 NON d   1     -47.767  15.573  -5.187  0.00  0.00     0.017 A 
ATOM     19  C23 NON d   1     -46.487  16.136  -5.429  0.00  0.00     0.030 A 
BRANCH  17  20
ATOM     20  C2  NON d   1     -49.682  15.069  -3.572  0.00  0.00     0.155 C 
ATOM     21  C1  NON d   1     -50.713  15.920  -2.809  0.00  0.00     0.096 C 
ATOM     22  O1  NON d   1     -49.940  13.918  -3.930  0.00  0.00    -0.293 OA
ENDBRANCH  17  20
ENDBRANCH  11  14
ENDBRANCH   1   6
BRANCH   4  23
ATOM     23  N3  NON d   1     -40.150  21.843  -9.181  0.00  0.00    -0.287 N 
ATOM     24  C13 NON d   1     -39.075  21.731 -10.045  0.00  0.00     0.326 C 
ATOM     25  O3  NON d   1     -37.954  21.361  -9.732  0.00  0.00    -0.247 OA
ATOM     26  N4  NON d   1     -39.467  22.091 -11.336  0.00  0.00    -0.309 N 
ATOM     27  H12 NON d   1     -40.378  22.512 -11.425  0.00  0.00     0.170 HD
ATOM     28  H11 NON d   1     -41.068  22.010  -9.554  0.00  0.00     0.172 HD
BRANCH  26  29
ATOM     29  C14 NON d   1     -38.720  22.016 -12.533  0.00  0.00     0.036 A 
ATOM     30  C15 NON d   1     -37.690  21.064 -12.582  0.00  0.00     0.029 A 
ATOM     31  C16 NON d   1     -36.896  20.925 -13.723  0.00  0.00     0.003 A 
ATOM     32  C17 NON d   1     -37.117  21.741 -14.828  0.00  0.00     0.007 A 
ATOM     33  C18 NON d   1     -38.125  22.710 -14.794  0.00  0.00    -0.060 A 
ATOM     34  C19 NON d   1     -38.390  23.569 -15.996  0.00  0.00     0.048 C 
ATOM     35  C20 NON d   1     -38.929  22.832 -13.646  0.00  0.00     0.036 A 
ENDBRANCH  26  29
ENDBRANCH   4  23
TORSDOF 5
ENDMDL
MODEL 4
REMARK VINA RESULT:   -10.793      2.648      4.280
REMARK INTER + INTRA:         -13.054
REMARK INTER:                 -12.284
REMARK INTRA:                  -0.770
REMARK CONF_INDEPENDENT:        1.492
REMARK UNBOUND:                -0.770
REMARK  5 active torsions:
REMARK  status: ('A' for Active; 'I' for Inactive)
REMARK    1  A    between atoms: C2_2  and  C3_4 
REMARK    2  A    between atoms: C6_7  and  N1_8 
REMARK       I    between atoms: N2_11  and  C9_12 
REMARK    3  A    between atoms: C9_12  and  C10_14 
REMARK    4  A    between atoms: C12_17  and  N3_18 
REMARK       I    between atoms: N3_18  and  C13_19 
REMARK       I    between atoms: C13_19  and  N4_21 
REMARK    5  A    between atoms: N4_21  and  C14_22 
ROOT
ATOM      1  C10 NON d   1     -41.560  18.658  -5.141  0.00  0.00     0.134 A 
ATOM      2  C11 NON d   1     -41.665  17.451  -5.810  0.00  0.00     0.090 A 
ATOM      3  S1  NON d   1     -42.973  16.506  -5.216  0.00  0.00    -0.061 SA
ATOM      4  C12 NON d   1     -43.400  17.784  -4.172  0.00  0.00     0.175 A 
ATOM      5  N5  NON d   1     -42.599  18.816  -4.188  0.00  0.00    -0.218 NA
ENDROOT
BRANCH   1   6
ATOM      6  C9  NON d   1     -40.597  19.784  -5.347  0.00  0.00     0.273 C 
ATOM      7  N2  NON d   1     -40.356  20.395  -6.609  0.00  0.00    -0.344 N 
ATOM      8  C8  NON d   1     -41.062  20.107  -7.851  0.00  0.00     0.146 C 
ATOM      9  C21 NON d   1     -39.766  21.740  -6.550  0.00  0.00     0.146 C 
ATOM     10  C7  NON d   1     -40.411  20.644  -9.146  0.00  0.00     0.143 C 
ATOM     11  N1  NON d   1     -39.945  22.048  -9.039  0.00  0.00    -0.378 N 
ATOM     12  C22 NON d   1     -39.083  22.232  -7.844  0.00  0.00     0.143 C 
ATOM     13  O2  NON d   1     -39.988  20.222  -4.366  0.00  0.00    -0.266 OA
BRANCH  11  14
ATOM     14  C6  NON d   1     -39.564  22.697 -10.240  0.00  0.00     0.030 A 
ATOM     15  C5  NON d   1     -38.844  22.034 -11.251  0.00  0.00     0.030 A 
ATOM     16  C4  NON d   1     -38.478  22.654 -12.462  0.00  0.00     0.017 A 
ATOM     17  C3  NON d   1     -38.836  23.975 -12.738  0.00  0.00     0.009 A 
ATOM     18  C24 NON d   1     -39.579  24.656 -11.779  0.00  0.00     0.017 A 
ATOM     19  C23 NON d   1     -39.937  24.020 -10.562  0.00  0.00     0.030 A 
BRANCH  17  20
ATOM     20  C2  NON d   1     -38.390  24.577 -14.038  0.00  0.00     0.155 C 
ATOM     21  C1  NON d   1     -39.072  24.147 -15.350  0.00  0.00     0.096 C 
ATOM     22  O1  NON d   1     -37.502  25.432 -14.027  0.00  0.00    -0.293 OA
ENDBRANCH  17  20
ENDBRANCH  11  14
ENDBRANCH   1   6
BRANCH   4  23
ATOM     23  N3  NON d   1     -44.547  17.527  -3.471  0.00  0.00    -0.287 N 
ATOM     24  C13 NON d   1     -45.727  17.084  -4.043  0.00  0.00     0.326 C 
ATOM     25  O3  NON d   1     -45.904  16.889  -5.235  0.00  0.00    -0.247 OA
ATOM     26  N4  NON d   1     -46.685  16.877  -3.048  0.00  0.00    -0.309 N 
ATOM     27  H12 NON d   1     -46.452  17.213  -2.127  0.00  0.00     0.170 HD
ATOM     28  H11 NON d   1     -44.448  17.514  -2.472  0.00  0.00     0.172 HD
BRANCH  26  29
ATOM     29  C14 NON d   1     -47.980  16.328  -3.178  0.00  0.00     0.036 A 
ATOM     30  C15 NON d   1     -48.101  15.157  -3.944  0.00  0.00     0.029 A 
ATOM     31  C16 NON d   1     -49.344  14.548  -4.131  0.00  0.00     0.003 A 
ATOM     32  C17 NON d   1     -50.485  15.106  -3.560  0.00  0.00     0.007 A 
ATOM     33  C18 NON d   1     -50.390  16.282  -2.810  0.00  0.00    -0.060 A 
ATOM     34  C19 NON d   1     -51.613  16.868  -2.164  0.00  0.00     0.048 C 
ATOM     35  C20 NON d   1     -49.132  16.880  -2.615  0.00  0.00     0.036 A 
ENDBRANCH  26  29
ENDBRANCH   4  23
TORSDOF 5
ENDMDL
MODEL 5
REMARK VINA RESULT:   -10.448      5.642     11.073
REMARK INTER + INTRA:         -12.557
REMARK INTER:                 -11.939
REMARK INTRA:                  -0.618
REMARK CONF_INDEPENDENT:        1.492
REMARK UNBOUND:                -0.618
REMARK  5 active torsions:
REMARK  status: ('A' for Active; 'I' for Inactive)
REMARK    1  A    between atoms: C2_2  and  C3_4 
REMARK    2  A    between atoms: C6_7  and  N1_8 
REMARK       I    between atoms: N2_11  and  C9_12 
REMARK    3  A    between atoms: C9_12  and  C10_14 
REMARK    4  A    between atoms: C12_17  and  N3_18 
REMARK       I    between atoms: N3_18  and  C13_19 
REMARK       I    between atoms: C13_19  and  N4_21 
REMARK    5  A    between atoms: N4_21  and  C14_22 
ROOT
ATOM      1  C10 NON d   1     -39.150  19.509  -3.136  0.00  0.00     0.134 A 
ATOM      2  C11 NON d   1     -37.798  19.699  -2.905  0.00  0.00     0.090 A 
ATOM      3  S1  NON d   1     -37.520  20.644  -1.496  0.00  0.00    -0.061 SA
ATOM      4  C12 NON d   1     -39.199  20.670  -1.203  0.00  0.00     0.175 A 
ATOM      5  N5  NON d   1     -39.939  20.094  -2.112  0.00  0.00    -0.218 NA
ENDROOT
BRANCH   1   6
ATOM      6  C9  NON d   1     -39.835  18.737  -4.218  0.00  0.00     0.273 C 
ATOM      7  N2  NON d   1     -41.170  18.256  -4.120  0.00  0.00    -0.344 N 
ATOM      8  C8  NON d   1     -42.099  18.519  -3.029  0.00  0.00     0.146 C 
ATOM      9  C21 NON d   1     -41.820  17.948  -5.402  0.00  0.00     0.146 C 
ATOM     10  C7  NON d   1     -43.363  17.630  -2.978  0.00  0.00     0.143 C 
ATOM     11  N1  NON d   1     -44.024  17.463  -4.295  0.00  0.00    -0.378 N 
ATOM     12  C22 NON d   1     -43.052  17.021  -5.326  0.00  0.00     0.143 C 
ATOM     13  O2  NON d   1     -39.216  18.517  -5.264  0.00  0.00    -0.266 OA
BRANCH  11  14
ATOM     14  C6  NON d   1     -45.313  16.873  -4.301  0.00  0.00     0.030 A 
ATOM     15  C5  NON d   1     -46.168  16.932  -3.185  0.00  0.00     0.030 A 
ATOM     16  C4  NON d   1     -47.462  16.375  -3.181  0.00  0.00     0.017 A 
ATOM     17  C3  NON d   1     -47.982  15.744  -4.312  0.00  0.00     0.009 A 
ATOM     18  C24 NON d   1     -47.183  15.694  -5.450  0.00  0.00     0.017 A 
ATOM     19  C23 NON d   1     -45.880  16.256  -5.438  0.00  0.00     0.030 A 
BRANCH  17  20
ATOM     20  C2  NON d   1     -49.358  15.151  -4.226  0.00  0.00     0.155 C 
ATOM     21  C1  NON d   1     -50.212  15.388  -2.966  0.00  0.00     0.096 C 
ATOM     22  O1  NON d   1     -49.794  14.509  -5.183  0.00  0.00    -0.293 OA
ENDBRANCH  17  20
ENDBRANCH  11  14
ENDBRANCH   1   6
BRANCH   4  23
ATOM     23  N3  NON d   1     -39.515  21.298  -0.028  0.00  0.00    -0.287 N 
ATOM     24  C13 NON d   1     -39.890  22.627   0.068  0.00  0.00     0.326 C 
ATOM     25  O3  NON d   1     -39.964  23.409  -0.867  0.00  0.00    -0.247 OA
ATOM     26  N4  NON d   1     -40.186  22.939   1.397  0.00  0.00    -0.309 N 
ATOM     27  H12 NON d   1     -39.945  22.242   2.084  0.00  0.00     0.170 HD
ATOM     28  H11 NON d   1     -39.627  20.695   0.767  0.00  0.00     0.172 HD
BRANCH  26  29
ATOM     29  C14 NON d   1     -40.710  24.142   1.920  0.00  0.00     0.036 A 
ATOM     30  C15 NON d   1     -41.001  25.162   1.001  0.00  0.00     0.029 A 
ATOM     31  C16 NON d   1     -41.516  26.388   1.430  0.00  0.00     0.003 A 
ATOM     32  C17 NON d   1     -41.740  26.612   2.785  0.00  0.00     0.007 A 
ATOM     33  C18 NON d   1     -41.439  25.617   3.720  0.00  0.00    -0.060 A 
ATOM     34  C19 NON d   1     -41.711  25.842   5.179  0.00  0.00     0.048 C 
ATOM     35  C20 NON d   1     -40.935  24.380   3.277  0.00  0.00     0.036 A 
ENDBRANCH  26  29
ENDBRANCH   4  23
TORSDOF 5
ENDMDL
MODEL 6
REMARK VINA RESULT:   -10.142      3.340     12.492
REMARK INTER + INTRA:         -12.288
REMARK INTER:                 -11.634
REMARK INTRA:                  -0.655
REMARK CONF_INDEPENDENT:        1.492
REMARK UNBOUND:                -0.655
REMARK  5 active torsions:
REMARK  status: ('A' for Active; 'I' for Inactive)
REMARK    1  A    between atoms: C2_2  and  C3_4 
REMARK    2  A    between atoms: C6_7  and  N1_8 
REMARK       I    between atoms: N2_11  and  C9_12 
REMARK    3  A    between atoms: C9_12  and  C10_14 
REMARK    4  A    between atoms: C12_17  and  N3_18 
REMARK       I    between atoms: N3_18  and  C13_19 
REMARK       I    between atoms: C13_19  and  N4_21 
REMARK    5  A    between atoms: N4_21  and  C14_22 
ROOT
ATOM      1  C10 NON d   1     -40.060  20.455  -5.794  0.00  0.00     0.134 A 
ATOM      2  C11 NON d   1     -39.713  21.739  -5.412  0.00  0.00     0.090 A 
ATOM      3  S1  NON d   1     -39.387  22.741  -6.770  0.00  0.00    -0.061 SA
ATOM      4  C12 NON d   1     -39.822  21.456  -7.801  0.00  0.00     0.175 A 
ATOM      5  N5  NON d   1     -40.115  20.330  -7.207  0.00  0.00    -0.218 NA
ENDROOT
BRANCH   1   6
ATOM      6  C9  NON d   1     -40.447  19.279  -4.954  0.00  0.00     0.273 C 
ATOM      7  N2  NON d   1     -41.780  18.798  -4.836  0.00  0.00    -0.344 N 
ATOM      8  C8  NON d   1     -42.937  19.287  -5.574  0.00  0.00     0.146 C 
ATOM      9  C21 NON d   1     -41.904  17.408  -4.375  0.00  0.00     0.146 C 
ATOM     10  C7  NON d   1     -44.321  18.846  -5.044  0.00  0.00     0.143 C 
ATOM     11  N1  NON d   1     -44.397  17.404  -4.708  0.00  0.00    -0.378 N 
ATOM     12  C22 NON d   1     -43.284  17.009  -3.807  0.00  0.00     0.143 C 
ATOM     13  O2  NON d   1     -39.558  18.679  -4.340  0.00  0.00    -0.266 OA
BRANCH  11  14
ATOM     14  C6  NON d   1     -45.682  16.866  -4.451  0.00  0.00     0.030 A 
ATOM     15  C5  NON d   1     -46.312  16.999  -3.200  0.00  0.00     0.030 A 
ATOM     16  C4  NON d   1     -47.600  16.495  -2.932  0.00  0.00     0.017 A 
ATOM     17  C3  NON d   1     -48.342  15.843  -3.920  0.00  0.00     0.009 A 
ATOM     18  C24 NON d   1     -47.770  15.721  -5.182  0.00  0.00     0.017 A 
ATOM     19  C23 NON d   1     -46.471  16.231  -5.435  0.00  0.00     0.030 A 
BRANCH  17  20
ATOM     20  C2  NON d   1     -49.696  15.309  -3.555  0.00  0.00     0.155 C 
ATOM     21  C1  NON d   1     -50.694  16.212  -2.807  0.00  0.00     0.096 C 
ATOM     22  O1  NON d   1     -49.997  14.162  -3.892  0.00  0.00    -0.293 OA
ENDBRANCH  17  20
ENDBRANCH  11  14
ENDBRANCH   1   6
BRANCH   4  23
ATOM     23  N3  NON d   1     -39.804  21.815  -9.122  0.00  0.00    -0.287 N 
ATOM     24  C13 NON d   1     -40.087  23.088  -9.587  0.00  0.00     0.326 C 
ATOM     25  O3  NON d   1     -40.407  24.038  -8.891  0.00  0.00    -0.247 OA
ATOM     26  N4  NON d   1     -39.935  23.128 -10.975  0.00  0.00    -0.309 N 
ATOM     27  H12 NON d   1     -39.808  22.241 -11.436  0.00  0.00     0.170 HD
ATOM     28  H11 NON d   1     -39.404  21.139  -9.747  0.00  0.00     0.172 HD
BRANCH  26  29
ATOM     29  C14 NON d   1     -40.017  24.246 -11.835  0.00  0.00     0.036 A 
ATOM     30  C15 NON d   1     -38.964  25.172 -11.777  0.00  0.00     0.029 A 
ATOM     31  C16 NON d   1     -38.964  26.310 -12.586  0.00  0.00     0.003 A 
ATOM     32  C17 NON d   1     -40.022  26.542 -13.460  0.00  0.00     0.007 A 
ATOM     33  C18 NON d   1     -41.092  25.642 -13.520  0.00  0.00    -0.060 A 
ATOM     34  C19 NON d   1     -42.219  25.870 -14.485  0.00  0.00     0.048 C 
ATOM     35  C20 NON d   1     -41.075  24.491 -12.711  0.00  0.00     0.036 A 
ENDBRANCH  26  29
ENDBRANCH   4  23
TORSDOF 5
ENDMDL
MODEL 7
REMARK VINA RESULT:    -9.856      1.995      2.160
REMARK INTER + INTRA:         -12.021
REMARK INTER:                 -11.348
REMARK INTRA:                  -0.673
REMARK CONF_INDEPENDENT:        1.492
REMARK UNBOUND:                -0.673
REMARK  5 active torsions:
REMARK  status: ('A' for Active; 'I' for Inactive)
REMARK    1  A    between atoms: C2_2  and  C3_4 
REMARK    2  A    between atoms: C6_7  and  N1_8 
REMARK       I    between atoms: N2_11  and  C9_12 
REMARK    3  A    between atoms: C9_12  and  C10_14 
REMARK    4  A    between atoms: C12_17  and  N3_18 
REMARK       I    between atoms: N3_18  and  C13_19 
REMARK       I    between atoms: C13_19  and  N4_21 
REMARK    5  A    between atoms: N4_21  and  C14_22 
ROOT
ATOM      1  C10 NON d   1     -45.315  16.554  -4.895  0.00  0.00     0.134 A 
ATOM      2  C11 NON d   1     -46.167  16.898  -5.930  0.00  0.00     0.090 A 
ATOM      3  S1  NON d   1     -47.817  16.748  -5.472  0.00  0.00    -0.061 SA
ATOM      4  C12 NON d   1     -47.324  16.335  -3.894  0.00  0.00     0.175 A 
ATOM      5  N5  NON d   1     -46.034  16.232  -3.715  0.00  0.00    -0.218 NA
ENDROOT
BRANCH   1   6
ATOM      6  C9  NON d   1     -43.820  16.566  -4.843  0.00  0.00     0.273 C 
ATOM      7  N2  NON d   1     -43.041  17.754  -4.797  0.00  0.00    -0.344 N 
ATOM      8  C8  NON d   1     -43.555  19.113  -4.686  0.00  0.00     0.146 C 
ATOM      9  C21 NON d   1     -41.672  17.586  -4.288  0.00  0.00     0.146 C 
ATOM     10  C7  NON d   1     -42.551  20.250  -4.986  0.00  0.00     0.143 C 
ATOM     11  N1  NON d   1     -41.228  20.060  -4.342  0.00  0.00    -0.378 N 
ATOM     12  C22 NON d   1     -40.679  18.714  -4.643  0.00  0.00     0.143 C 
ATOM     13  O2  NON d   1     -43.226  15.483  -4.824  0.00  0.00    -0.266 OA
BRANCH  11  14
ATOM     14  C6  NON d   1     -40.336  21.160  -4.360  0.00  0.00     0.030 A 
ATOM     15  C5  NON d   1     -40.759  22.471  -4.073  0.00  0.00     0.030 A 
ATOM     16  C4  NON d   1     -39.883  23.574  -4.060  0.00  0.00     0.017 A 
ATOM     17  C3  NON d   1     -38.518  23.418  -4.314  0.00  0.00     0.009 A 
ATOM     18  C24 NON d   1     -38.051  22.132  -4.567  0.00  0.00     0.017 A 
ATOM     19  C23 NON d   1     -38.947  21.032  -4.580  0.00  0.00     0.030 A 
BRANCH  17  20
ATOM     20  C2  NON d   1     -37.649  24.642  -4.308  0.00  0.00     0.155 C 
ATOM     21  C1  NON d   1     -38.193  25.958  -3.722  0.00  0.00     0.096 C 
ATOM     22  O1  NON d   1     -36.500  24.561  -4.746  0.00  0.00    -0.293 OA
ENDBRANCH  17  20
ENDBRANCH  11  14
ENDBRANCH   1   6
BRANCH   4  23
ATOM     23  N3  NON d   1     -48.382  16.180  -3.038  0.00  0.00    -0.287 N 
ATOM     24  C13 NON d   1     -49.552  16.916  -3.105  0.00  0.00     0.326 C 
ATOM     25  O3  NON d   1     -49.782  17.803  -3.912  0.00  0.00    -0.247 OA
ATOM     26  N4  NON d   1     -50.440  16.481  -2.120  0.00  0.00    -0.309 N 
ATOM     27  H12 NON d   1     -50.069  15.844  -1.434  0.00  0.00     0.170 HD
ATOM     28  H11 NON d   1     -48.340  15.373  -2.442  0.00  0.00     0.172 HD
BRANCH  26  29
ATOM     29  C14 NON d   1     -51.779  16.881  -1.906  0.00  0.00     0.036 A 
ATOM     30  C15 NON d   1     -52.773  16.169  -2.596  0.00  0.00     0.029 A 
ATOM     31  C16 NON d   1     -54.122  16.499  -2.450  0.00  0.00     0.003 A 
ATOM     32  C17 NON d   1     -54.496  17.550  -1.619  0.00  0.00     0.007 A 
ATOM     33  C18 NON d   1     -53.520  18.286  -0.937  0.00  0.00    -0.060 A 
ATOM     34  C19 NON d   1     -53.920  19.398  -0.013  0.00  0.00     0.048 C 
ATOM     35  C20 NON d   1     -52.165  17.936  -1.079  0.00  0.00     0.036 A 
ENDBRANCH  26  29
ENDBRANCH   4  23
TORSDOF 5
ENDMDL
MODEL 8
REMARK VINA RESULT:    -9.777      3.350      5.758
REMARK INTER + INTRA:         -12.061
REMARK INTER:                 -11.269
REMARK INTRA:                  -0.793
REMARK CONF_INDEPENDENT:        1.492
REMARK UNBOUND:                -0.793
REMARK  5 active torsions:
REMARK  status: ('A' for Active; 'I' for Inactive)
REMARK    1  A    between atoms: C2_2  and  C3_4 
REMARK    2  A    between atoms: C6_7  and  N1_8 
REMARK       I    between atoms: N2_11  and  C9_12 
REMARK    3  A    between atoms: C9_12  and  C10_14 
REMARK    4  A    between atoms: C12_17  and  N3_18 
REMARK       I    between atoms: N3_18  and  C13_19 
REMARK       I    between atoms: C13_19  and  N4_21 
REMARK    5  A    between atoms: N4_21  and  C14_22 
ROOT
ATOM      1  C10 NON d   1     -39.590  19.025  -5.000  0.00  0.00     0.134 A 
ATOM      2  C11 NON d   1     -39.345  19.450  -3.705  0.00  0.00     0.090 A 
ATOM      3  S1  NON d   1     -40.625  19.019  -2.642  0.00  0.00    -0.061 SA
ATOM      4  C12 NON d   1     -41.393  18.201  -3.925  0.00  0.00     0.175 A 
ATOM      5  N5  NON d   1     -40.803  18.293  -5.086  0.00  0.00    -0.218 NA
ENDROOT
BRANCH   1   6
ATOM      6  C9  NON d   1     -38.743  19.159  -6.225  0.00  0.00     0.273 C 
ATOM      7  N2  NON d   1     -39.064  20.012  -7.317  0.00  0.00    -0.344 N 
ATOM      8  C8  NON d   1     -40.178  20.949  -7.376  0.00  0.00     0.146 C 
ATOM      9  C21 NON d   1     -37.933  20.368  -8.186  0.00  0.00     0.146 C 
ATOM     10  C7  NON d   1     -40.520  21.518  -8.772  0.00  0.00     0.143 C 
ATOM     11  N1  NON d   1     -39.331  21.960  -9.540  0.00  0.00    -0.378 N 
ATOM     12  C22 NON d   1     -38.303  20.890  -9.591  0.00  0.00     0.143 C 
ATOM     13  O2  NON d   1     -37.697  18.505  -6.289  0.00  0.00    -0.266 OA
BRANCH  11  14
ATOM     14  C6  NON d   1     -39.565  22.713 -10.717  0.00  0.00     0.030 A 
ATOM     15  C5  NON d   1     -39.549  22.127 -11.996  0.00  0.00     0.030 A 
ATOM     16  C4  NON d   1     -39.805  22.853 -13.175  0.00  0.00     0.017 A 
ATOM     17  C3  NON d   1     -40.115  24.214 -13.135  0.00  0.00     0.009 A 
ATOM     18  C24 NON d   1     -40.176  24.826 -11.888  0.00  0.00     0.017 A 
ATOM     19  C23 NON d   1     -39.912  24.082 -10.709  0.00  0.00     0.030 A 
BRANCH  17  20
ATOM     20  C2  NON d   1     -40.350  24.928 -14.434  0.00  0.00     0.155 C 
ATOM     21  C1  NON d   1     -41.748  25.494 -14.750  0.00  0.00     0.096 C 
ATOM     22  O1  NON d   1     -39.408  25.077 -15.214  0.00  0.00    -0.293 OA
ENDBRANCH  17  20
ENDBRANCH  11  14
ENDBRANCH   1   6
BRANCH   4  23
ATOM     23  N3  NON d   1     -42.531  17.552  -3.526  0.00  0.00    -0.287 N 
ATOM     24  C13 NON d   1     -43.742  17.621  -4.193  0.00  0.00     0.326 C 
ATOM     25  O3  NON d   1     -43.956  18.279  -5.199  0.00  0.00    -0.247 OA
ATOM     26  N4  NON d   1     -44.681  16.812  -3.552  0.00  0.00    -0.309 N 
ATOM     27  H12 NON d   1     -44.412  16.440  -2.654  0.00  0.00     0.170 HD
ATOM     28  H11 NON d   1     -42.407  16.871  -2.798  0.00  0.00     0.172 HD
BRANCH  26  29
ATOM     29  C14 NON d   1     -45.999  16.506  -3.958  0.00  0.00     0.036 A 
ATOM     30  C15 NON d   1     -46.196  16.220  -5.318  0.00  0.00     0.029 A 
ATOM     31  C16 NON d   1     -47.467  15.913  -5.809  0.00  0.00     0.003 A 
ATOM     32  C17 NON d   1     -48.561  15.896  -4.948  0.00  0.00     0.007 A 
ATOM     33  C18 NON d   1     -48.391  16.198  -3.593  0.00  0.00    -0.060 A 
ATOM     34  C19 NON d   1     -49.561  16.147  -2.654  0.00  0.00     0.048 C 
ATOM     35  C20 NON d   1     -47.104  16.491  -3.105  0.00  0.00     0.036 A 
ENDBRANCH  26  29
ENDBRANCH   4  23
TORSDOF 5
ENDMDL
