MODEL 1
REMARK VINA RESULT:   -28.331      0.000      0.000
REMARK INTER + INTRA:         -32.350
REMARK INTER:                 -31.314
REMARK INTRA:                  -1.036
REMARK CONF_INDEPENDENT:        2.983
REMARK UNBOUND:                -1.036
REMARK  10 active torsions:
REMARK  status: ('A' for Active; 'I' for Inactive)
REMARK    1  A    between atoms: O1_2  and  C2_3 
REMARK    2  A    between atoms: C5_6  and  N1_7 
REMARK    3  A    between atoms: N1_7  and  C6_8 
REMARK    4  A    between atoms: C6_8  and  N2_10 
REMARK    5  A    between atoms: N2_10  and  N3_11 
REMARK       I    between atoms: N3_11  and  C7_12 
REMARK    6  A    between atoms: C7_12  and  C8_14 
REMARK    7  A    between atoms: C11_17  and  C12_18 
REMARK    8  A    between atoms: C12_18  and  O3_19 
REMARK    9  A    between atoms: O3_19  and  C13_20 
REMARK   10  A    between atoms: C23_31  and  O5_32 
ROOT
ATOM      1  N3  NON d   1     -47.065  16.505  -5.442  0.00  0.00    -0.127 NA
ATOM      2  C7  NON d   1     -46.376  16.850  -4.329  0.00  0.00     0.317 C 
ATOM      3  O2  NON d   1     -46.698  16.590  -3.170  0.00  0.00    -0.262 OA
ENDROOT
BRANCH   2   4
ATOM      4  C8  NON d   1     -45.132  17.594  -4.670  0.00  0.00     0.147 A 
ATOM      5  C9  NON d   1     -44.912  18.726  -5.444  0.00  0.00     0.045 A 
ATOM      6  C10 NON d   1     -43.525  19.019  -5.421  0.00  0.00     0.038 A 
ATOM      7  C11 NON d   1     -42.920  18.054  -4.642  0.00  0.00     0.078 A 
ATOM      8  O4  NON d   1     -43.890  17.188  -4.169  0.00  0.00    -0.307 OA
BRANCH   7   9
ATOM      9  C12 NON d   1     -41.481  17.803  -4.258  0.00  0.00     0.240 C 
BRANCH   9  10
ATOM     10  O3  NON d   1     -40.714  17.675  -5.474  0.00  0.00    -0.345 OA
BRANCH  10  11
ATOM     11  C13 NON d   1     -40.386  18.781  -6.217  0.00  0.00     0.070 A 
ATOM     12  C14 NON d   1     -39.918  18.491  -7.503  0.00  0.00     0.037 A 
ATOM     13  C15 NON d   1     -39.547  19.506  -8.390  0.00  0.00     0.015 A 
ATOM     14  C16 NON d   1     -39.632  20.850  -8.019  0.00  0.00    -0.026 A 
ATOM     15  C17 NON d   1     -39.262  21.881  -8.903  0.00  0.00     0.012 A 
ATOM     16  C21 NON d   1     -40.101  21.167  -6.721  0.00  0.00    -0.023 A 
ATOM     17  C18 NON d   1     -39.350  23.221  -8.524  0.00  0.00     0.001 A 
ATOM     18  C19 NON d   1     -39.807  23.543  -7.251  0.00  0.00     0.001 A 
ATOM     19  C20 NON d   1     -40.178  22.529  -6.361  0.00  0.00     0.012 A 
ATOM     20  C22 NON d   1     -40.474  20.120  -5.833  0.00  0.00     0.049 A 
ENDBRANCH  10  11
ENDBRANCH   9  10
ENDBRANCH   7   9
ENDBRANCH   2   4
BRANCH   1  21
ATOM     21  N2  NON d   1     -48.439  15.878  -5.262  0.00  0.00    -0.249 N 
ATOM     22  H7  NON d   1     -49.029  15.948  -6.084  0.00  0.00     0.191 HD
BRANCH  21  23
ATOM     23  C6  NON d   1     -48.810  15.284  -4.038  0.00  0.00     0.193 C 
ATOM     24  S1  NON d   1     -47.763  14.256  -3.193  0.00  0.00    -0.039 SA
BRANCH  23  25
ATOM     25  N1  NON d   1     -50.111  15.672  -3.601  0.00  0.00    -0.330 N 
ATOM     26  H6  NON d   1     -50.840  15.548  -4.290  0.00  0.00     0.168 HD
BRANCH  25  27
ATOM     27  C5  NON d   1     -50.470  16.457  -2.427  0.00  0.00     0.068 A 
ATOM     28  C4  NON d   1     -49.457  16.812  -1.522  0.00  0.00     0.035 A 
ATOM     29  C3  NON d   1     -49.696  17.628  -0.413  0.00  0.00     0.039 A 
ATOM     30  C2  NON d   1     -50.976  18.081  -0.134  0.00  0.00     0.070 A 
ATOM     31  C25 NON d   1     -52.027  17.683  -0.959  0.00  0.00     0.075 A 
ATOM     32  C23 NON d   1     -51.805  16.853  -2.080  0.00  0.00     0.097 A 
BRANCH  30  33
ATOM     33  O1  NON d   1     -51.073  18.883   0.969  0.00  0.00    -0.356 OA
ATOM     34  C1  NON d   1     -52.059  19.905   0.941  0.00  0.00     0.210 C 
ENDBRANCH  30  33
BRANCH  32  35
ATOM     35  O5  NON d   1     -52.879  16.443  -2.832  0.00  0.00    -0.354 OA
ATOM     36  C24 NON d   1     -54.301  16.879  -2.429  0.00  0.00     0.210 C 
ENDBRANCH  32  35
ENDBRANCH  25  27
ENDBRANCH  23  25
ENDBRANCH  21  23
ENDBRANCH   1  21
TORSDOF 10
ENDMDL
MODEL 2
REMARK VINA RESULT:   -27.709      2.367      3.180
REMARK INTER + INTRA:         -31.968
REMARK INTER:                 -30.692
REMARK INTRA:                  -1.277
REMARK CONF_INDEPENDENT:        2.983
REMARK UNBOUND:                -1.277
REMARK  10 active torsions:
REMARK  status: ('A' for Active; 'I' for Inactive)
REMARK    1  A    between atoms: O1_2  and  C2_3 
REMARK    2  A    between atoms: C5_6  and  N1_7 
REMARK    3  A    between atoms: N1_7  and  C6_8 
REMARK    4  A    between atoms: C6_8  and  N2_10 
REMARK    5  A    between atoms: N2_10  and  N3_11 
REMARK       I    between atoms: N3_11  and  C7_12 
REMARK    6  A    between atoms: C7_12  and  C8_14 
REMARK    7  A    between atoms: C11_17  and  C12_18 
REMARK    8  A    between atoms: C12_18  and  O3_19 
REMARK    9  A    between atoms: O3_19  and  C13_20 
REMARK   10  A    between atoms: C23_31  and  O5_32 
ROOT
ATOM      1  N3  NON d   1     -47.065  16.505  -5.440  0.00  0.00    -0.127 NA
ATOM      2  C7  NON d   1     -46.408  16.906  -4.327  0.00  0.00     0.317 C 
ATOM      3  O2  NON d   1     -46.773  16.724  -3.165  0.00  0.00    -0.262 OA
ENDROOT
BRANCH   2   4
ATOM      4  C8  NON d   1     -45.140  17.607  -4.669  0.00  0.00     0.147 A 
ATOM      5  C9  NON d   1     -44.883  18.740  -5.431  0.00  0.00     0.045 A 
ATOM      6  C10 NON d   1     -43.486  18.981  -5.416  0.00  0.00     0.038 A 
ATOM      7  C11 NON d   1     -42.912  17.984  -4.653  0.00  0.00     0.078 A 
ATOM      8  O4  NON d   1     -43.910  17.150  -4.183  0.00  0.00    -0.307 OA
BRANCH   7   9
ATOM      9  C12 NON d   1     -41.480  17.676  -4.285  0.00  0.00     0.240 C 
BRANCH   9  10
ATOM     10  O3  NON d   1     -40.668  18.803  -4.677  0.00  0.00    -0.345 OA
BRANCH  10  11
ATOM     11  C13 NON d   1     -40.540  19.895  -3.857  0.00  0.00     0.070 A 
ATOM     12  C14 NON d   1     -40.855  21.113  -4.468  0.00  0.00     0.037 A 
ATOM     13  C15 NON d   1     -40.782  22.321  -3.768  0.00  0.00     0.015 A 
ATOM     14  C16 NON d   1     -40.390  22.351  -2.426  0.00  0.00    -0.026 A 
ATOM     15  C17 NON d   1     -40.314  23.560  -1.711  0.00  0.00     0.012 A 
ATOM     16  C21 NON d   1     -40.065  21.130  -1.788  0.00  0.00    -0.023 A 
ATOM     17  C18 NON d   1     -39.921  23.581  -0.372  0.00  0.00     0.001 A 
ATOM     18  C19 NON d   1     -39.598  22.388   0.265  0.00  0.00     0.001 A 
ATOM     19  C20 NON d   1     -39.669  21.177  -0.435  0.00  0.00     0.012 A 
ATOM     20  C22 NON d   1     -40.146  19.911  -2.517  0.00  0.00     0.049 A 
ENDBRANCH  10  11
ENDBRANCH   9  10
ENDBRANCH   7   9
ENDBRANCH   2   4
BRANCH   1  21
ATOM     21  N2  NON d   1     -48.455  15.913  -5.270  0.00  0.00    -0.249 N 
ATOM     22  H7  NON d   1     -49.043  16.010  -6.091  0.00  0.00     0.191 HD
BRANCH  21  23
ATOM     23  C6  NON d   1     -48.844  15.312  -4.054  0.00  0.00     0.193 C 
ATOM     24  S1  NON d   1     -47.820  14.255  -3.216  0.00  0.00    -0.039 SA
BRANCH  23  25
ATOM     25  N1  NON d   1     -50.140  15.718  -3.619  0.00  0.00    -0.330 N 
ATOM     26  H6  NON d   1     -50.865  15.625  -4.316  0.00  0.00     0.168 HD
BRANCH  25  27
ATOM     27  C5  NON d   1     -50.490  16.486  -2.431  0.00  0.00     0.068 A 
ATOM     28  C4  NON d   1     -49.471  16.830  -1.529  0.00  0.00     0.035 A 
ATOM     29  C3  NON d   1     -49.703  17.630  -0.407  0.00  0.00     0.039 A 
ATOM     30  C2  NON d   1     -50.982  18.077  -0.112  0.00  0.00     0.070 A 
ATOM     31  C25 NON d   1     -52.038  17.689  -0.934  0.00  0.00     0.075 A 
ATOM     32  C23 NON d   1     -51.824  16.875  -2.068  0.00  0.00     0.097 A 
BRANCH  30  33
ATOM     33  O1  NON d   1     -51.071  18.863   1.003  0.00  0.00    -0.356 OA
ATOM     34  C1  NON d   1     -52.014  19.925   0.972  0.00  0.00     0.210 C 
ENDBRANCH  30  33
BRANCH  32  35
ATOM     35  O5  NON d   1     -52.903  16.475  -2.818  0.00  0.00    -0.354 OA
ATOM     36  C24 NON d   1     -54.307  17.008  -2.476  0.00  0.00     0.210 C 
ENDBRANCH  32  35
ENDBRANCH  25  27
ENDBRANCH  23  25
ENDBRANCH  21  23
ENDBRANCH   1  21
TORSDOF 10
ENDMDL
