MODEL 1
REMARK VINA RESULT:   -31.571      0.000      0.000
REMARK INTER + INTRA:         -35.033
REMARK INTER:                 -33.660
REMARK INTRA:                  -1.373
REMARK CONF_INDEPENDENT:        2.088
REMARK UNBOUND:                -1.373
REMARK  7 active torsions:
REMARK  status: ('A' for Active; 'I' for Inactive)
REMARK    1  A    between atoms: C5_5  and  N1_6 
REMARK    2  A    between atoms: N1_6  and  N2_7 
REMARK       I    between atoms: N2_7  and  C6_8 
REMARK       I    between atoms: C6_8  and  N3_10 
REMARK    3  A    between atoms: C7_11  and  N3_10 
REMARK    4  A    between atoms: C9_13  and  C10_14 
REMARK    5  A    between atoms: C13_17  and  O2_18 
REMARK    6  A    between atoms: O2_18  and  C14_19 
REMARK    7  A    between atoms: C14_19  and  C15_20 
ROOT
ATOM      1  C7  NON d   1     -41.113  19.234  -3.763  0.00  0.00     0.095 A 
ATOM      2  C8  NON d   1     -40.281  19.700  -4.925  0.00  0.00     0.037 A 
ATOM      3  C9  NON d   1     -41.298  20.643  -4.333  0.00  0.00     0.043 A 
ENDROOT
BRANCH   1   4
ATOM      4  N3  NON d   1     -42.123  18.195  -3.908  0.00  0.00    -0.337 N 
ATOM      5  C6  NON d   1     -43.382  18.394  -4.461  0.00  0.00     0.331 C 
ATOM      6  N2  NON d   1     -44.097  17.197  -4.672  0.00  0.00    -0.267 N 
ATOM      7  O1  NON d   1     -43.860  19.501  -4.710  0.00  0.00    -0.246 OA
ATOM      8  H7  NON d   1     -43.577  16.369  -4.947  0.00  0.00     0.186 HD
ATOM      9  H8  NON d   1     -41.871  17.253  -3.642  0.00  0.00     0.164 HD
BRANCH   6  10
ATOM     10  N1  NON d   1     -45.332  17.351  -5.403  0.00  0.00    -0.183 NA
ATOM     11  H6  NON d   1     -45.565  18.342  -5.484  0.00  0.00     0.154 HD
BRANCH  10  12
ATOM     12  C5  NON d   1     -46.451  16.569  -4.983  0.00  0.00     0.143 A 
ATOM     13  C4  NON d   1     -46.649  16.369  -3.613  0.00  0.00     0.050 A 
ATOM     14  C3  NON d   1     -47.807  15.729  -3.106  0.00  0.00     0.032 A 
ATOM     15  C2  NON d   1     -48.800  15.316  -3.977  0.00  0.00     0.053 A 
ATOM     16  C1  NON d   1     -50.128  14.667  -3.545  0.00  0.00     0.072 C 
ATOM     17  N5  NON d   1     -48.587  15.496  -5.305  0.00  0.00    -0.154 NA
ATOM     18  N4  NON d   1     -47.417  16.136  -5.810  0.00  0.00    -0.136 NA
ENDBRANCH  10  12
ENDBRANCH   6  10
ENDBRANCH   1   4
BRANCH   3  19
ATOM     19  C10 NON d   1     -40.845  21.917  -3.610  0.00  0.00    -0.052 A 
ATOM     20  C11 NON d   1     -41.348  23.200  -3.919  0.00  0.00     0.010 A 
ATOM     21  C12 NON d   1     -41.040  24.347  -3.151  0.00  0.00     0.037 A 
ATOM     22  C13 NON d   1     -40.220  24.241  -2.032  0.00  0.00     0.069 A 
ATOM     23  C21 NON d   1     -39.683  22.989  -1.728  0.00  0.00     0.037 A 
ATOM     24  C22 NON d   1     -39.990  21.852  -2.500  0.00  0.00     0.010 A 
BRANCH  22  25
ATOM     25  O2  NON d   1     -39.870  25.247  -1.170  0.00  0.00    -0.347 OA
BRANCH  25  26
ATOM     26  C14 NON d   1     -40.913  26.063  -0.619  0.00  0.00     0.214 C 
BRANCH  26  27
ATOM     27  C15 NON d   1     -41.043  25.881   0.890  0.00  0.00    -0.034 A 
ATOM     28  C16 NON d   1     -41.496  26.953   1.681  0.00  0.00     0.009 A 
ATOM     29  C17 NON d   1     -41.670  26.805   3.062  0.00  0.00     0.001 A 
ATOM     30  C18 NON d   1     -41.399  25.584   3.675  0.00  0.00     0.000 A 
ATOM     31  C19 NON d   1     -40.960  24.511   2.904  0.00  0.00     0.001 A 
ATOM     32  C20 NON d   1     -40.788  24.656   1.523  0.00  0.00     0.009 A 
ENDBRANCH  26  27
ENDBRANCH  25  26
ENDBRANCH  22  25
ENDBRANCH   3  19
TORSDOF 7
ENDMDL
MODEL 2
REMARK VINA RESULT:   -31.555      5.410      9.143
REMARK INTER + INTRA:         -34.762
REMARK INTER:                 -33.643
REMARK INTRA:                  -1.119
REMARK CONF_INDEPENDENT:        2.088
REMARK UNBOUND:                -1.119
REMARK  7 active torsions:
REMARK  status: ('A' for Active; 'I' for Inactive)
REMARK    1  A    between atoms: C5_5  and  N1_6 
REMARK    2  A    between atoms: N1_6  and  N2_7 
REMARK       I    between atoms: N2_7  and  C6_8 
REMARK       I    between atoms: C6_8  and  N3_10 
REMARK    3  A    between atoms: C7_11  and  N3_10 
REMARK    4  A    between atoms: C9_13  and  C10_14 
REMARK    5  A    between atoms: C13_17  and  O2_18 
REMARK    6  A    between atoms: O2_18  and  C14_19 
REMARK    7  A    between atoms: C14_19  and  C15_20 
ROOT
ATOM      1  C7  NON d   1     -40.892  19.094  -4.811  0.00  0.00     0.095 A 
ATOM      2  C8  NON d   1     -39.542  18.716  -4.268  0.00  0.00     0.037 A 
ATOM      3  C9  NON d   1     -39.835  18.467  -5.726  0.00  0.00     0.043 A 
ENDROOT
BRANCH   1   4
ATOM      4  N3  NON d   1     -42.103  18.387  -4.421  0.00  0.00    -0.337 N 
ATOM      5  C6  NON d   1     -43.343  18.555  -5.027  0.00  0.00     0.331 C 
ATOM      6  N2  NON d   1     -44.305  17.615  -4.603  0.00  0.00    -0.267 N 
ATOM      7  O1  NON d   1     -43.604  19.454  -5.825  0.00  0.00    -0.246 OA
ATOM      8  H7  NON d   1     -43.996  16.670  -4.397  0.00  0.00     0.186 HD
ATOM      9  H8  NON d   1     -42.025  17.684  -3.699  0.00  0.00     0.164 HD
BRANCH   6  10
ATOM     10  N1  NON d   1     -45.548  17.650  -5.338  0.00  0.00    -0.183 NA
ATOM     11  H6  NON d   1     -45.893  18.610  -5.390  0.00  0.00     0.154 HD
BRANCH  10  12
ATOM     12  C5  NON d   1     -46.570  16.732  -4.951  0.00  0.00     0.143 A 
ATOM     13  C4  NON d   1     -46.807  16.534  -3.587  0.00  0.00     0.050 A 
ATOM     14  C3  NON d   1     -47.893  15.753  -3.118  0.00  0.00     0.032 A 
ATOM     15  C2  NON d   1     -48.777  15.192  -4.022  0.00  0.00     0.053 A 
ATOM     16  C1  NON d   1     -50.025  14.378  -3.636  0.00  0.00     0.072 C 
ATOM     17  N5  NON d   1     -48.524  15.374  -5.343  0.00  0.00    -0.154 NA
ATOM     18  N4  NON d   1     -47.427  16.156  -5.810  0.00  0.00    -0.136 NA
ENDBRANCH  10  12
ENDBRANCH   6  10
ENDBRANCH   1   4
BRANCH   3  19
ATOM     19  C10 NON d   1     -39.083  19.246  -6.812  0.00  0.00    -0.052 A 
ATOM     20  C11 NON d   1     -37.745  18.973  -7.171  0.00  0.00     0.010 A 
ATOM     21  C12 NON d   1     -37.108  19.590  -8.272  0.00  0.00     0.037 A 
ATOM     22  C13 NON d   1     -37.801  20.501  -9.062  0.00  0.00     0.069 A 
ATOM     23  C21 NON d   1     -39.115  20.813  -8.705  0.00  0.00     0.037 A 
ATOM     24  C22 NON d   1     -39.741  20.198  -7.605  0.00  0.00     0.010 A 
BRANCH  22  25
ATOM     25  O2  NON d   1     -37.336  21.143 -10.179  0.00  0.00    -0.347 OA
BRANCH  25  26
ATOM     26  C14 NON d   1     -36.336  20.489 -10.973  0.00  0.00     0.214 C 
BRANCH  26  27
ATOM     27  C15 NON d   1     -36.530  20.751 -12.463  0.00  0.00    -0.034 A 
ATOM     28  C16 NON d   1     -36.195  19.749 -13.392  0.00  0.00     0.009 A 
ATOM     29  C17 NON d   1     -36.402  19.940 -14.763  0.00  0.00     0.001 A 
ATOM     30  C18 NON d   1     -36.952  21.132 -15.228  0.00  0.00     0.000 A 
ATOM     31  C19 NON d   1     -37.299  22.129 -14.320  0.00  0.00     0.001 A 
ATOM     32  C20 NON d   1     -37.094  21.939 -12.949  0.00  0.00     0.009 A 
ENDBRANCH  26  27
ENDBRANCH  25  26
ENDBRANCH  22  25
ENDBRANCH   3  19
TORSDOF 7
ENDMDL
MODEL 3
REMARK VINA RESULT:   -31.547      5.449      7.709
REMARK INTER + INTRA:         -35.067
REMARK INTER:                 -33.635
REMARK INTRA:                  -1.432
REMARK CONF_INDEPENDENT:        2.088
REMARK UNBOUND:                -1.432
REMARK  7 active torsions:
REMARK  status: ('A' for Active; 'I' for Inactive)
REMARK    1  A    between atoms: C5_5  and  N1_6 
REMARK    2  A    between atoms: N1_6  and  N2_7 
REMARK       I    between atoms: N2_7  and  C6_8 
REMARK       I    between atoms: C6_8  and  N3_10 
REMARK    3  A    between atoms: C7_11  and  N3_10 
REMARK    4  A    between atoms: C9_13  and  C10_14 
REMARK    5  A    between atoms: C13_17  and  O2_18 
REMARK    6  A    between atoms: O2_18  and  C14_19 
REMARK    7  A    between atoms: C14_19  and  C15_20 
ROOT
ATOM      1  C7  NON d   1     -40.809  18.969  -4.809  0.00  0.00     0.095 A 
ATOM      2  C8  NON d   1     -39.402  18.459  -4.674  0.00  0.00     0.037 A 
ATOM      3  C9  NON d   1     -39.913  18.828  -6.043  0.00  0.00     0.043 A 
ENDROOT
BRANCH   1   4
ATOM      4  N3  NON d   1     -41.963  18.111  -4.582  0.00  0.00    -0.337 N 
ATOM      5  C6  NON d   1     -43.257  18.406  -4.995  0.00  0.00     0.331 C 
ATOM      6  N2  NON d   1     -44.155  17.331  -4.834  0.00  0.00    -0.267 N 
ATOM      7  O1  NON d   1     -43.611  19.504  -5.423  0.00  0.00    -0.246 OA
ATOM      8  H7  NON d   1     -43.808  16.388  -4.981  0.00  0.00     0.186 HD
ATOM      9  H8  NON d   1     -41.804  17.213  -4.145  0.00  0.00     0.164 HD
BRANCH   6  10
ATOM     10  N1  NON d   1     -45.461  17.543  -5.413  0.00  0.00    -0.183 NA
ATOM     11  H6  NON d   1     -45.714  18.531  -5.345  0.00  0.00     0.154 HD
BRANCH  10  12
ATOM     12  C5  NON d   1     -46.521  16.687  -4.985  0.00  0.00     0.143 A 
ATOM     13  C4  NON d   1     -46.743  16.535  -3.613  0.00  0.00     0.050 A 
ATOM     14  C3  NON d   1     -47.857  15.820  -3.106  0.00  0.00     0.032 A 
ATOM     15  C2  NON d   1     -48.783  15.281  -3.981  0.00  0.00     0.053 A 
ATOM     16  C1  NON d   1     -50.063  14.540  -3.553  0.00  0.00     0.072 C 
ATOM     17  N5  NON d   1     -48.545  15.417  -5.310  0.00  0.00    -0.154 NA
ATOM     18  N4  NON d   1     -47.420  16.132  -5.815  0.00  0.00    -0.136 NA
ENDBRANCH  10  12
ENDBRANCH   6  10
ENDBRANCH   1   4
BRANCH   3  19
ATOM     19  C10 NON d   1     -39.315  20.021  -6.798  0.00  0.00    -0.052 A 
ATOM     20  C11 NON d   1     -37.976  20.059  -7.244  0.00  0.00     0.010 A 
ATOM     21  C12 NON d   1     -37.474  21.093  -8.068  0.00  0.00     0.037 A 
ATOM     22  C13 NON d   1     -38.308  22.125  -8.484  0.00  0.00     0.069 A 
ATOM     23  C21 NON d   1     -39.628  22.127  -8.027  0.00  0.00     0.037 A 
ATOM     24  C22 NON d   1     -40.120  21.096  -7.204  0.00  0.00     0.010 A 
BRANCH  22  25
ATOM     25  O2  NON d   1     -37.981  23.165  -9.313  0.00  0.00    -0.347 OA
BRANCH  25  26
ATOM     26  C14 NON d   1     -38.995  24.130  -9.627  0.00  0.00     0.214 C 
BRANCH  26  27
ATOM     27  C15 NON d   1     -39.562  23.926 -11.028  0.00  0.00    -0.034 A 
ATOM     28  C16 NON d   1     -40.334  24.944 -11.618  0.00  0.00     0.009 A 
ATOM     29  C17 NON d   1     -40.830  24.808 -12.919  0.00  0.00     0.001 A 
ATOM     30  C18 NON d   1     -40.561  23.657 -13.655  0.00  0.00     0.000 A 
ATOM     31  C19 NON d   1     -39.790  22.645 -13.089  0.00  0.00     0.001 A 
ATOM     32  C20 NON d   1     -39.290  22.780 -11.789  0.00  0.00     0.009 A 
ENDBRANCH  26  27
ENDBRANCH  25  26
ENDBRANCH  22  25
ENDBRANCH   3  19
TORSDOF 7
ENDMDL
MODEL 4
REMARK VINA RESULT:   -31.223      1.576      2.022
REMARK INTER + INTRA:         -34.882
REMARK INTER:                 -33.311
REMARK INTRA:                  -1.570
REMARK CONF_INDEPENDENT:        2.088
REMARK UNBOUND:                -1.570
REMARK  7 active torsions:
REMARK  status: ('A' for Active; 'I' for Inactive)
REMARK    1  A    between atoms: C5_5  and  N1_6 
REMARK    2  A    between atoms: N1_6  and  N2_7 
REMARK       I    between atoms: N2_7  and  C6_8 
REMARK       I    between atoms: C6_8  and  N3_10 
REMARK    3  A    between atoms: C7_11  and  N3_10 
REMARK    4  A    between atoms: C9_13  and  C10_14 
REMARK    5  A    between atoms: C13_17  and  O2_18 
REMARK    6  A    between atoms: O2_18  and  C14_19 
REMARK    7  A    between atoms: C14_19  and  C15_20 
ROOT
ATOM      1  C7  NON d   1     -40.772  19.011  -4.337  0.00  0.00     0.095 A 
ATOM      2  C8  NON d   1     -40.717  20.158  -5.307  0.00  0.00     0.037 A 
ATOM      3  C9  NON d   1     -40.928  20.453  -3.844  0.00  0.00     0.043 A 
ENDROOT
BRANCH   1   4
ATOM      4  N3  NON d   1     -41.876  18.062  -4.331  0.00  0.00    -0.337 N 
ATOM      5  C6  NON d   1     -43.169  18.355  -4.749  0.00  0.00     0.331 C 
ATOM      6  N2  NON d   1     -44.001  17.220  -4.834  0.00  0.00    -0.267 N 
ATOM      7  O1  NON d   1     -43.577  19.492  -4.985  0.00  0.00    -0.246 OA
ATOM      8  H7  NON d   1     -43.587  16.342  -5.135  0.00  0.00     0.186 HD
ATOM      9  H8  NON d   1     -41.676  17.109  -4.059  0.00  0.00     0.164 HD
BRANCH   6  10
ATOM     10  N1  NON d   1     -45.294  17.462  -5.430  0.00  0.00    -0.183 NA
ATOM     11  H6  NON d   1     -45.514  18.459  -5.388  0.00  0.00     0.154 HD
BRANCH  10  12
ATOM     12  C5  NON d   1     -46.386  16.652  -4.992  0.00  0.00     0.143 A 
ATOM     13  C4  NON d   1     -46.591  16.497  -3.617  0.00  0.00     0.050 A 
ATOM     14  C3  NON d   1     -47.729  15.831  -3.097  0.00  0.00     0.032 A 
ATOM     15  C2  NON d   1     -48.695  15.346  -3.960  0.00  0.00     0.053 A 
ATOM     16  C1  NON d   1     -50.001  14.663  -3.516  0.00  0.00     0.072 C 
ATOM     17  N5  NON d   1     -48.474  15.485  -5.292  0.00  0.00    -0.154 NA
ATOM     18  N4  NON d   1     -47.325  16.150  -5.810  0.00  0.00    -0.136 NA
ENDBRANCH  10  12
ENDBRANCH   6  10
ENDBRANCH   1   4
BRANCH   3  19
ATOM     19  C10 NON d   1     -39.853  21.195  -3.041  0.00  0.00    -0.052 A 
ATOM     20  C11 NON d   1     -39.682  22.596  -3.090  0.00  0.00     0.010 A 
ATOM     21  C12 NON d   1     -38.793  23.288  -2.236  0.00  0.00     0.037 A 
ATOM     22  C13 NON d   1     -38.049  22.594  -1.289  0.00  0.00     0.069 A 
ATOM     23  C21 NON d   1     -38.175  21.204  -1.244  0.00  0.00     0.037 A 
ATOM     24  C22 NON d   1     -39.059  20.521  -2.101  0.00  0.00     0.010 A 
BRANCH  22  25
ATOM     25  O2  NON d   1     -37.185  23.126  -0.368  0.00  0.00    -0.347 OA
BRANCH  25  26
ATOM     26  C14 NON d   1     -37.318  22.723   1.002  0.00  0.00     0.214 C 
BRANCH  26  27
ATOM     27  C15 NON d   1     -38.644  23.181   1.604  0.00  0.00    -0.034 A 
ATOM     28  C16 NON d   1     -38.671  24.314   2.437  0.00  0.00     0.009 A 
ATOM     29  C17 NON d   1     -39.876  24.788   2.968  0.00  0.00     0.001 A 
ATOM     30  C18 NON d   1     -41.073  24.141   2.674  0.00  0.00     0.000 A 
ATOM     31  C19 NON d   1     -41.064  23.024   1.843  0.00  0.00     0.001 A 
ATOM     32  C20 NON d   1     -39.860  22.550   1.308  0.00  0.00     0.009 A 
ENDBRANCH  26  27
ENDBRANCH  25  26
ENDBRANCH  22  25
ENDBRANCH   3  19
TORSDOF 7
ENDMDL
MODEL 5
REMARK VINA RESULT:   -30.973      1.571      2.186
REMARK INTER + INTRA:         -34.931
REMARK INTER:                 -33.061
REMARK INTRA:                  -1.870
REMARK CONF_INDEPENDENT:        2.088
REMARK UNBOUND:                -1.870
REMARK  7 active torsions:
REMARK  status: ('A' for Active; 'I' for Inactive)
REMARK    1  A    between atoms: C5_5  and  N1_6 
REMARK    2  A    between atoms: N1_6  and  N2_7 
REMARK       I    between atoms: N2_7  and  C6_8 
REMARK       I    between atoms: C6_8  and  N3_10 
REMARK    3  A    between atoms: C7_11  and  N3_10 
REMARK    4  A    between atoms: C9_13  and  C10_14 
REMARK    5  A    between atoms: C13_17  and  O2_18 
REMARK    6  A    between atoms: O2_18  and  C14_19 
REMARK    7  A    between atoms: C14_19  and  C15_20 
ROOT
ATOM      1  C7  NON d   1     -40.780  18.740  -4.276  0.00  0.00     0.095 A 
ATOM      2  C8  NON d   1     -39.693  18.772  -5.313  0.00  0.00     0.037 A 
ATOM      3  C9  NON d   1     -40.631  19.947  -5.208  0.00  0.00     0.043 A 
ENDROOT
BRANCH   1   4
ATOM      4  N3  NON d   1     -41.903  17.819  -4.368  0.00  0.00    -0.337 N 
ATOM      5  C6  NON d   1     -43.208  18.195  -4.664  0.00  0.00     0.331 C 
ATOM      6  N2  NON d   1     -44.069  17.102  -4.891  0.00  0.00    -0.267 N 
ATOM      7  O1  NON d   1     -43.601  19.361  -4.690  0.00  0.00    -0.246 OA
ATOM      8  H7  NON d   1     -43.690  16.279  -5.352  0.00  0.00     0.186 HD
ATOM      9  H8  NON d   1     -41.712  16.832  -4.266  0.00  0.00     0.164 HD
BRANCH   6  10
ATOM     10  N1  NON d   1     -45.384  17.457  -5.372  0.00  0.00    -0.183 NA
ATOM     11  H6  NON d   1     -45.560  18.448  -5.197  0.00  0.00     0.154 HD
BRANCH  10  12
ATOM     12  C5  NON d   1     -46.480  16.637  -4.965  0.00  0.00     0.143 A 
ATOM     13  C4  NON d   1     -46.719  16.473  -3.597  0.00  0.00     0.050 A 
ATOM     14  C3  NON d   1     -47.865  15.796  -3.109  0.00  0.00     0.032 A 
ATOM     15  C2  NON d   1     -48.804  15.307  -4.000  0.00  0.00     0.053 A 
ATOM     16  C1  NON d   1     -50.116  14.611  -3.594  0.00  0.00     0.072 C 
ATOM     17  N5  NON d   1     -48.550  15.453  -5.325  0.00  0.00    -0.154 NA
ATOM     18  N4  NON d   1     -47.393  16.131  -5.810  0.00  0.00    -0.136 NA
ENDBRANCH  10  12
ENDBRANCH   6  10
ENDBRANCH   1   4
BRANCH   3  19
ATOM     19  C10 NON d   1     -40.112  21.314  -4.748  0.00  0.00    -0.052 A 
ATOM     20  C11 NON d   1     -40.953  22.430  -4.542  0.00  0.00     0.010 A 
ATOM     21  C12 NON d   1     -40.492  23.640  -3.976  0.00  0.00     0.037 A 
ATOM     22  C13 NON d   1     -39.164  23.769  -3.583  0.00  0.00     0.069 A 
ATOM     23  C21 NON d   1     -38.305  22.692  -3.809  0.00  0.00     0.037 A 
ATOM     24  C22 NON d   1     -38.771  21.491  -4.378  0.00  0.00     0.010 A 
BRANCH  22  25
ATOM     25  O2  NON d   1     -38.585  24.856  -2.984  0.00  0.00    -0.347 OA
BRANCH  25  26
ATOM     26  C14 NON d   1     -38.125  24.722  -1.632  0.00  0.00     0.214 C 
BRANCH  26  27
ATOM     27  C15 NON d   1     -39.140  23.997  -0.753  0.00  0.00    -0.034 A 
ATOM     28  C16 NON d   1     -38.923  22.649  -0.414  0.00  0.00     0.009 A 
ATOM     29  C17 NON d   1     -39.810  21.967   0.427  0.00  0.00     0.001 A 
ATOM     30  C18 NON d   1     -40.924  22.621   0.947  0.00  0.00     0.000 A 
ATOM     31  C19 NON d   1     -41.147  23.958   0.628  0.00  0.00     0.001 A 
ATOM     32  C20 NON d   1     -40.260  24.642  -0.210  0.00  0.00     0.009 A 
ENDBRANCH  26  27
ENDBRANCH  25  26
ENDBRANCH  22  25
ENDBRANCH   3  19
TORSDOF 7
ENDMDL
MODEL 6
REMARK VINA RESULT:   -30.500      5.311      7.917
REMARK INTER + INTRA:         -34.036
REMARK INTER:                 -32.588
REMARK INTRA:                  -1.448
REMARK CONF_INDEPENDENT:        2.088
REMARK UNBOUND:                -1.448
REMARK  7 active torsions:
REMARK  status: ('A' for Active; 'I' for Inactive)
REMARK    1  A    between atoms: C5_5  and  N1_6 
REMARK    2  A    between atoms: N1_6  and  N2_7 
REMARK       I    between atoms: N2_7  and  C6_8 
REMARK       I    between atoms: C6_8  and  N3_10 
REMARK    3  A    between atoms: C7_11  and  N3_10 
REMARK    4  A    between atoms: C9_13  and  C10_14 
REMARK    5  A    between atoms: C13_17  and  O2_18 
REMARK    6  A    between atoms: O2_18  and  C14_19 
REMARK    7  A    between atoms: C14_19  and  C15_20 
ROOT
ATOM      1  C7  NON d   1     -43.089  18.967  -5.383  0.00  0.00     0.095 A 
ATOM      2  C8  NON d   1     -42.111  19.576  -4.418  0.00  0.00     0.037 A 
ATOM      3  C9  NON d   1     -41.583  18.756  -5.567  0.00  0.00     0.043 A 
ENDROOT
BRANCH   1   4
ATOM      4  N3  NON d   1     -43.984  17.888  -4.991  0.00  0.00    -0.337 N 
ATOM      5  C6  NON d   1     -45.248  17.679  -5.530  0.00  0.00     0.331 C 
ATOM      6  N2  NON d   1     -45.833  16.459  -5.133  0.00  0.00    -0.267 N 
ATOM      7  O1  NON d   1     -45.833  18.487  -6.253  0.00  0.00    -0.246 OA
ATOM      8  H7  NON d   1     -45.226  15.654  -5.006  0.00  0.00     0.186 HD
ATOM      9  H8  NON d   1     -43.642  17.211  -4.324  0.00  0.00     0.164 HD
BRANCH   6  10
ATOM     10  N1  NON d   1     -47.065  16.131  -5.810  0.00  0.00    -0.183 NA
ATOM     11  H6  NON d   1     -47.302  16.869  -6.475  0.00  0.00     0.154 HD
BRANCH  10  12
ATOM     12  C5  NON d   1     -48.182  15.755  -5.004  0.00  0.00     0.143 A 
ATOM     13  C4  NON d   1     -48.553  16.592  -3.946  0.00  0.00     0.050 A 
ATOM     14  C3  NON d   1     -49.730  16.370  -3.189  0.00  0.00     0.032 A 
ATOM     15  C2  NON d   1     -50.569  15.319  -3.515  0.00  0.00     0.053 A 
ATOM     16  C1  NON d   1     -51.903  15.012  -2.810  0.00  0.00     0.072 C 
ATOM     17  N5  NON d   1     -50.187  14.502  -4.529  0.00  0.00    -0.154 NA
ATOM     18  N4  NON d   1     -48.999  14.726  -5.285  0.00  0.00    -0.136 NA
ENDBRANCH  10  12
ENDBRANCH   6  10
ENDBRANCH   1   4
BRANCH   3  19
ATOM     19  C10 NON d   1     -40.763  19.419  -6.680  0.00  0.00    -0.052 A 
ATOM     20  C11 NON d   1     -39.670  18.789  -7.314  0.00  0.00     0.010 A 
ATOM     21  C12 NON d   1     -39.016  19.342  -8.439  0.00  0.00     0.037 A 
ATOM     22  C13 NON d   1     -39.448  20.550  -8.976  0.00  0.00     0.069 A 
ATOM     23  C21 NON d   1     -40.505  21.209  -8.346  0.00  0.00     0.037 A 
ATOM     24  C22 NON d   1     -41.149  20.654  -7.223  0.00  0.00     0.010 A 
BRANCH  22  25
ATOM     25  O2  NON d   1     -38.946  21.185 -10.082  0.00  0.00    -0.347 OA
BRANCH  25  26
ATOM     26  C14 NON d   1     -38.585  22.568  -9.966  0.00  0.00     0.214 C 
BRANCH  26  27
ATOM     27  C15 NON d   1     -39.162  23.405 -11.104  0.00  0.00    -0.034 A 
ATOM     28  C16 NON d   1     -39.174  24.808 -10.994  0.00  0.00     0.009 A 
ATOM     29  C17 NON d   1     -39.652  25.607 -12.039  0.00  0.00     0.001 A 
ATOM     30  C18 NON d   1     -40.122  25.020 -13.211  0.00  0.00     0.000 A 
ATOM     31  C19 NON d   1     -40.107  23.633 -13.339  0.00  0.00     0.001 A 
ATOM     32  C20 NON d   1     -39.626  22.833 -12.297  0.00  0.00     0.009 A 
ENDBRANCH  26  27
ENDBRANCH  25  26
ENDBRANCH  22  25
ENDBRANCH   3  19
TORSDOF 7
ENDMDL
MODEL 7
REMARK VINA RESULT:   -30.365      5.114      6.112
REMARK INTER + INTRA:         -34.040
REMARK INTER:                 -32.453
REMARK INTRA:                  -1.587
REMARK CONF_INDEPENDENT:        2.088
REMARK UNBOUND:                -1.587
REMARK  7 active torsions:
REMARK  status: ('A' for Active; 'I' for Inactive)
REMARK    1  A    between atoms: C5_5  and  N1_6 
REMARK    2  A    between atoms: N1_6  and  N2_7 
REMARK       I    between atoms: N2_7  and  C6_8 
REMARK       I    between atoms: C6_8  and  N3_10 
REMARK    3  A    between atoms: C7_11  and  N3_10 
REMARK    4  A    between atoms: C9_13  and  C10_14 
REMARK    5  A    between atoms: C13_17  and  O2_18 
REMARK    6  A    between atoms: O2_18  and  C14_19 
REMARK    7  A    between atoms: C14_19  and  C15_20 
ROOT
ATOM      1  C7  NON d   1     -40.737  19.078  -4.567  0.00  0.00     0.095 A 
ATOM      2  C8  NON d   1     -39.337  18.602  -4.296  0.00  0.00     0.037 A 
ATOM      3  C9  NON d   1     -39.757  18.851  -5.722  0.00  0.00     0.043 A 
ENDROOT
BRANCH   1   4
ATOM      4  N3  NON d   1     -41.895  18.224  -4.349  0.00  0.00    -0.337 N 
ATOM      5  C6  NON d   1     -43.153  18.448  -4.896  0.00  0.00     0.331 C 
ATOM      6  N2  NON d   1     -44.049  17.376  -4.700  0.00  0.00    -0.267 N 
ATOM      7  O1  NON d   1     -43.484  19.489  -5.462  0.00  0.00    -0.246 OA
ATOM      8  H7  NON d   1     -43.678  16.430  -4.720  0.00  0.00     0.186 HD
ATOM      9  H8  NON d   1     -41.762  17.379  -3.810  0.00  0.00     0.164 HD
BRANCH   6  10
ATOM     10  N1  NON d   1     -45.303  17.501  -5.403  0.00  0.00    -0.183 NA
ATOM     11  H6  NON d   1     -45.573  18.485  -5.459  0.00  0.00     0.154 HD
BRANCH  10  12
ATOM     12  C5  NON d   1     -46.385  16.671  -4.977  0.00  0.00     0.143 A 
ATOM     13  C4  NON d   1     -46.621  16.536  -3.606  0.00  0.00     0.050 A 
ATOM     14  C3  NON d   1     -47.755  15.850  -3.102  0.00  0.00     0.032 A 
ATOM     15  C2  NON d   1     -48.686  15.324  -3.981  0.00  0.00     0.053 A 
ATOM     16  C1  NON d   1     -49.985  14.615  -3.558  0.00  0.00     0.072 C 
ATOM     17  N5  NON d   1     -48.434  15.444  -5.309  0.00  0.00    -0.154 NA
ATOM     18  N4  NON d   1     -47.290  16.130  -5.810  0.00  0.00    -0.136 NA
ENDBRANCH  10  12
ENDBRANCH   6  10
ENDBRANCH   1   4
BRANCH   3  19
ATOM     19  C10 NON d   1     -39.120  19.989  -6.530  0.00  0.00    -0.052 A 
ATOM     20  C11 NON d   1     -37.923  20.631  -6.147  0.00  0.00     0.010 A 
ATOM     21  C12 NON d   1     -37.262  21.572  -6.970  0.00  0.00     0.037 A 
ATOM     22  C13 NON d   1     -37.780  21.893  -8.221  0.00  0.00     0.069 A 
ATOM     23  C21 NON d   1     -38.983  21.297  -8.606  0.00  0.00     0.037 A 
ATOM     24  C22 NON d   1     -39.637  20.365  -7.779  0.00  0.00     0.010 A 
BRANCH  22  25
ATOM     25  O2  NON d   1     -37.235  22.747  -9.143  0.00  0.00    -0.347 OA
BRANCH  25  26
ATOM     26  C14 NON d   1     -38.118  23.597  -9.888  0.00  0.00     0.214 C 
BRANCH  26  27
ATOM     27  C15 NON d   1     -38.794  24.636  -8.998  0.00  0.00    -0.034 A 
ATOM     28  C16 NON d   1     -40.109  25.044  -9.286  0.00  0.00     0.009 A 
ATOM     29  C17 NON d   1     -40.776  25.959  -8.464  0.00  0.00     0.001 A 
ATOM     30  C18 NON d   1     -40.142  26.480  -7.339  0.00  0.00     0.000 A 
ATOM     31  C19 NON d   1     -38.844  26.078  -7.034  0.00  0.00     0.001 A 
ATOM     32  C20 NON d   1     -38.177  25.160  -7.853  0.00  0.00     0.009 A 
ENDBRANCH  26  27
ENDBRANCH  25  26
ENDBRANCH  22  25
ENDBRANCH   3  19
TORSDOF 7
ENDMDL
