MODEL 1
REMARK VINA RESULT:   -28.228      0.000      0.000
REMARK INTER + INTRA:         -31.189
REMARK INTER:                 -30.615
REMARK INTRA:                  -0.575
REMARK CONF_INDEPENDENT:        2.386
REMARK UNBOUND:                -0.575
REMARK  8 active torsions:
REMARK  status: ('A' for Active; 'I' for Inactive)
REMARK    1  A    between atoms: C2_2  and  O1_3 
REMARK    2  A    between atoms: O1_3  and  C3_4 
REMARK    3  A    between atoms: C3_4  and  C4_6 
REMARK    4  A    between atoms: C7_9  and  N1_10 
REMARK       I    between atoms: N1_10  and  C8_11 
REMARK    5  A    between atoms: C8_11  and  C9_13 
REMARK    6  A    between atoms: C9_13  and  S1_14 
REMARK    7  A    between atoms: S1_14  and  C10_15 
REMARK    8  A    between atoms: C12_17  and  C13_18 
ROOT
ATOM      1  N1  NON d   1     -50.529  16.327  -2.812  0.00  0.00    -0.327 N 
ATOM      2  C8  NON d   1     -50.491  15.036  -3.368  0.00  0.00     0.231 C 
ATOM      3  O3  NON d   1     -51.461  14.278  -3.382  0.00  0.00    -0.272 OA
ATOM      4  H8  NON d   1     -49.748  16.940  -3.012  0.00  0.00     0.169 HD
ENDROOT
BRANCH   2   5
ATOM      5  C9  NON d   1     -49.146  14.619  -4.046  0.00  0.00     0.184 C 
BRANCH   5   6
ATOM      6  S1  NON d   1     -47.731  15.301  -3.056  0.00  0.00    -0.101 SA
BRANCH   6   7
ATOM      7  C10 NON d   1     -46.703  16.223  -4.212  0.00  0.00     0.097 A 
ATOM      8  C11 NON d   1     -45.487  16.712  -3.737  0.00  0.00     0.071 A 
ATOM      9  C12 NON d   1     -44.726  17.526  -4.568  0.00  0.00     0.071 A 
ATOM     10  N2  NON d   1     -45.179  17.824  -5.804  0.00  0.00    -0.241 NA
ATOM     11  C19 NON d   1     -46.365  17.303  -6.171  0.00  0.00     0.234 A 
ATOM     12  N3  NON d   1     -47.165  16.505  -5.438  0.00  0.00    -0.235 NA
BRANCH   9  13
ATOM     13  C13 NON d   1     -43.415  18.142  -4.178  0.00  0.00    -0.007 A 
ATOM     14  C14 NON d   1     -42.887  19.286  -4.810  0.00  0.00     0.014 A 
ATOM     15  C15 NON d   1     -41.651  19.841  -4.443  0.00  0.00     0.001 A 
ATOM     16  C16 NON d   1     -40.900  19.271  -3.422  0.00  0.00     0.000 A 
ATOM     17  C17 NON d   1     -41.388  18.147  -2.768  0.00  0.00     0.001 A 
ATOM     18  C18 NON d   1     -42.625  17.596  -3.140  0.00  0.00     0.014 A 
ENDBRANCH   9  13
ENDBRANCH   6   7
ENDBRANCH   5   6
ENDBRANCH   2   5
BRANCH   1  19
ATOM     19  C7  NON d   1     -51.614  16.909  -2.063  0.00  0.00     0.034 A 
ATOM     20  C6  NON d   1     -51.432  17.662  -0.903  0.00  0.00     0.030 A 
ATOM     21  C5  NON d   1     -52.530  18.229  -0.211  0.00  0.00     0.020 A 
ATOM     22  C4  NON d   1     -53.865  18.072  -0.637  0.00  0.00     0.039 A 
ATOM     23  C21 NON d   1     -54.060  17.322  -1.799  0.00  0.00     0.020 A 
ATOM     24  C20 NON d   1     -52.947  16.757  -2.503  0.00  0.00     0.030 A 
BRANCH  22  25
ATOM     25  C3  NON d   1     -54.944  18.730   0.210  0.00  0.00     0.293 C 
ATOM     26  O2  NON d   1     -55.692  18.028   0.885  0.00  0.00    -0.259 OA
BRANCH  25  27
ATOM     27  O1  NON d   1     -55.046  20.104   0.181  0.00  0.00    -0.318 OA
BRANCH  27  28
ATOM     28  C2  NON d   1     -53.782  20.762  -0.222  0.00  0.00     0.174 C 
ATOM     29  C1  NON d   1     -52.795  21.003   0.936  0.00  0.00     0.034 C 
ENDBRANCH  27  28
ENDBRANCH  25  27
ENDBRANCH  22  25
ENDBRANCH   1  19
TORSDOF 8
ENDMDL
MODEL 2
REMARK VINA RESULT:   -28.042      6.044     12.007
REMARK INTER + INTRA:         -31.286
REMARK INTER:                 -30.429
REMARK INTRA:                  -0.857
REMARK CONF_INDEPENDENT:        2.386
REMARK UNBOUND:                -0.857
REMARK  8 active torsions:
REMARK  status: ('A' for Active; 'I' for Inactive)
REMARK    1  A    between atoms: C2_2  and  O1_3 
REMARK    2  A    between atoms: O1_3  and  C3_4 
REMARK    3  A    between atoms: C3_4  and  C4_6 
REMARK    4  A    between atoms: C7_9  and  N1_10 
REMARK       I    between atoms: N1_10  and  C8_11 
REMARK    5  A    between atoms: C8_11  and  C9_13 
REMARK    6  A    between atoms: C9_13  and  S1_14 
REMARK    7  A    between atoms: S1_14  and  C10_15 
REMARK    8  A    between atoms: C12_17  and  C13_18 
ROOT
ATOM      1  N1  NON d   1     -41.152  18.089  -6.032  0.00  0.00    -0.327 N 
ATOM      2  C8  NON d   1     -41.668  18.386  -4.758  0.00  0.00     0.231 C 
ATOM      3  O3  NON d   1     -41.811  19.535  -4.339  0.00  0.00    -0.272 OA
ATOM      4  H8  NON d   1     -41.247  17.135  -6.358  0.00  0.00     0.169 HD
ENDROOT
BRANCH   2   5
ATOM      5  C9  NON d   1     -42.131  17.164  -3.902  0.00  0.00     0.184 C 
BRANCH   5   6
ATOM      6  S1  NON d   1     -43.664  17.629  -2.961  0.00  0.00    -0.101 SA
BRANCH   6   7
ATOM      7  C10 NON d   1     -45.053  17.279  -4.052  0.00  0.00     0.097 A 
ATOM      8  C11 NON d   1     -46.251  16.888  -3.456  0.00  0.00     0.071 A 
ATOM      9  C12 NON d   1     -47.305  16.498  -4.274  0.00  0.00     0.071 A 
ATOM     10  N2  NON d   1     -47.145  16.505  -5.614  0.00  0.00    -0.241 NA
ATOM     11  C19 NON d   1     -45.951  16.899  -6.093  0.00  0.00     0.234 A 
ATOM     12  N3  NON d   1     -44.879  17.296  -5.380  0.00  0.00    -0.235 NA
BRANCH   9  13
ATOM     13  C13 NON d   1     -48.637  16.029  -3.769  0.00  0.00    -0.007 A 
ATOM     14  C14 NON d   1     -49.490  16.836  -2.988  0.00  0.00     0.014 A 
ATOM     15  C15 NON d   1     -50.727  16.376  -2.511  0.00  0.00     0.001 A 
ATOM     16  C16 NON d   1     -51.159  15.088  -2.804  0.00  0.00     0.000 A 
ATOM     17  C17 NON d   1     -50.352  14.262  -3.578  0.00  0.00     0.001 A 
ATOM     18  C18 NON d   1     -49.115  14.728  -4.051  0.00  0.00     0.014 A 
ENDBRANCH   9  13
ENDBRANCH   6   7
ENDBRANCH   5   6
ENDBRANCH   2   5
BRANCH   1  19
ATOM     19  C7  NON d   1     -40.584  19.024  -6.970  0.00  0.00     0.034 A 
ATOM     20  C6  NON d   1     -41.029  20.338  -7.112  0.00  0.00     0.030 A 
ATOM     21  C5  NON d   1     -40.426  21.226  -8.037  0.00  0.00     0.020 A 
ATOM     22  C4  NON d   1     -39.352  20.849  -8.868  0.00  0.00     0.039 A 
ATOM     23  C21 NON d   1     -38.895  19.537  -8.732  0.00  0.00     0.020 A 
ATOM     24  C20 NON d   1     -39.500  18.643  -7.790  0.00  0.00     0.030 A 
BRANCH  22  25
ATOM     25  C3  NON d   1     -38.809  21.906  -9.818  0.00  0.00     0.293 C 
ATOM     26  O2  NON d   1     -37.669  21.788 -10.262  0.00  0.00    -0.259 OA
BRANCH  25  27
ATOM     27  O1  NON d   1     -39.622  22.970 -10.144  0.00  0.00    -0.318 OA
BRANCH  27  28
ATOM     28  C2  NON d   1     -39.394  23.460 -11.522  0.00  0.00     0.174 C 
ATOM     29  C1  NON d   1     -40.254  24.675 -11.915  0.00  0.00     0.034 C 
ENDBRANCH  27  28
ENDBRANCH  25  27
ENDBRANCH  22  25
ENDBRANCH   1  19
TORSDOF 8
ENDMDL
MODEL 3
REMARK VINA RESULT:   -27.729      0.920      1.834
REMARK INTER + INTRA:         -31.078
REMARK INTER:                 -30.115
REMARK INTRA:                  -0.963
REMARK CONF_INDEPENDENT:        2.386
REMARK UNBOUND:                -0.963
REMARK  8 active torsions:
REMARK  status: ('A' for Active; 'I' for Inactive)
REMARK    1  A    between atoms: C2_2  and  O1_3 
REMARK    2  A    between atoms: O1_3  and  C3_4 
REMARK    3  A    between atoms: C3_4  and  C4_6 
REMARK    4  A    between atoms: C7_9  and  N1_10 
REMARK       I    between atoms: N1_10  and  C8_11 
REMARK    5  A    between atoms: C8_11  and  C9_13 
REMARK    6  A    between atoms: C9_13  and  S1_14 
REMARK    7  A    between atoms: S1_14  and  C10_15 
REMARK    8  A    between atoms: C12_17  and  C13_18 
ROOT
ATOM      1  N1  NON d   1     -50.885  16.533  -2.834  0.00  0.00    -0.327 N 
ATOM      2  C8  NON d   1     -50.801  15.202  -3.277  0.00  0.00     0.231 C 
ATOM      3  O3  NON d   1     -51.719  14.390  -3.157  0.00  0.00    -0.272 OA
ATOM      4  H8  NON d   1     -50.160  17.170  -3.141  0.00  0.00     0.169 HD
ENDROOT
BRANCH   2   5
ATOM      5  C9  NON d   1     -49.480  14.804  -4.012  0.00  0.00     0.184 C 
BRANCH   5   6
ATOM      6  S1  NON d   1     -48.030  15.418  -3.028  0.00  0.00    -0.101 SA
BRANCH   6   7
ATOM      7  C10 NON d   1     -46.944  16.256  -4.195  0.00  0.00     0.097 A 
ATOM      8  C11 NON d   1     -45.722  16.720  -3.711  0.00  0.00     0.071 A 
ATOM      9  C12 NON d   1     -44.914  17.474  -4.555  0.00  0.00     0.071 A 
ATOM     10  N2  NON d   1     -45.329  17.737  -5.812  0.00  0.00    -0.241 NA
ATOM     11  C19 NON d   1     -46.525  17.245  -6.185  0.00  0.00     0.234 A 
ATOM     12  N3  NON d   1     -47.370  16.505  -5.440  0.00  0.00    -0.235 NA
BRANCH   9  13
ATOM     13  C13 NON d   1     -43.591  18.057  -4.159  0.00  0.00    -0.007 A 
ATOM     14  C14 NON d   1     -42.866  17.621  -3.031  0.00  0.00     0.014 A 
ATOM     15  C15 NON d   1     -41.636  18.189  -2.666  0.00  0.00     0.001 A 
ATOM     16  C16 NON d   1     -41.082  19.214  -3.422  0.00  0.00     0.000 A 
ATOM     17  C17 NON d   1     -41.761  19.669  -4.547  0.00  0.00     0.001 A 
ATOM     18  C18 NON d   1     -42.992  19.098  -4.906  0.00  0.00     0.014 A 
ENDBRANCH   9  13
ENDBRANCH   6   7
ENDBRANCH   5   6
ENDBRANCH   2   5
BRANCH   1  19
ATOM     19  C7  NON d   1     -51.952  17.117  -2.062  0.00  0.00     0.034 A 
ATOM     20  C6  NON d   1     -51.743  17.925  -0.945  0.00  0.00     0.030 A 
ATOM     21  C5  NON d   1     -52.826  18.491  -0.228  0.00  0.00     0.020 A 
ATOM     22  C4  NON d   1     -54.173  18.276  -0.585  0.00  0.00     0.039 A 
ATOM     23  C21 NON d   1     -54.396  17.471  -1.704  0.00  0.00     0.020 A 
ATOM     24  C20 NON d   1     -53.298  16.907  -2.433  0.00  0.00     0.030 A 
BRANCH  22  25
ATOM     25  C3  NON d   1     -55.232  18.941   0.280  0.00  0.00     0.293 C 
ATOM     26  O2  NON d   1     -55.114  20.128   0.572  0.00  0.00    -0.259 OA
BRANCH  25  27
ATOM     27  O1  NON d   1     -56.293  18.176   0.715  0.00  0.00    -0.318 OA
BRANCH  27  28
ATOM     28  C2  NON d   1     -56.069  17.608   2.064  0.00  0.00     0.174 C 
ATOM     29  C1  NON d   1     -57.360  17.276   2.836  0.00  0.00     0.034 C 
ENDBRANCH  27  28
ENDBRANCH  25  27
ENDBRANCH  22  25
ENDBRANCH   1  19
TORSDOF 8
ENDMDL
MODEL 4
REMARK VINA RESULT:   -27.136      5.769     11.592
REMARK INTER + INTRA:         -30.938
REMARK INTER:                 -29.522
REMARK INTRA:                  -1.415
REMARK CONF_INDEPENDENT:        2.386
REMARK UNBOUND:                -1.415
REMARK  8 active torsions:
REMARK  status: ('A' for Active; 'I' for Inactive)
REMARK    1  A    between atoms: C2_2  and  O1_3 
REMARK    2  A    between atoms: O1_3  and  C3_4 
REMARK    3  A    between atoms: C3_4  and  C4_6 
REMARK    4  A    between atoms: C7_9  and  N1_10 
REMARK       I    between atoms: N1_10  and  C8_11 
REMARK    5  A    between atoms: C8_11  and  C9_13 
REMARK    6  A    between atoms: C9_13  and  S1_14 
REMARK    7  A    between atoms: S1_14  and  C10_15 
REMARK    8  A    between atoms: C12_17  and  C13_18 
ROOT
ATOM      1  N1  NON d   1     -41.877  18.755  -5.113  0.00  0.00    -0.327 N 
ATOM      2  C8  NON d   1     -41.285  17.905  -4.162  0.00  0.00     0.231 C 
ATOM      3  O3  NON d   1     -40.121  18.027  -3.780  0.00  0.00    -0.272 OA
ATOM      4  H8  NON d   1     -42.882  18.696  -5.224  0.00  0.00     0.169 HD
ENDROOT
BRANCH   2   5
ATOM      5  C9  NON d   1     -42.215  16.814  -3.542  0.00  0.00     0.184 C 
BRANCH   5   6
ATOM      6  S1  NON d   1     -43.712  17.636  -2.811  0.00  0.00    -0.101 SA
BRANCH   6   7
ATOM      7  C10 NON d   1     -45.079  17.284  -3.929  0.00  0.00     0.097 A 
ATOM      8  C11 NON d   1     -46.285  16.881  -3.356  0.00  0.00     0.071 A 
ATOM      9  C12 NON d   1     -47.322  16.488  -4.195  0.00  0.00     0.071 A 
ATOM     10  N2  NON d   1     -47.138  16.505  -5.532  0.00  0.00    -0.241 NA
ATOM     11  C19 NON d   1     -45.938  16.910  -5.988  0.00  0.00     0.234 A 
ATOM     12  N3  NON d   1     -44.882  17.311  -5.253  0.00  0.00    -0.235 NA
BRANCH   9  13
ATOM     13  C13 NON d   1     -48.659  16.007  -3.717  0.00  0.00    -0.007 A 
ATOM     14  C14 NON d   1     -49.455  16.732  -2.807  0.00  0.00     0.014 A 
ATOM     15  C15 NON d   1     -50.698  16.260  -2.358  0.00  0.00     0.001 A 
ATOM     16  C16 NON d   1     -51.193  15.042  -2.809  0.00  0.00     0.000 A 
ATOM     17  C17 NON d   1     -50.443  14.299  -3.712  0.00  0.00     0.001 A 
ATOM     18  C18 NON d   1     -49.200  14.777  -4.157  0.00  0.00     0.014 A 
ENDBRANCH   9  13
ENDBRANCH   6   7
ENDBRANCH   5   6
ENDBRANCH   2   5
BRANCH   1  19
ATOM     19  C7  NON d   1     -41.214  19.776  -5.885  0.00  0.00     0.034 A 
ATOM     20  C6  NON d   1     -41.238  19.825  -7.279  0.00  0.00     0.030 A 
ATOM     21  C5  NON d   1     -40.585  20.860  -7.992  0.00  0.00     0.020 A 
ATOM     22  C4  NON d   1     -39.873  21.896  -7.354  0.00  0.00     0.039 A 
ATOM     23  C21 NON d   1     -39.845  21.860  -5.959  0.00  0.00     0.020 A 
ATOM     24  C20 NON d   1     -40.514  20.817  -5.238  0.00  0.00     0.030 A 
BRANCH  22  25
ATOM     25  C3  NON d   1     -39.216  22.936  -8.248  0.00  0.00     0.293 C 
ATOM     26  O2  NON d   1     -38.690  23.923  -7.739  0.00  0.00    -0.259 OA
BRANCH  25  27
ATOM     27  O1  NON d   1     -39.241  22.734  -9.611  0.00  0.00    -0.318 OA
BRANCH  27  28
ATOM     28  C2  NON d   1     -39.058  23.989 -10.376  0.00  0.00     0.174 C 
ATOM     29  C1  NON d   1     -40.268  24.941 -10.335  0.00  0.00     0.034 C 
ENDBRANCH  27  28
ENDBRANCH  25  27
ENDBRANCH  22  25
ENDBRANCH   1  19
TORSDOF 8
ENDMDL
MODEL 5
REMARK VINA RESULT:   -26.774      5.751     11.169
REMARK INTER + INTRA:         -30.229
REMARK INTER:                 -29.160
REMARK INTRA:                  -1.069
REMARK CONF_INDEPENDENT:        2.386
REMARK UNBOUND:                -1.069
REMARK  8 active torsions:
REMARK  status: ('A' for Active; 'I' for Inactive)
REMARK    1  A    between atoms: C2_2  and  O1_3 
REMARK    2  A    between atoms: O1_3  and  C3_4 
REMARK    3  A    between atoms: C3_4  and  C4_6 
REMARK    4  A    between atoms: C7_9  and  N1_10 
REMARK       I    between atoms: N1_10  and  C8_11 
REMARK    5  A    between atoms: C8_11  and  C9_13 
REMARK    6  A    between atoms: C9_13  and  S1_14 
REMARK    7  A    between atoms: S1_14  and  C10_15 
REMARK    8  A    between atoms: C12_17  and  C13_18 
ROOT
ATOM      1  N1  NON d   1     -41.723  19.416  -4.344  0.00  0.00    -0.327 N 
ATOM      2  C8  NON d   1     -41.189  18.218  -3.839  0.00  0.00     0.231 C 
ATOM      3  O3  NON d   1     -40.021  18.102  -3.468  0.00  0.00    -0.272 OA
ATOM      4  H8  NON d   1     -42.729  19.468  -4.446  0.00  0.00     0.169 HD
ENDROOT
BRANCH   2   5
ATOM      5  C9  NON d   1     -42.189  17.025  -3.699  0.00  0.00     0.184 C 
BRANCH   5   6
ATOM      6  S1  NON d   1     -43.720  17.616  -2.830  0.00  0.00    -0.101 SA
BRANCH   6   7
ATOM      7  C10 NON d   1     -45.096  17.272  -3.939  0.00  0.00     0.097 A 
ATOM      8  C11 NON d   1     -46.305  16.890  -3.359  0.00  0.00     0.071 A 
ATOM      9  C12 NON d   1     -47.350  16.503  -4.189  0.00  0.00     0.071 A 
ATOM     10  N2  NON d   1     -47.172  16.505  -5.527  0.00  0.00    -0.241 NA
ATOM     11  C19 NON d   1     -45.968  16.890  -5.991  0.00  0.00     0.234 A 
ATOM     12  N3  NON d   1     -44.904  17.283  -5.265  0.00  0.00    -0.235 NA
BRANCH   9  13
ATOM     13  C13 NON d   1     -48.692  16.044  -3.702  0.00  0.00    -0.007 A 
ATOM     14  C14 NON d   1     -49.229  14.777  -4.012  0.00  0.00     0.014 A 
ATOM     15  C15 NON d   1     -50.493  14.369  -3.560  0.00  0.00     0.001 A 
ATOM     16  C16 NON d   1     -51.266  15.215  -2.774  0.00  0.00     0.000 A 
ATOM     17  C17 NON d   1     -50.771  16.469  -2.439  0.00  0.00     0.001 A 
ATOM     18  C18 NON d   1     -49.506  16.872  -2.895  0.00  0.00     0.014 A 
ENDBRANCH   9  13
ENDBRANCH   6   7
ENDBRANCH   5   6
ENDBRANCH   2   5
BRANCH   1  19
ATOM     19  C7  NON d   1     -40.994  20.623  -4.645  0.00  0.00     0.034 A 
ATOM     20  C6  NON d   1     -40.706  21.605  -3.698  0.00  0.00     0.030 A 
ATOM     21  C5  NON d   1     -39.971  22.767  -4.039  0.00  0.00     0.020 A 
ATOM     22  C4  NON d   1     -39.487  23.010  -5.341  0.00  0.00     0.039 A 
ATOM     23  C21 NON d   1     -39.766  22.031  -6.297  0.00  0.00     0.020 A 
ATOM     24  C20 NON d   1     -40.503  20.853  -5.949  0.00  0.00     0.030 A 
BRANCH  22  25
ATOM     25  C3  NON d   1     -38.719  24.303  -5.564  0.00  0.00     0.293 C 
ATOM     26  O2  NON d   1     -37.642  24.271  -6.154  0.00  0.00    -0.259 OA
BRANCH  25  27
ATOM     27  O1  NON d   1     -39.262  25.475  -5.083  0.00  0.00    -0.318 OA
BRANCH  27  28
ATOM     28  C2  NON d   1     -40.700  25.611  -5.406  0.00  0.00     0.174 C 
ATOM     29  C1  NON d   1     -41.580  26.041  -4.217  0.00  0.00     0.034 C 
ENDBRANCH  27  28
ENDBRANCH  25  27
ENDBRANCH  22  25
ENDBRANCH   1  19
TORSDOF 8
ENDMDL
MODEL 6
REMARK VINA RESULT:   -26.676      6.015     11.006
REMARK INTER + INTRA:         -29.897
REMARK INTER:                 -29.062
REMARK INTRA:                  -0.835
REMARK CONF_INDEPENDENT:        2.386
REMARK UNBOUND:                -0.835
REMARK  8 active torsions:
REMARK  status: ('A' for Active; 'I' for Inactive)
REMARK    1  A    between atoms: C2_2  and  O1_3 
REMARK    2  A    between atoms: O1_3  and  C3_4 
REMARK    3  A    between atoms: C3_4  and  C4_6 
REMARK    4  A    between atoms: C7_9  and  N1_10 
REMARK       I    between atoms: N1_10  and  C8_11 
REMARK    5  A    between atoms: C8_11  and  C9_13 
REMARK    6  A    between atoms: C9_13  and  S1_14 
REMARK    7  A    between atoms: S1_14  and  C10_15 
REMARK    8  A    between atoms: C12_17  and  C13_18 
ROOT
ATOM      1  N1  NON d   1     -40.723  19.439  -2.897  0.00  0.00    -0.327 N 
ATOM      2  C8  NON d   1     -41.479  19.226  -4.064  0.00  0.00     0.231 C 
ATOM      3  O3  NON d   1     -41.640  20.086  -4.930  0.00  0.00    -0.272 OA
ATOM      4  H8  NON d   1     -40.492  18.625  -2.341  0.00  0.00     0.169 HD
ENDROOT
BRANCH   2   5
ATOM      5  C9  NON d   1     -42.062  17.789  -4.252  0.00  0.00     0.184 C 
BRANCH   5   6
ATOM      6  S1  NON d   1     -43.479  17.551  -3.074  0.00  0.00    -0.101 SA
BRANCH   6   7
ATOM      7  C10 NON d   1     -44.932  17.232  -4.090  0.00  0.00     0.097 A 
ATOM      8  C11 NON d   1     -46.112  16.895  -3.428  0.00  0.00     0.071 A 
ATOM      9  C12 NON d   1     -47.219  16.528  -4.186  0.00  0.00     0.071 A 
ATOM     10  N2  NON d   1     -47.125  16.505  -5.532  0.00  0.00    -0.241 NA
ATOM     11  C19 NON d   1     -45.942  16.847  -6.077  0.00  0.00     0.234 A 
ATOM     12  N3  NON d   1     -44.823  17.219  -5.425  0.00  0.00    -0.235 NA
BRANCH   9  13
ATOM     13  C13 NON d   1     -48.540  16.116  -3.608  0.00  0.00    -0.007 A 
ATOM     14  C14 NON d   1     -49.226  14.954  -4.015  0.00  0.00     0.014 A 
ATOM     15  C15 NON d   1     -50.470  14.590  -3.475  0.00  0.00     0.001 A 
ATOM     16  C16 NON d   1     -51.070  15.378  -2.500  0.00  0.00     0.000 A 
ATOM     17  C17 NON d   1     -50.422  16.528  -2.064  0.00  0.00     0.001 A 
ATOM     18  C18 NON d   1     -49.179  16.886  -2.610  0.00  0.00     0.014 A 
ENDBRANCH   9  13
ENDBRANCH   6   7
ENDBRANCH   5   6
ENDBRANCH   2   5
BRANCH   1  19
ATOM     19  C7  NON d   1     -40.156  20.688  -2.456  0.00  0.00     0.034 A 
ATOM     20  C6  NON d   1     -39.419  20.827  -1.279  0.00  0.00     0.030 A 
ATOM     21  C5  NON d   1     -38.867  22.074  -0.897  0.00  0.00     0.020 A 
ATOM     22  C4  NON d   1     -39.022  23.246  -1.665  0.00  0.00     0.039 A 
ATOM     23  C21 NON d   1     -39.754  23.119  -2.847  0.00  0.00     0.020 A 
ATOM     24  C20 NON d   1     -40.305  21.854  -3.237  0.00  0.00     0.030 A 
BRANCH  22  25
ATOM     25  C3  NON d   1     -38.380  24.515  -1.127  0.00  0.00     0.293 C 
ATOM     26  O2  NON d   1     -37.240  24.809  -1.479  0.00  0.00    -0.259 OA
BRANCH  25  27
ATOM     27  O1  NON d   1     -39.106  25.293  -0.251  0.00  0.00    -0.318 OA
BRANCH  27  28
ATOM     28  C2  NON d   1     -40.502  25.500  -0.696  0.00  0.00     0.174 C 
ATOM     29  C1  NON d   1     -41.564  25.199   0.378  0.00  0.00     0.034 C 
ENDBRANCH  27  28
ENDBRANCH  25  27
ENDBRANCH  22  25
ENDBRANCH   1  19
TORSDOF 8
ENDMDL
