MODEL 1
REMARK VINA RESULT:   -13.233      0.000      0.000
REMARK INTER + INTRA:         -17.185
REMARK INTER:                 -15.321
REMARK INTRA:                  -1.863
REMARK CONF_INDEPENDENT:        2.088
REMARK UNBOUND:                -1.863
REMARK  7 active torsions:
REMARK  status: ('A' for Active; 'I' for Inactive)
REMARK    1  A    between atoms: C2_2  and  C5_5 
REMARK    2  A    between atoms: C5_5  and  N1_6 
REMARK    3  A    between atoms: C6_7  and  N1_6 
REMARK    4  A    between atoms: C6_7  and  O1_8 
REMARK    5  A    between atoms: C6_7  and  C7_9 
REMARK    6  A    between atoms: C7_9  and  O2_10 
REMARK    7  A    between atoms: N2_11  and  O2_10 
ROOT
ATOM      1  O2  NON d   1     -45.569  17.491  -5.812  0.00  0.00    -0.252 OA
ENDROOT
BRANCH   1   2
ATOM      2  C7  NON d   1     -47.009  17.301  -5.855  0.00  0.00     0.265 C 
BRANCH   2   3
ATOM      3  C6  NON d   1     -47.267  15.780  -5.696  0.00  0.00     0.345 C 
BRANCH   3   4
ATOM      4  N1  NON d   1     -47.327  15.172  -4.325  0.00  0.00    -0.046 N 
ATOM      5  H12 NON d   1     -46.501  15.572  -3.866  0.00  0.00     0.280 HD
ATOM      6  H13 NON d   1     -47.090  14.185  -4.472  0.00  0.00     0.280 HD
BRANCH   4   7
ATOM      7  C5  NON d   1     -48.453  15.178  -3.304  0.00  0.00     0.243 C 
BRANCH   7   8
ATOM      8  C2  NON d   1     -49.042  16.677  -2.645  0.00  0.00    -0.027 C 
ATOM      9  C1  NON d   1     -49.252  16.511  -1.015  0.00  0.00     0.016 C 
ATOM     10  C3  NON d   1     -50.510  16.251  -2.826  0.00  0.00     0.016 C 
ATOM     11  C4  NON d   1     -47.572  17.103  -2.464  0.00  0.00     0.016 C 
ENDBRANCH   7   8
ENDBRANCH   4   7
ENDBRANCH   3   4
BRANCH   3  12
ATOM     12  O1  NON d   1     -46.440  15.005  -6.537  0.00  0.00    -0.368 OA
ATOM     13  H15 NON d   1     -45.951  15.637  -7.100  0.00  0.00     0.212 HD
ENDBRANCH   3  12
ENDBRANCH   2   3
ENDBRANCH   1   2
BRANCH   1  14
ATOM     14  N2  NON d   1     -44.996  16.711  -4.789  0.00  0.00    -0.137 NA
ATOM     15  C8  NON d   1     -43.830  17.153  -4.385  0.00  0.00     0.077 A 
ATOM     16  C9  NON d   1     -43.095  16.420  -3.208  0.00  0.00     0.102 A 
ATOM     17  C18 NON d   1     -42.998  18.262  -4.808  0.00  0.00     0.003 A 
ATOM     18  C10 NON d   1     -41.862  17.259  -3.081  0.00  0.00    -0.040 A 
ATOM     19  C11 NON d   1     -40.803  17.105  -2.186  0.00  0.00     0.008 A 
ATOM     20  C19 NON d   1     -41.860  18.284  -4.011  0.00  0.00    -0.007 A 
ATOM     21  C12 NON d   1     -39.751  18.033  -2.283  0.00  0.00     0.001 A 
ATOM     22  C13 NON d   1     -39.759  19.071  -3.231  0.00  0.00     0.012 A 
ATOM     23  C14 NON d   1     -40.839  19.201  -4.120  0.00  0.00    -0.025 A 
ATOM     24  C15 NON d   1     -40.975  20.179  -5.113  0.00  0.00     0.012 A 
ATOM     25  C16 NON d   1     -42.107  20.180  -5.941  0.00  0.00     0.002 A 
ATOM     26  C17 NON d   1     -43.130  19.224  -5.810  0.00  0.00     0.014 A 
ENDBRANCH   1  14
TORSDOF 7
ENDMDL
MODEL 2
REMARK VINA RESULT:   -12.901      1.228      1.782
REMARK INTER + INTRA:         -16.199
REMARK INTER:                 -14.989
REMARK INTRA:                  -1.209
REMARK CONF_INDEPENDENT:        2.088
REMARK UNBOUND:                -1.209
REMARK  7 active torsions:
REMARK  status: ('A' for Active; 'I' for Inactive)
REMARK    1  A    between atoms: C2_2  and  C5_5 
REMARK    2  A    between atoms: C5_5  and  N1_6 
REMARK    3  A    between atoms: C6_7  and  N1_6 
REMARK    4  A    between atoms: C6_7  and  O1_8 
REMARK    5  A    between atoms: C6_7  and  C7_9 
REMARK    6  A    between atoms: C7_9  and  O2_10 
REMARK    7  A    between atoms: N2_11  and  O2_10 
ROOT
ATOM      1  O2  NON d   1     -44.786  17.761  -4.034  0.00  0.00    -0.252 OA
ENDROOT
BRANCH   1   2
ATOM      2  C7  NON d   1     -44.933  16.877  -5.179  0.00  0.00     0.265 C 
BRANCH   2   3
ATOM      3  C6  NON d   1     -46.447  16.571  -5.318  0.00  0.00     0.345 C 
BRANCH   3   4
ATOM      4  N1  NON d   1     -47.338  16.643  -4.113  0.00  0.00    -0.046 N 
ATOM      5  H12 NON d   1     -48.158  17.145  -4.470  0.00  0.00     0.280 HD
ATOM      6  H13 NON d   1     -46.873  17.314  -3.491  0.00  0.00     0.280 HD
BRANCH   4   7
ATOM      7  C5  NON d   1     -47.849  15.533  -3.210  0.00  0.00     0.243 C 
BRANCH   7   8
ATOM      8  C2  NON d   1     -49.429  15.637  -2.489  0.00  0.00    -0.027 C 
ATOM      9  C1  NON d   1     -50.267  16.880  -3.185  0.00  0.00     0.016 C 
ATOM     10  C3  NON d   1     -48.944  16.632  -1.419  0.00  0.00     0.016 C 
ATOM     11  C4  NON d   1     -49.916  14.642  -3.559  0.00  0.00     0.016 C 
ENDBRANCH   7   8
ENDBRANCH   4   7
ENDBRANCH   3   4
BRANCH   3  12
ATOM     12  O1  NON d   1     -46.690  15.380  -6.034  0.00  0.00    -0.368 OA
ATOM     13  H15 NON d   1     -46.708  15.625  -6.980  0.00  0.00     0.212 HD
ENDBRANCH   3  12
ENDBRANCH   2   3
ENDBRANCH   1   2
BRANCH   1  14
ATOM     14  N2  NON d   1     -43.805  17.272  -3.152  0.00  0.00    -0.137 NA
ATOM     15  C8  NON d   1     -42.593  17.683  -3.435  0.00  0.00     0.077 A 
ATOM     16  C9  NON d   1     -41.401  17.267  -2.504  0.00  0.00     0.102 A 
ATOM     17  C18 NON d   1     -42.060  18.511  -4.499  0.00  0.00     0.003 A 
ATOM     18  C10 NON d   1     -40.261  17.963  -3.181  0.00  0.00    -0.040 A 
ATOM     19  C11 NON d   1     -38.916  17.972  -2.810  0.00  0.00     0.008 A 
ATOM     20  C19 NON d   1     -40.691  18.649  -4.302  0.00  0.00    -0.007 A 
ATOM     21  C12 NON d   1     -38.038  18.704  -3.630  0.00  0.00     0.001 A 
ATOM     22  C13 NON d   1     -38.486  19.397  -4.768  0.00  0.00     0.012 A 
ATOM     23  C14 NON d   1     -39.847  19.369  -5.116  0.00  0.00    -0.025 A 
ATOM     24  C15 NON d   1     -40.427  20.007  -6.219  0.00  0.00     0.012 A 
ATOM     25  C16 NON d   1     -41.805  19.880  -6.453  0.00  0.00     0.002 A 
ATOM     26  C17 NON d   1     -42.641  19.130  -5.607  0.00  0.00     0.014 A 
ENDBRANCH   1  14
TORSDOF 7
ENDMDL
MODEL 3
REMARK VINA RESULT:   -12.894      1.312      2.880
REMARK INTER + INTRA:         -15.645
REMARK INTER:                 -14.982
REMARK INTRA:                  -0.663
REMARK CONF_INDEPENDENT:        2.088
REMARK UNBOUND:                -0.663
REMARK  7 active torsions:
REMARK  status: ('A' for Active; 'I' for Inactive)
REMARK    1  A    between atoms: C2_2  and  C5_5 
REMARK    2  A    between atoms: C5_5  and  N1_6 
REMARK    3  A    between atoms: C6_7  and  N1_6 
REMARK    4  A    between atoms: C6_7  and  O1_8 
REMARK    5  A    between atoms: C6_7  and  C7_9 
REMARK    6  A    between atoms: C7_9  and  O2_10 
REMARK    7  A    between atoms: N2_11  and  O2_10 
ROOT
ATOM      1  O2  NON d   1     -44.485  17.840  -4.404  0.00  0.00    -0.252 OA
ENDROOT
BRANCH   1   2
ATOM      2  C7  NON d   1     -44.755  16.572  -5.060  0.00  0.00     0.265 C 
BRANCH   2   3
ATOM      3  C6  NON d   1     -46.288  16.503  -5.290  0.00  0.00     0.345 C 
BRANCH   3   4
ATOM      4  N1  NON d   1     -47.225  16.682  -4.132  0.00  0.00    -0.046 N 
ATOM      5  H12 NON d   1     -47.020  17.639  -3.824  0.00  0.00     0.280 HD
ATOM      6  H13 NON d   1     -46.839  16.082  -3.395  0.00  0.00     0.280 HD
BRANCH   4   7
ATOM      7  C5  NON d   1     -48.732  16.503  -4.060  0.00  0.00     0.243 C 
BRANCH   7   8
ATOM      8  C2  NON d   1     -49.473  15.799  -2.651  0.00  0.00    -0.027 C 
ATOM      9  C1  NON d   1     -50.958  16.485  -2.415  0.00  0.00     0.016 C 
ATOM     10  C3  NON d   1     -48.885  16.879  -1.726  0.00  0.00     0.016 C 
ATOM     11  C4  NON d   1     -50.063  14.718  -3.577  0.00  0.00     0.016 C 
ENDBRANCH   7   8
ENDBRANCH   4   7
ENDBRANCH   3   4
BRANCH   3  12
ATOM     12  O1  NON d   1     -46.666  15.378  -6.054  0.00  0.00    -0.368 OA
ATOM     13  H15 NON d   1     -46.889  15.713  -6.945  0.00  0.00     0.212 HD
ENDBRANCH   3  12
ENDBRANCH   2   3
ENDBRANCH   1   2
BRANCH   1  14
ATOM     14  N2  NON d   1     -43.901  18.750  -5.304  0.00  0.00    -0.137 NA
ATOM     15  C8  NON d   1     -42.618  18.934  -5.105  0.00  0.00     0.077 A 
ATOM     16  C9  NON d   1     -41.816  19.877  -6.069  0.00  0.00     0.102 A 
ATOM     17  C18 NON d   1     -41.693  18.414  -4.118  0.00  0.00     0.003 A 
ATOM     18  C10 NON d   1     -40.440  19.764  -5.491  0.00  0.00    -0.040 A 
ATOM     19  C11 NON d   1     -39.269  20.384  -5.927  0.00  0.00     0.008 A 
ATOM     20  C19 NON d   1     -40.430  18.926  -4.390  0.00  0.00    -0.007 A 
ATOM     21  C12 NON d   1     -38.098  20.115  -5.195  0.00  0.00     0.001 A 
ATOM     22  C13 NON d   1     -38.099  19.262  -4.078  0.00  0.00     0.012 A 
ATOM     23  C14 NON d   1     -39.294  18.651  -3.662  0.00  0.00    -0.025 A 
ATOM     24  C15 NON d   1     -39.440  17.788  -2.569  0.00  0.00     0.012 A 
ATOM     25  C16 NON d   1     -40.704  17.261  -2.261  0.00  0.00     0.002 A 
ATOM     26  C17 NON d   1     -41.847  17.567  -3.020  0.00  0.00     0.014 A 
ENDBRANCH   1  14
TORSDOF 7
ENDMDL
