MODEL 1
REMARK VINA RESULT:   -28.617      0.000      0.000
REMARK INTER + INTRA:         -32.681
REMARK INTER:                 -31.003
REMARK INTRA:                  -1.678
REMARK CONF_INDEPENDENT:        2.386
REMARK UNBOUND:                -1.678
REMARK  8 active torsions:
REMARK  status: ('A' for Active; 'I' for Inactive)
REMARK    1  A    between atoms: O1_2  and  C2_3 
REMARK    2  A    between atoms: C8_10  and  N2_11 
REMARK       I    between atoms: N2_11  and  C9_12 
REMARK       I    between atoms: C9_12  and  N3_14 
REMARK    3  A    between atoms: N3_14  and  C10_15 
REMARK    4  A    between atoms: C11_16  and  C10_15 
REMARK    5  A    between atoms: C11_16  and  O3_17 
REMARK    6  A    between atoms: C11_16  and  C12_18 
REMARK    7  A    between atoms: C12_18  and  O4_19 
REMARK    8  A    between atoms: O4_19  and  C13_20 
ROOT
ATOM      1  C2  NON d   1     -42.397  17.897  -3.748  0.00  0.00     0.095 A 
ATOM      2  C3  NON d   1     -43.188  16.900  -3.183  0.00  0.00     0.040 A 
ATOM      3  C4  NON d   1     -44.462  16.655  -3.698  0.00  0.00     0.025 A 
ATOM      4  C5  NON d   1     -44.938  17.400  -4.781  0.00  0.00     0.046 A 
ATOM      5  C6  NON d   1     -46.224  17.113  -5.346  0.00  0.00     0.099 C 
ATOM      6  N1  NON d   1     -47.259  16.878  -5.812  0.00  0.00    -0.191 NA
ATOM      7  C7  NON d   1     -44.152  18.422  -5.331  0.00  0.00     0.055 A 
ATOM      8  C8  NON d   1     -42.887  18.708  -4.803  0.00  0.00     0.071 A 
ENDROOT
BRANCH   8   9
ATOM      9  N2  NON d   1     -42.152  19.754  -5.440  0.00  0.00    -0.306 N 
ATOM     10  C9  NON d   1     -40.786  19.813  -5.648  0.00  0.00     0.320 C 
ATOM     11  O2  NON d   1     -39.927  19.142  -5.089  0.00  0.00    -0.247 OA
ATOM     12  N3  NON d   1     -40.451  20.755  -6.606  0.00  0.00    -0.340 N 
ATOM     13  H8  NON d   1     -41.204  21.201  -7.111  0.00  0.00     0.164 HD
ATOM     14  H7  NON d   1     -42.631  20.630  -5.577  0.00  0.00     0.171 HD
BRANCH  12  15
ATOM     15  C10 NON d   1     -39.238  20.559  -7.391  0.00  0.00     0.158 C 
BRANCH  15  16
ATOM     16  C11 NON d   1     -39.451  20.341  -8.901  0.00  0.00     0.160 C 
BRANCH  16  17
ATOM     17  O3  NON d   1     -40.848  20.262  -9.219  0.00  0.00    -0.392 OA
ATOM     18  H12 NON d   1     -41.123  21.175  -9.443  0.00  0.00     0.210 HD
ENDBRANCH  16  17
BRANCH  16  19
ATOM     19  C12 NON d   1     -38.743  21.416  -9.741  0.00  0.00     0.209 C 
BRANCH  19  20
ATOM     20  O4  NON d   1     -39.634  21.821 -10.795  0.00  0.00    -0.348 OA
BRANCH  20  21
ATOM     21  C13 NON d   1     -39.080  22.070 -12.024  0.00  0.00     0.071 A 
ATOM     22  C14 NON d   1     -39.723  23.065 -12.773  0.00  0.00     0.037 A 
ATOM     23  C15 NON d   1     -39.261  23.422 -14.044  0.00  0.00     0.006 A 
ATOM     24  C16 NON d   1     -38.151  22.777 -14.581  0.00  0.00     0.042 A 
ATOM     25  C17 NON d   1     -37.520  21.785 -13.841  0.00  0.00     0.119 A 
ATOM     26  F1  NON d   1     -36.456  21.157 -14.362  0.00  0.00    -0.206 F 
ATOM     27  C18 NON d   1     -37.969  21.428 -12.570  0.00  0.00     0.079 A 
ENDBRANCH  20  21
ENDBRANCH  19  20
ENDBRANCH  16  19
ENDBRANCH  15  16
ENDBRANCH  12  15
ENDBRANCH   8   9
BRANCH   1  28
ATOM     28  O1  NON d   1     -41.098  18.057  -3.439  0.00  0.00    -0.354 OA
ATOM     29  C1  NON d   1     -40.427  17.565  -2.143  0.00  0.00     0.210 C 
ENDBRANCH   1  28
TORSDOF 8
ENDMDL
MODEL 2
REMARK VINA RESULT:   -28.387      1.996      2.593
REMARK INTER + INTRA:         -32.654
REMARK INTER:                 -30.773
REMARK INTRA:                  -1.880
REMARK CONF_INDEPENDENT:        2.386
REMARK UNBOUND:                -1.880
REMARK  8 active torsions:
REMARK  status: ('A' for Active; 'I' for Inactive)
REMARK    1  A    between atoms: O1_2  and  C2_3 
REMARK    2  A    between atoms: C8_10  and  N2_11 
REMARK       I    between atoms: N2_11  and  C9_12 
REMARK       I    between atoms: C9_12  and  N3_14 
REMARK    3  A    between atoms: N3_14  and  C10_15 
REMARK    4  A    between atoms: C11_16  and  C10_15 
REMARK    5  A    between atoms: C11_16  and  O3_17 
REMARK    6  A    between atoms: C11_16  and  C12_18 
REMARK    7  A    between atoms: C12_18  and  O4_19 
REMARK    8  A    between atoms: O4_19  and  C13_20 
ROOT
ATOM      1  C2  NON d   1     -42.498  17.826  -3.710  0.00  0.00     0.095 A 
ATOM      2  C3  NON d   1     -43.278  16.806  -3.169  0.00  0.00     0.040 A 
ATOM      3  C4  NON d   1     -44.548  16.557  -3.694  0.00  0.00     0.025 A 
ATOM      4  C5  NON d   1     -45.029  17.320  -4.762  0.00  0.00     0.046 A 
ATOM      5  C6  NON d   1     -46.310  17.029  -5.337  0.00  0.00     0.099 C 
ATOM      6  N1  NON d   1     -47.341  16.792  -5.811  0.00  0.00    -0.191 NA
ATOM      7  C7  NON d   1     -44.255  18.364  -5.286  0.00  0.00     0.055 A 
ATOM      8  C8  NON d   1     -42.995  18.653  -4.748  0.00  0.00     0.071 A 
ENDROOT
BRANCH   8   9
ATOM      9  N2  NON d   1     -42.272  19.723  -5.360  0.00  0.00    -0.306 N 
ATOM     10  C9  NON d   1     -40.910  19.788  -5.594  0.00  0.00     0.320 C 
ATOM     11  O2  NON d   1     -40.041  19.094  -5.081  0.00  0.00    -0.247 OA
ATOM     12  N3  NON d   1     -40.593  20.766  -6.522  0.00  0.00    -0.340 N 
ATOM     13  H8  NON d   1     -41.356  21.232  -6.993  0.00  0.00     0.164 HD
ATOM     14  H7  NON d   1     -42.751  20.604  -5.451  0.00  0.00     0.171 HD
BRANCH  12  15
ATOM     15  C10 NON d   1     -39.399  20.598  -7.340  0.00  0.00     0.158 C 
BRANCH  15  16
ATOM     16  C11 NON d   1     -39.645  20.166  -8.798  0.00  0.00     0.160 C 
BRANCH  16  17
ATOM     17  O3  NON d   1     -41.026  20.324  -9.157  0.00  0.00    -0.392 OA
ATOM     18  H12 NON d   1     -41.034  20.935  -9.922  0.00  0.00     0.210 HD
ENDBRANCH  16  17
BRANCH  16  19
ATOM     19  C12 NON d   1     -38.721  20.905  -9.779  0.00  0.00     0.209 C 
BRANCH  19  20
ATOM     20  O4  NON d   1     -39.533  21.762 -10.601  0.00  0.00    -0.348 OA
BRANCH  20  21
ATOM     21  C13 NON d   1     -39.597  23.087 -10.256  0.00  0.00     0.071 A 
ATOM     22  C14 NON d   1     -40.162  23.344  -8.998  0.00  0.00     0.037 A 
ATOM     23  C15 NON d   1     -40.286  24.652  -8.519  0.00  0.00     0.006 A 
ATOM     24  C16 NON d   1     -39.852  25.718  -9.300  0.00  0.00     0.042 A 
ATOM     25  C17 NON d   1     -39.301  25.462 -10.550  0.00  0.00     0.119 A 
ATOM     26  F1  NON d   1     -38.891  26.489 -11.307  0.00  0.00    -0.206 F 
ATOM     27  C18 NON d   1     -39.166  24.161 -11.033  0.00  0.00     0.079 A 
ENDBRANCH  20  21
ENDBRANCH  19  20
ENDBRANCH  16  19
ENDBRANCH  15  16
ENDBRANCH  12  15
ENDBRANCH   8   9
BRANCH   1  28
ATOM     28  O1  NON d   1     -41.202  17.995  -3.393  0.00  0.00    -0.354 OA
ATOM     29  C1  NON d   1     -40.618  17.907  -1.971  0.00  0.00     0.210 C 
ENDBRANCH   1  28
TORSDOF 8
ENDMDL
MODEL 3
REMARK VINA RESULT:   -28.265      1.473      1.866
REMARK INTER + INTRA:         -32.678
REMARK INTER:                 -30.652
REMARK INTRA:                  -2.026
REMARK CONF_INDEPENDENT:        2.386
REMARK UNBOUND:                -2.026
REMARK  8 active torsions:
REMARK  status: ('A' for Active; 'I' for Inactive)
REMARK    1  A    between atoms: O1_2  and  C2_3 
REMARK    2  A    between atoms: C8_10  and  N2_11 
REMARK       I    between atoms: N2_11  and  C9_12 
REMARK       I    between atoms: C9_12  and  N3_14 
REMARK    3  A    between atoms: N3_14  and  C10_15 
REMARK    4  A    between atoms: C11_16  and  C10_15 
REMARK    5  A    between atoms: C11_16  and  O3_17 
REMARK    6  A    between atoms: C11_16  and  C12_18 
REMARK    7  A    between atoms: C12_18  and  O4_19 
REMARK    8  A    between atoms: O4_19  and  C13_20 
ROOT
ATOM      1  C2  NON d   1     -42.706  18.170  -3.509  0.00  0.00     0.095 A 
ATOM      2  C3  NON d   1     -43.553  17.247  -2.898  0.00  0.00     0.040 A 
ATOM      3  C4  NON d   1     -44.715  16.837  -3.555  0.00  0.00     0.025 A 
ATOM      4  C5  NON d   1     -45.022  17.343  -4.822  0.00  0.00     0.046 A 
ATOM      5  C6  NON d   1     -46.186  16.881  -5.521  0.00  0.00     0.099 C 
ATOM      6  N1  NON d   1     -47.121  16.505  -6.094  0.00  0.00    -0.191 NA
ATOM      7  C7  NON d   1     -44.184  18.292  -5.422  0.00  0.00     0.055 A 
ATOM      8  C8  NON d   1     -43.035  18.744  -4.763  0.00  0.00     0.071 A 
ENDROOT
BRANCH   8   9
ATOM      9  N2  NON d   1     -42.233  19.699  -5.461  0.00  0.00    -0.306 N 
ATOM     10  C9  NON d   1     -40.856  19.700  -5.593  0.00  0.00     0.320 C 
ATOM     11  O2  NON d   1     -40.051  19.069  -4.920  0.00  0.00    -0.247 OA
ATOM     12  N3  NON d   1     -40.439  20.528  -6.622  0.00  0.00    -0.340 N 
ATOM     13  H8  NON d   1     -41.149  20.937  -7.214  0.00  0.00     0.164 HD
ATOM     14  H7  NON d   1     -42.675  20.568  -5.714  0.00  0.00     0.171 HD
BRANCH  12  15
ATOM     15  C10 NON d   1     -39.192  20.219  -7.312  0.00  0.00     0.158 C 
BRANCH  15  16
ATOM     16  C11 NON d   1     -39.264  20.220  -8.850  0.00  0.00     0.160 C 
BRANCH  16  17
ATOM     17  O3  NON d   1     -40.620  20.344  -9.303  0.00  0.00    -0.392 OA
ATOM     18  H12 NON d   1     -40.625  21.098  -9.928  0.00  0.00     0.210 HD
ENDBRANCH  16  17
BRANCH  16  19
ATOM     19  C12 NON d   1     -38.364  21.303  -9.466  0.00  0.00     0.209 C 
BRANCH  19  20
ATOM     20  O4  NON d   1     -38.655  21.383 -10.872  0.00  0.00    -0.348 OA
BRANCH  20  21
ATOM     21  C13 NON d   1     -39.320  22.498 -11.313  0.00  0.00     0.071 A 
ATOM     22  C14 NON d   1     -39.441  23.527 -10.369  0.00  0.00     0.037 A 
ATOM     23  C15 NON d   1     -40.094  24.722 -10.687  0.00  0.00     0.006 A 
ATOM     24  C16 NON d   1     -40.641  24.895 -11.954  0.00  0.00     0.042 A 
ATOM     25  C17 NON d   1     -40.528  23.870 -12.886  0.00  0.00     0.119 A 
ATOM     26  F1  NON d   1     -41.062  24.032 -14.104  0.00  0.00    -0.206 F 
ATOM     27  C18 NON d   1     -39.872  22.677 -12.581  0.00  0.00     0.079 A 
ENDBRANCH  20  21
ENDBRANCH  19  20
ENDBRANCH  16  19
ENDBRANCH  15  16
ENDBRANCH  12  15
ENDBRANCH   8   9
BRANCH   1  28
ATOM     28  O1  NON d   1     -41.483  18.460  -3.031  0.00  0.00    -0.354 OA
ATOM     29  C1  NON d   1     -40.487  17.435  -2.458  0.00  0.00     0.210 C 
ENDBRANCH   1  28
TORSDOF 8
ENDMDL
MODEL 4
REMARK VINA RESULT:   -27.853      5.711      8.165
REMARK INTER + INTRA:         -32.759
REMARK INTER:                 -30.239
REMARK INTRA:                  -2.520
REMARK CONF_INDEPENDENT:        2.386
REMARK UNBOUND:                -2.520
REMARK  8 active torsions:
REMARK  status: ('A' for Active; 'I' for Inactive)
REMARK    1  A    between atoms: O1_2  and  C2_3 
REMARK    2  A    between atoms: C8_10  and  N2_11 
REMARK       I    between atoms: N2_11  and  C9_12 
REMARK       I    between atoms: C9_12  and  N3_14 
REMARK    3  A    between atoms: N3_14  and  C10_15 
REMARK    4  A    between atoms: C11_16  and  C10_15 
REMARK    5  A    between atoms: C11_16  and  O3_17 
REMARK    6  A    between atoms: C11_16  and  C12_18 
REMARK    7  A    between atoms: C12_18  and  O4_19 
REMARK    8  A    between atoms: O4_19  and  C13_20 
ROOT
ATOM      1  C2  NON d   1     -42.184  17.954  -3.860  0.00  0.00     0.095 A 
ATOM      2  C3  NON d   1     -42.906  16.878  -3.348  0.00  0.00     0.040 A 
ATOM      3  C4  NON d   1     -44.190  16.616  -3.832  0.00  0.00     0.025 A 
ATOM      4  C5  NON d   1     -44.743  17.424  -4.831  0.00  0.00     0.046 A 
ATOM      5  C6  NON d   1     -46.038  17.123  -5.367  0.00  0.00     0.099 C 
ATOM      6  N1  NON d   1     -47.081  16.879  -5.810  0.00  0.00    -0.191 NA
ATOM      7  C7  NON d   1     -44.026  18.523  -5.324  0.00  0.00     0.055 A 
ATOM      8  C8  NON d   1     -42.754  18.823  -4.824  0.00  0.00     0.071 A 
ENDROOT
BRANCH   8   9
ATOM      9  N2  NON d   1     -42.092  19.951  -5.401  0.00  0.00    -0.306 N 
ATOM     10  C9  NON d   1     -41.393  20.943  -4.738  0.00  0.00     0.320 C 
ATOM     11  O2  NON d   1     -41.443  21.205  -3.543  0.00  0.00    -0.247 OA
ATOM     12  N3  NON d   1     -40.575  21.658  -5.596  0.00  0.00    -0.340 N 
ATOM     13  H8  NON d   1     -40.490  21.330  -6.548  0.00  0.00     0.164 HD
ATOM     14  H7  NON d   1     -42.317  20.171  -6.358  0.00  0.00     0.171 HD
BRANCH  12  15
ATOM     15  C10 NON d   1     -39.363  22.271  -5.065  0.00  0.00     0.158 C 
BRANCH  15  16
ATOM     16  C11 NON d   1     -39.582  23.458  -4.108  0.00  0.00     0.160 C 
BRANCH  16  17
ATOM     17  O3  NON d   1     -40.968  23.823  -4.048  0.00  0.00    -0.392 OA
ATOM     18  H12 NON d   1     -41.404  23.131  -3.509  0.00  0.00     0.210 HD
ENDBRANCH  16  17
BRANCH  16  19
ATOM     19  C12 NON d   1     -39.014  23.176  -2.707  0.00  0.00     0.209 C 
BRANCH  19  20
ATOM     20  O4  NON d   1     -40.046  22.557  -1.920  0.00  0.00    -0.348 OA
BRANCH  20  21
ATOM     21  C13 NON d   1     -40.404  23.180  -0.753  0.00  0.00     0.071 A 
ATOM     22  C14 NON d   1     -40.245  22.405   0.405  0.00  0.00     0.037 A 
ATOM     23  C15 NON d   1     -40.569  22.918   1.665  0.00  0.00     0.006 A 
ATOM     24  C16 NON d   1     -41.066  24.213   1.776  0.00  0.00     0.042 A 
ATOM     25  C17 NON d   1     -41.233  24.976   0.626  0.00  0.00     0.119 A 
ATOM     26  F1  NON d   1     -41.719  26.220   0.732  0.00  0.00    -0.206 F 
ATOM     27  C18 NON d   1     -40.904  24.476  -0.634  0.00  0.00     0.079 A 
ENDBRANCH  20  21
ENDBRANCH  19  20
ENDBRANCH  16  19
ENDBRANCH  15  16
ENDBRANCH  12  15
ENDBRANCH   8   9
BRANCH   1  28
ATOM     28  O1  NON d   1     -40.881  18.149  -3.589  0.00  0.00    -0.354 OA
ATOM     29  C1  NON d   1     -40.296  18.415  -2.190  0.00  0.00     0.210 C 
ENDBRANCH   1  28
TORSDOF 8
ENDMDL
MODEL 5
REMARK VINA RESULT:   -27.567      3.357      5.079
REMARK INTER + INTRA:         -32.616
REMARK INTER:                 -29.953
REMARK INTRA:                  -2.663
REMARK CONF_INDEPENDENT:        2.386
REMARK UNBOUND:                -2.663
REMARK  8 active torsions:
REMARK  status: ('A' for Active; 'I' for Inactive)
REMARK    1  A    between atoms: O1_2  and  C2_3 
REMARK    2  A    between atoms: C8_10  and  N2_11 
REMARK       I    between atoms: N2_11  and  C9_12 
REMARK       I    between atoms: C9_12  and  N3_14 
REMARK    3  A    between atoms: N3_14  and  C10_15 
REMARK    4  A    between atoms: C11_16  and  C10_15 
REMARK    5  A    between atoms: C11_16  and  O3_17 
REMARK    6  A    between atoms: C11_16  and  C12_18 
REMARK    7  A    between atoms: C12_18  and  O4_19 
REMARK    8  A    between atoms: O4_19  and  C13_20 
ROOT
ATOM      1  C2  NON d   1     -42.519  18.022  -3.806  0.00  0.00     0.095 A 
ATOM      2  C3  NON d   1     -43.321  17.078  -3.167  0.00  0.00     0.040 A 
ATOM      3  C4  NON d   1     -44.595  16.803  -3.669  0.00  0.00     0.025 A 
ATOM      4  C5  NON d   1     -45.058  17.464  -4.811  0.00  0.00     0.046 A 
ATOM      5  C6  NON d   1     -46.344  17.143  -5.358  0.00  0.00     0.099 C 
ATOM      6  N1  NON d   1     -47.379  16.880  -5.811  0.00  0.00    -0.191 NA
ATOM      7  C7  NON d   1     -44.261  18.433  -5.435  0.00  0.00     0.055 A 
ATOM      8  C8  NON d   1     -42.997  18.750  -4.924  0.00  0.00     0.071 A 
ENDROOT
BRANCH   8   9
ATOM      9  N2  NON d   1     -42.250  19.737  -5.638  0.00  0.00    -0.306 N 
ATOM     10  C9  NON d   1     -41.242  19.522  -6.559  0.00  0.00     0.320 C 
ATOM     11  O2  NON d   1     -40.608  18.488  -6.728  0.00  0.00    -0.247 OA
ATOM     12  N3  NON d   1     -40.997  20.647  -7.327  0.00  0.00    -0.340 N 
ATOM     13  H8  NON d   1     -41.621  21.435  -7.221  0.00  0.00     0.164 HD
ATOM     14  H7  NON d   1     -42.310  20.685  -5.303  0.00  0.00     0.171 HD
BRANCH  12  15
ATOM     15  C10 NON d   1     -40.475  20.478  -8.678  0.00  0.00     0.158 C 
BRANCH  15  16
ATOM     16  C11 NON d   1     -39.256  21.349  -9.035  0.00  0.00     0.160 C 
BRANCH  16  17
ATOM     17  O3  NON d   1     -39.619  22.735  -9.117  0.00  0.00    -0.392 OA
ATOM     18  H12 NON d   1     -39.210  23.165  -8.338  0.00  0.00     0.210 HD
ENDBRANCH  16  17
BRANCH  16  19
ATOM     19  C12 NON d   1     -38.089  21.131  -8.059  0.00  0.00     0.209 C 
BRANCH  19  20
ATOM     20  O4  NON d   1     -38.086  22.214  -7.113  0.00  0.00    -0.348 OA
BRANCH  20  21
ATOM     21  C13 NON d   1     -38.802  22.040  -5.957  0.00  0.00     0.071 A 
ATOM     22  C14 NON d   1     -38.507  20.866  -5.249  0.00  0.00     0.037 A 
ATOM     23  C15 NON d   1     -39.162  20.563  -4.051  0.00  0.00     0.006 A 
ATOM     24  C16 NON d   1     -40.127  21.433  -3.553  0.00  0.00     0.042 A 
ATOM     25  C17 NON d   1     -40.425  22.591  -4.261  0.00  0.00     0.119 A 
ATOM     26  F1  NON d   1     -41.361  23.425  -3.786  0.00  0.00    -0.206 F 
ATOM     27  C18 NON d   1     -39.772  22.905  -5.452  0.00  0.00     0.079 A 
ENDBRANCH  20  21
ENDBRANCH  19  20
ENDBRANCH  16  19
ENDBRANCH  15  16
ENDBRANCH  12  15
ENDBRANCH   8   9
BRANCH   1  28
ATOM     28  O1  NON d   1     -41.220  18.196  -3.502  0.00  0.00    -0.354 OA
ATOM     29  C1  NON d   1     -40.630  18.169  -2.080  0.00  0.00     0.210 C 
ENDBRANCH   1  28
TORSDOF 8
ENDMDL
MODEL 6
REMARK VINA RESULT:   -27.505      3.077      4.492
REMARK INTER + INTRA:         -32.485
REMARK INTER:                 -29.891
REMARK INTRA:                  -2.594
REMARK CONF_INDEPENDENT:        2.386
REMARK UNBOUND:                -2.594
REMARK  8 active torsions:
REMARK  status: ('A' for Active; 'I' for Inactive)
REMARK    1  A    between atoms: O1_2  and  C2_3 
REMARK    2  A    between atoms: C8_10  and  N2_11 
REMARK       I    between atoms: N2_11  and  C9_12 
REMARK       I    between atoms: C9_12  and  N3_14 
REMARK    3  A    between atoms: N3_14  and  C10_15 
REMARK    4  A    between atoms: C11_16  and  C10_15 
REMARK    5  A    between atoms: C11_16  and  O3_17 
REMARK    6  A    between atoms: C11_16  and  C12_18 
REMARK    7  A    between atoms: C12_18  and  O4_19 
REMARK    8  A    between atoms: O4_19  and  C13_20 
ROOT
ATOM      1  C2  NON d   1     -42.378  18.204  -3.701  0.00  0.00     0.095 A 
ATOM      2  C3  NON d   1     -43.161  17.271  -3.024  0.00  0.00     0.040 A 
ATOM      3  C4  NON d   1     -44.395  16.891  -3.556  0.00  0.00     0.025 A 
ATOM      4  C5  NON d   1     -44.838  17.437  -4.765  0.00  0.00     0.046 A 
ATOM      5  C6  NON d   1     -46.079  17.006  -5.338  0.00  0.00     0.099 C 
ATOM      6  N1  NON d   1     -47.078  16.655  -5.812  0.00  0.00    -0.191 NA
ATOM      7  C7  NON d   1     -44.062  18.396  -5.429  0.00  0.00     0.055 A 
ATOM      8  C8  NON d   1     -42.840  18.818  -4.892  0.00  0.00     0.071 A 
ENDROOT
BRANCH   8   9
ATOM      9  N2  NON d   1     -42.111  19.786  -5.650  0.00  0.00    -0.306 N 
ATOM     10  C9  NON d   1     -41.127  19.545  -6.591  0.00  0.00     0.320 C 
ATOM     11  O2  NON d   1     -40.498  18.506  -6.749  0.00  0.00    -0.247 OA
ATOM     12  N3  NON d   1     -40.901  20.650  -7.394  0.00  0.00    -0.340 N 
ATOM     13  H8  NON d   1     -41.522  21.441  -7.291  0.00  0.00     0.164 HD
ATOM     14  H7  NON d   1     -42.162  20.742  -5.338  0.00  0.00     0.171 HD
BRANCH  12  15
ATOM     15  C10 NON d   1     -40.413  20.445  -8.752  0.00  0.00     0.158 C 
BRANCH  15  16
ATOM     16  C11 NON d   1     -39.699  21.650  -9.393  0.00  0.00     0.160 C 
BRANCH  16  17
ATOM     17  O3  NON d   1     -40.143  22.883  -8.807  0.00  0.00    -0.392 OA
ATOM     18  H12 NON d   1     -39.502  23.086  -8.095  0.00  0.00     0.210 HD
ENDBRANCH  16  17
BRANCH  16  19
ATOM     19  C12 NON d   1     -38.170  21.514  -9.324  0.00  0.00     0.209 C 
BRANCH  19  20
ATOM     20  O4  NON d   1     -37.754  21.789  -7.975  0.00  0.00    -0.348 OA
BRANCH  20  21
ATOM     21  C13 NON d   1     -37.494  20.713  -7.167  0.00  0.00     0.071 A 
ATOM     22  C14 NON d   1     -37.256  19.508  -7.843  0.00  0.00     0.037 A 
ATOM     23  C15 NON d   1     -36.975  18.332  -7.142  0.00  0.00     0.006 A 
ATOM     24  C16 NON d   1     -36.937  18.349  -5.751  0.00  0.00     0.042 A 
ATOM     25  C17 NON d   1     -37.182  19.542  -5.082  0.00  0.00     0.119 A 
ATOM     26  F1  NON d   1     -37.155  19.558  -3.742  0.00  0.00    -0.206 F 
ATOM     27  C18 NON d   1     -37.456  20.722  -5.773  0.00  0.00     0.079 A 
ENDBRANCH  20  21
ENDBRANCH  19  20
ENDBRANCH  16  19
ENDBRANCH  15  16
ENDBRANCH  12  15
ENDBRANCH   8   9
BRANCH   1  28
ATOM     28  O1  NON d   1     -41.106  18.470  -3.357  0.00  0.00    -0.354 OA
ATOM     29  C1  NON d   1     -40.213  17.564  -2.489  0.00  0.00     0.210 C 
ENDBRANCH   1  28
TORSDOF 8
ENDMDL
MODEL 7
REMARK VINA RESULT:   -27.400      3.258      3.788
REMARK INTER + INTRA:         -30.790
REMARK INTER:                 -29.787
REMARK INTRA:                  -1.003
REMARK CONF_INDEPENDENT:        2.386
REMARK UNBOUND:                -1.003
REMARK  8 active torsions:
REMARK  status: ('A' for Active; 'I' for Inactive)
REMARK    1  A    between atoms: O1_2  and  C2_3 
REMARK    2  A    between atoms: C8_10  and  N2_11 
REMARK       I    between atoms: N2_11  and  C9_12 
REMARK       I    between atoms: C9_12  and  N3_14 
REMARK    3  A    between atoms: N3_14  and  C10_15 
REMARK    4  A    between atoms: C11_16  and  C10_15 
REMARK    5  A    between atoms: C11_16  and  O3_17 
REMARK    6  A    between atoms: C11_16  and  C12_18 
REMARK    7  A    between atoms: C12_18  and  O4_19 
REMARK    8  A    between atoms: O4_19  and  C13_20 
ROOT
ATOM      1  C2  NON d   1     -42.303  18.216  -3.756  0.00  0.00     0.095 A 
ATOM      2  C3  NON d   1     -42.986  17.116  -3.244  0.00  0.00     0.040 A 
ATOM      3  C4  NON d   1     -44.243  16.785  -3.756  0.00  0.00     0.025 A 
ATOM      4  C5  NON d   1     -44.807  17.550  -4.782  0.00  0.00     0.046 A 
ATOM      5  C6  NON d   1     -46.073  17.180  -5.345  0.00  0.00     0.099 C 
ATOM      6  N1  NON d   1     -47.092  16.879  -5.810  0.00  0.00    -0.191 NA
ATOM      7  C7  NON d   1     -44.131  18.674  -5.276  0.00  0.00     0.055 A 
ATOM      8  C8  NON d   1     -42.888  19.042  -4.749  0.00  0.00     0.071 A 
ENDROOT
BRANCH   8   9
ATOM      9  N2  NON d   1     -42.266  20.191  -5.328  0.00  0.00    -0.306 N 
ATOM     10  C9  NON d   1     -41.315  21.011  -4.748  0.00  0.00     0.320 C 
ATOM     11  O2  NON d   1     -41.037  21.089  -3.558  0.00  0.00    -0.247 OA
ATOM     12  N3  NON d   1     -40.659  21.786  -5.690  0.00  0.00    -0.340 N 
ATOM     13  H8  NON d   1     -40.851  21.602  -6.666  0.00  0.00     0.164 HD
ATOM     14  H7  NON d   1     -42.694  20.573  -6.156  0.00  0.00     0.171 HD
BRANCH  12  15
ATOM     15  C10 NON d   1     -39.292  22.214  -5.420  0.00  0.00     0.158 C 
BRANCH  15  16
ATOM     16  C11 NON d   1     -38.752  23.333  -6.331  0.00  0.00     0.160 C 
BRANCH  16  17
ATOM     17  O3  NON d   1     -38.631  24.569  -5.612  0.00  0.00    -0.392 OA
ATOM     18  H12 NON d   1     -38.744  25.278  -6.278  0.00  0.00     0.210 HD
ENDBRANCH  16  17
BRANCH  16  19
ATOM     19  C12 NON d   1     -37.425  22.939  -6.999  0.00  0.00     0.209 C 
BRANCH  19  20
ATOM     20  O4  NON d   1     -37.725  22.283  -8.243  0.00  0.00    -0.348 OA
BRANCH  20  21
ATOM     21  C13 NON d   1     -38.114  20.969  -8.182  0.00  0.00     0.071 A 
ATOM     22  C14 NON d   1     -39.500  20.762  -8.165  0.00  0.00     0.037 A 
ATOM     23  C15 NON d   1     -40.034  19.471  -8.107  0.00  0.00     0.006 A 
ATOM     24  C16 NON d   1     -39.182  18.372  -8.057  0.00  0.00     0.042 A 
ATOM     25  C17 NON d   1     -37.808  18.580  -8.064  0.00  0.00     0.119 A 
ATOM     26  F1  NON d   1     -36.986  17.523  -8.007  0.00  0.00    -0.206 F 
ATOM     27  C18 NON d   1     -37.266  19.864  -8.130  0.00  0.00     0.079 A 
ENDBRANCH  20  21
ENDBRANCH  19  20
ENDBRANCH  16  19
ENDBRANCH  15  16
ENDBRANCH  12  15
ENDBRANCH   8   9
BRANCH   1  28
ATOM     28  O1  NON d   1     -41.018  18.478  -3.455  0.00  0.00    -0.354 OA
ATOM     29  C1  NON d   1     -40.425  18.496  -2.034  0.00  0.00     0.210 C 
ENDBRANCH   1  28
TORSDOF 8
ENDMDL
MODEL 8
REMARK VINA RESULT:   -27.281      1.670      2.457
REMARK INTER + INTRA:         -32.099
REMARK INTER:                 -29.667
REMARK INTRA:                  -2.432
REMARK CONF_INDEPENDENT:        2.386
REMARK UNBOUND:                -2.432
REMARK  8 active torsions:
REMARK  status: ('A' for Active; 'I' for Inactive)
REMARK    1  A    between atoms: O1_2  and  C2_3 
REMARK    2  A    between atoms: C8_10  and  N2_11 
REMARK       I    between atoms: N2_11  and  C9_12 
REMARK       I    between atoms: C9_12  and  N3_14 
REMARK    3  A    between atoms: N3_14  and  C10_15 
REMARK    4  A    between atoms: C11_16  and  C10_15 
REMARK    5  A    between atoms: C11_16  and  O3_17 
REMARK    6  A    between atoms: C11_16  and  C12_18 
REMARK    7  A    between atoms: C12_18  and  O4_19 
REMARK    8  A    between atoms: O4_19  and  C13_20 
ROOT
ATOM      1  C2  NON d   1     -42.292  17.966  -3.742  0.00  0.00     0.095 A 
ATOM      2  C3  NON d   1     -42.952  16.874  -3.184  0.00  0.00     0.040 A 
ATOM      3  C4  NON d   1     -44.214  16.512  -3.662  0.00  0.00     0.025 A 
ATOM      4  C5  NON d   1     -44.806  17.237  -4.701  0.00  0.00     0.046 A 
ATOM      5  C6  NON d   1     -46.077  16.833  -5.228  0.00  0.00     0.099 C 
ATOM      6  N1  NON d   1     -47.100  16.505  -5.665  0.00  0.00    -0.191 NA
ATOM      7  C7  NON d   1     -44.153  18.352  -5.242  0.00  0.00     0.055 A 
ATOM      8  C8  NON d   1     -42.906  18.753  -4.750  0.00  0.00     0.071 A 
ENDROOT
BRANCH   8   9
ATOM      9  N2  NON d   1     -42.309  19.891  -5.376  0.00  0.00    -0.306 N 
ATOM     10  C9  NON d   1     -41.387  20.763  -4.826  0.00  0.00     0.320 C 
ATOM     11  O2  NON d   1     -41.124  20.903  -3.639  0.00  0.00    -0.247 OA
ATOM     12  N3  NON d   1     -40.743  21.510  -5.798  0.00  0.00    -0.340 N 
ATOM     13  H8  NON d   1     -40.920  21.277  -6.765  0.00  0.00     0.164 HD
ATOM     14  H7  NON d   1     -42.739  20.222  -6.225  0.00  0.00     0.171 HD
BRANCH  12  15
ATOM     15  C10 NON d   1     -39.391  21.989  -5.536  0.00  0.00     0.158 C 
BRANCH  15  16
ATOM     16  C11 NON d   1     -38.265  20.964  -5.768  0.00  0.00     0.160 C 
BRANCH  16  17
ATOM     17  O3  NON d   1     -38.514  19.750  -5.043  0.00  0.00    -0.392 OA
ATOM     18  H12 NON d   1     -39.474  19.748  -4.848  0.00  0.00     0.210 HD
ENDBRANCH  16  17
BRANCH  16  19
ATOM     19  C12 NON d   1     -38.040  20.687  -7.264  0.00  0.00     0.209 C 
BRANCH  19  20
ATOM     20  O4  NON d   1     -39.309  20.784  -7.934  0.00  0.00    -0.348 OA
BRANCH  20  21
ATOM     21  C13 NON d   1     -39.398  21.659  -8.986  0.00  0.00     0.071 A 
ATOM     22  C14 NON d   1     -39.847  22.945  -8.650  0.00  0.00     0.037 A 
ATOM     23  C15 NON d   1     -39.982  23.937  -9.625  0.00  0.00     0.006 A 
ATOM     24  C16 NON d   1     -39.674  23.649 -10.951  0.00  0.00     0.042 A 
ATOM     25  C17 NON d   1     -39.238  22.373 -11.283  0.00  0.00     0.119 A 
ATOM     26  F1  NON d   1     -38.950  22.092 -12.562  0.00  0.00    -0.206 F 
ATOM     27  C18 NON d   1     -39.093  21.378 -10.317  0.00  0.00     0.079 A 
ENDBRANCH  20  21
ENDBRANCH  19  20
ENDBRANCH  16  19
ENDBRANCH  15  16
ENDBRANCH  12  15
ENDBRANCH   8   9
BRANCH   1  28
ATOM     28  O1  NON d   1     -41.006  18.253  -3.474  0.00  0.00    -0.354 OA
ATOM     29  C1  NON d   1     -40.233  17.782  -2.228  0.00  0.00     0.210 C 
ENDBRANCH   1  28
TORSDOF 8
ENDMDL
MODEL 9
REMARK VINA RESULT:   -26.628      4.987      6.812
REMARK INTER + INTRA:         -31.515
REMARK INTER:                 -29.014
REMARK INTRA:                  -2.501
REMARK CONF_INDEPENDENT:        2.386
REMARK UNBOUND:                -2.501
REMARK  8 active torsions:
REMARK  status: ('A' for Active; 'I' for Inactive)
REMARK    1  A    between atoms: O1_2  and  C2_3 
REMARK    2  A    between atoms: C8_10  and  N2_11 
REMARK       I    between atoms: N2_11  and  C9_12 
REMARK       I    between atoms: C9_12  and  N3_14 
REMARK    3  A    between atoms: N3_14  and  C10_15 
REMARK    4  A    between atoms: C11_16  and  C10_15 
REMARK    5  A    between atoms: C11_16  and  O3_17 
REMARK    6  A    between atoms: C11_16  and  C12_18 
REMARK    7  A    between atoms: C12_18  and  O4_19 
REMARK    8  A    between atoms: O4_19  and  C13_20 
ROOT
ATOM      1  C2  NON d   1     -42.270  17.931  -3.824  0.00  0.00     0.095 A 
ATOM      2  C3  NON d   1     -42.937  16.881  -3.197  0.00  0.00     0.040 A 
ATOM      3  C4  NON d   1     -44.221  16.529  -3.619  0.00  0.00     0.025 A 
ATOM      4  C5  NON d   1     -44.829  17.222  -4.671  0.00  0.00     0.046 A 
ATOM      5  C6  NON d   1     -46.125  16.826  -5.141  0.00  0.00     0.099 C 
ATOM      6  N1  NON d   1     -47.168  16.505  -5.531  0.00  0.00    -0.191 NA
ATOM      7  C7  NON d   1     -44.168  18.296  -5.282  0.00  0.00     0.055 A 
ATOM      8  C8  NON d   1     -42.896  18.687  -4.846  0.00  0.00     0.071 A 
ENDROOT
BRANCH   8   9
ATOM      9  N2  NON d   1     -42.294  19.781  -5.541  0.00  0.00    -0.306 N 
ATOM     10  C9  NON d   1     -41.338  20.657  -5.058  0.00  0.00     0.320 C 
ATOM     11  O2  NON d   1     -41.039  20.846  -3.886  0.00  0.00    -0.247 OA
ATOM     12  N3  NON d   1     -40.706  21.344  -6.081  0.00  0.00    -0.340 N 
ATOM     13  H8  NON d   1     -40.914  21.070  -7.031  0.00  0.00     0.164 HD
ATOM     14  H7  NON d   1     -42.740  20.082  -6.393  0.00  0.00     0.171 HD
BRANCH  12  15
ATOM     15  C10 NON d   1     -39.337  21.803  -5.878  0.00  0.00     0.158 C 
BRANCH  15  16
ATOM     16  C11 NON d   1     -38.639  21.276  -4.610  0.00  0.00     0.160 C 
BRANCH  16  17
ATOM     17  O3  NON d   1     -38.604  19.841  -4.599  0.00  0.00    -0.392 OA
ATOM     18  H12 NON d   1     -39.502  19.555  -4.333  0.00  0.00     0.210 HD
ENDBRANCH  16  17
BRANCH  16  19
ATOM     19  C12 NON d   1     -37.232  21.873  -4.441  0.00  0.00     0.209 C 
BRANCH  19  20
ATOM     20  O4  NON d   1     -37.162  22.498  -3.147  0.00  0.00    -0.348 OA
BRANCH  20  21
ATOM     21  C13 NON d   1     -38.334  22.625  -2.447  0.00  0.00     0.071 A 
ATOM     22  C14 NON d   1     -38.628  21.557  -1.587  0.00  0.00     0.037 A 
ATOM     23  C15 NON d   1     -39.791  21.558  -0.811  0.00  0.00     0.006 A 
ATOM     24  C16 NON d   1     -40.677  22.627  -0.895  0.00  0.00     0.042 A 
ATOM     25  C17 NON d   1     -40.389  23.680  -1.755  0.00  0.00     0.119 A 
ATOM     26  F1  NON d   1     -41.247  24.706  -1.843  0.00  0.00    -0.206 F 
ATOM     27  C18 NON d   1     -39.228  23.692  -2.528  0.00  0.00     0.079 A 
ENDBRANCH  20  21
ENDBRANCH  19  20
ENDBRANCH  16  19
ENDBRANCH  15  16
ENDBRANCH  12  15
ENDBRANCH   8   9
BRANCH   1  28
ATOM     28  O1  NON d   1     -40.970  18.197  -3.608  0.00  0.00    -0.354 OA
ATOM     29  C1  NON d   1     -40.303  18.299  -2.224  0.00  0.00     0.210 C 
ENDBRANCH   1  28
TORSDOF 8
ENDMDL
