MODEL 1
REMARK VINA RESULT:   -14.586      0.000      0.000
REMARK INTER + INTRA:         -17.591
REMARK INTER:                 -16.674
REMARK INTRA:                  -0.917
REMARK CONF_INDEPENDENT:        2.088
REMARK UNBOUND:                -0.917
REMARK  7 active torsions:
REMARK  status: ('A' for Active; 'I' for Inactive)
REMARK    1  A    between atoms: C2_2  and  C3_3 
REMARK    2  A    between atoms: C3_3  and  C4_4 
REMARK    3  A    between atoms: C4_4  and  C5_5 
REMARK       I    between atoms: C5_5  and  N1_7 
REMARK    4  A    between atoms: N1_7  and  N2_8 
REMARK       I    between atoms: N2_8  and  C6_9 
REMARK    5  A    between atoms: C6_9  and  C7_11 
REMARK    6  A    between atoms: C11_15  and  O3_16 
REMARK    7  A    between atoms: C13_18  and  O4_19 
ROOT
ATOM      1  N2  NON d   1     -46.105  16.524  -3.684  0.00  0.00    -0.263 N 
ATOM      2  C6  NON d   1     -45.454  17.150  -4.737  0.00  0.00     0.273 C 
ATOM      3  O2  NON d   1     -46.021  17.365  -5.810  0.00  0.00    -0.266 OA
ATOM      4  H11 NON d   1     -45.695  16.301  -2.780  0.00  0.00     0.190 HD
ENDROOT
BRANCH   2   5
ATOM      5  C7  NON d   1     -44.017  17.570  -4.559  0.00  0.00     0.069 A 
ATOM      6  C8  NON d   1     -43.132  16.844  -3.752  0.00  0.00     0.020 A 
ATOM      7  C9  NON d   1     -41.802  17.255  -3.602  0.00  0.00     0.004 A 
ATOM      8  C10 NON d   1     -41.325  18.398  -4.253  0.00  0.00     0.040 A 
ATOM      9  C11 NON d   1     -42.176  19.154  -5.056  0.00  0.00     0.102 A 
ATOM     10  C13 NON d   1     -43.520  18.731  -5.208  0.00  0.00     0.114 A 
BRANCH   9  11
ATOM     11  O3  NON d   1     -41.787  20.300  -5.711  0.00  0.00    -0.353 OA
ATOM     12  C12 NON d   1     -41.102  20.112  -7.078  0.00  0.00     0.210 C 
ENDBRANCH   9  11
BRANCH  10  13
ATOM     13  O4  NON d   1     -44.330  19.505  -6.012  0.00  0.00    -0.357 OA
ATOM     14  H18 NON d   1     -45.259  19.405  -5.711  0.00  0.00     0.217 HD
ENDBRANCH  10  13
ENDBRANCH   2   5
BRANCH   1  15
ATOM     15  N1  NON d   1     -47.449  16.121  -3.835  0.00  0.00    -0.267 N 
ATOM     16  C5  NON d   1     -47.786  15.368  -4.947  0.00  0.00     0.236 C 
ATOM     17  O1  NON d   1     -46.959  15.079  -5.810  0.00  0.00    -0.272 OA
ATOM     18  H10 NON d   1     -48.094  16.367  -3.086  0.00  0.00     0.190 HD
BRANCH  16  19
ATOM     19  C4  NON d   1     -49.250  14.938  -4.998  0.00  0.00     0.104 C 
BRANCH  19  20
ATOM     20  C3  NON d   1     -49.816  14.630  -3.606  0.00  0.00     0.009 C 
BRANCH  20  21
ATOM     21  C2  NON d   1     -50.465  15.836  -2.912  0.00  0.00    -0.004 C 
ATOM     22  C1  NON d   1     -49.689  16.343  -1.707  0.00  0.00     0.005 C 
ENDBRANCH  20  21
ENDBRANCH  19  20
ENDBRANCH  16  19
ENDBRANCH   1  15
TORSDOF 7
ENDMDL
MODEL 2
REMARK VINA RESULT:   -14.149      1.511      2.225
REMARK INTER + INTRA:         -18.000
REMARK INTER:                 -16.237
REMARK INTRA:                  -1.763
REMARK CONF_INDEPENDENT:        2.088
REMARK UNBOUND:                -1.763
REMARK  7 active torsions:
REMARK  status: ('A' for Active; 'I' for Inactive)
REMARK    1  A    between atoms: C2_2  and  C3_3 
REMARK    2  A    between atoms: C3_3  and  C4_4 
REMARK    3  A    between atoms: C4_4  and  C5_5 
REMARK       I    between atoms: C5_5  and  N1_7 
REMARK    4  A    between atoms: N1_7  and  N2_8 
REMARK       I    between atoms: N2_8  and  C6_9 
REMARK    5  A    between atoms: C6_9  and  C7_11 
REMARK    6  A    between atoms: C11_15  and  O3_16 
REMARK    7  A    between atoms: C13_18  and  O4_19 
ROOT
ATOM      1  N2  NON d   1     -45.964  16.868  -3.813  0.00  0.00    -0.263 N 
ATOM      2  C6  NON d   1     -45.357  17.490  -4.894  0.00  0.00     0.273 C 
ATOM      3  O2  NON d   1     -45.942  17.630  -5.970  0.00  0.00    -0.266 OA
ATOM      4  H11 NON d   1     -45.537  16.704  -2.905  0.00  0.00     0.190 HD
ENDROOT
BRANCH   2   5
ATOM      5  C7  NON d   1     -43.946  18.001  -4.743  0.00  0.00     0.069 A 
ATOM      6  C8  NON d   1     -43.495  19.131  -5.435  0.00  0.00     0.020 A 
ATOM      7  C9  NON d   1     -42.179  19.586  -5.278  0.00  0.00     0.004 A 
ATOM      8  C10 NON d   1     -41.287  18.924  -4.430  0.00  0.00     0.040 A 
ATOM      9  C11 NON d   1     -41.692  17.788  -3.733  0.00  0.00     0.102 A 
ATOM     10  C13 NON d   1     -43.026  17.335  -3.891  0.00  0.00     0.114 A 
BRANCH   9  11
ATOM     11  O3  NON d   1     -40.867  17.071  -2.897  0.00  0.00    -0.353 OA
ATOM     12  C12 NON d   1     -39.579  17.776  -2.431  0.00  0.00     0.210 C 
ENDBRANCH   9  11
BRANCH  10  13
ATOM     13  O4  NON d   1     -43.389  16.209  -3.183  0.00  0.00    -0.357 OA
ATOM     14  H18 NON d   1     -42.579  15.791  -2.820  0.00  0.00     0.217 HD
ENDBRANCH  10  13
ENDBRANCH   2   5
BRANCH   1  15
ATOM     15  N1  NON d   1     -47.283  16.381  -3.939  0.00  0.00    -0.267 N 
ATOM     16  C5  NON d   1     -47.565  15.516  -4.982  0.00  0.00     0.236 C 
ATOM     17  O1  NON d   1     -46.713  15.198  -5.810  0.00  0.00    -0.272 OA
ATOM     18  H10 NON d   1     -47.950  16.657  -3.220  0.00  0.00     0.190 HD
BRANCH  16  19
ATOM     19  C4  NON d   1     -49.003  15.005  -5.006  0.00  0.00     0.104 C 
BRANCH  19  20
ATOM     20  C3  NON d   1     -49.522  14.655  -3.606  0.00  0.00     0.009 C 
BRANCH  20  21
ATOM     21  C2  NON d   1     -50.377  15.756  -2.962  0.00  0.00    -0.004 C 
ATOM     22  C1  NON d   1     -49.682  16.487  -1.825  0.00  0.00     0.005 C 
ENDBRANCH  20  21
ENDBRANCH  19  20
ENDBRANCH  16  19
ENDBRANCH   1  15
TORSDOF 7
ENDMDL
MODEL 3
REMARK VINA RESULT:   -12.040      1.874      7.484
REMARK INTER + INTRA:         -16.165
REMARK INTER:                 -14.128
REMARK INTRA:                  -2.037
REMARK CONF_INDEPENDENT:        2.088
REMARK UNBOUND:                -2.037
REMARK  7 active torsions:
REMARK  status: ('A' for Active; 'I' for Inactive)
REMARK    1  A    between atoms: C2_2  and  C3_3 
REMARK    2  A    between atoms: C3_3  and  C4_4 
REMARK    3  A    between atoms: C4_4  and  C5_5 
REMARK       I    between atoms: C5_5  and  N1_7 
REMARK    4  A    between atoms: N1_7  and  N2_8 
REMARK       I    between atoms: N2_8  and  C6_9 
REMARK    5  A    between atoms: C6_9  and  C7_11 
REMARK    6  A    between atoms: C11_15  and  O3_16 
REMARK    7  A    between atoms: C13_18  and  O4_19 
ROOT
ATOM      1  N2  NON d   1     -44.173  17.508  -4.353  0.00  0.00    -0.263 N 
ATOM      2  C6  NON d   1     -45.408  17.365  -4.967  0.00  0.00     0.273 C 
ATOM      3  O2  NON d   1     -45.572  17.630  -6.159  0.00  0.00    -0.266 OA
ATOM      4  H11 NON d   1     -43.971  17.325  -3.374  0.00  0.00     0.190 HD
ENDROOT
BRANCH   2   5
ATOM      5  C7  NON d   1     -46.577  16.876  -4.148  0.00  0.00     0.069 A 
ATOM      6  C8  NON d   1     -46.747  17.255  -2.810  0.00  0.00     0.020 A 
ATOM      7  C9  NON d   1     -47.841  16.788  -2.070  0.00  0.00     0.004 A 
ATOM      8  C10 NON d   1     -48.786  15.934  -2.646  0.00  0.00     0.040 A 
ATOM      9  C11 NON d   1     -48.646  15.524  -3.970  0.00  0.00     0.102 A 
ATOM     10  C13 NON d   1     -47.541  16.003  -4.716  0.00  0.00     0.114 A 
BRANCH   9  11
ATOM     11  O3  NON d   1     -49.523  14.670  -4.600  0.00  0.00    -0.353 OA
ATOM     12  C12 NON d   1     -50.774  14.255  -3.803  0.00  0.00     0.210 C 
ENDBRANCH   9  11
BRANCH  10  13
ATOM     13  O4  NON d   1     -47.439  15.576  -6.023  0.00  0.00    -0.357 OA
ATOM     14  H18 NON d   1     -48.341  15.391  -6.364  0.00  0.00     0.217 HD
ENDBRANCH  10  13
ENDBRANCH   2   5
BRANCH   1  15
ATOM     15  N1  NON d   1     -43.070  17.968  -5.105  0.00  0.00    -0.267 N 
ATOM     16  C5  NON d   1     -41.840  18.055  -4.477  0.00  0.00     0.236 C 
ATOM     17  O1  NON d   1     -41.698  17.780  -3.287  0.00  0.00    -0.272 OA
ATOM     18  H10 NON d   1     -43.231  18.166  -6.091  0.00  0.00     0.190 HD
BRANCH  16  19
ATOM     19  C4  NON d   1     -40.701  18.514  -5.383  0.00  0.00     0.104 C 
BRANCH  19  20
ATOM     20  C3  NON d   1     -41.172  19.500  -6.460  0.00  0.00     0.009 C 
BRANCH  20  21
ATOM     21  C2  NON d   1     -40.237  19.596  -7.673  0.00  0.00    -0.004 C 
ATOM     22  C1  NON d   1     -38.964  18.776  -7.534  0.00  0.00     0.005 C 
ENDBRANCH  20  21
ENDBRANCH  19  20
ENDBRANCH  16  19
ENDBRANCH   1  15
TORSDOF 7
ENDMDL
MODEL 4
REMARK VINA RESULT:   -11.928      1.865      7.299
REMARK INTER + INTRA:         -15.943
REMARK INTER:                 -14.016
REMARK INTRA:                  -1.927
REMARK CONF_INDEPENDENT:        2.088
REMARK UNBOUND:                -1.927
REMARK  7 active torsions:
REMARK  status: ('A' for Active; 'I' for Inactive)
REMARK    1  A    between atoms: C2_2  and  C3_3 
REMARK    2  A    between atoms: C3_3  and  C4_4 
REMARK    3  A    between atoms: C4_4  and  C5_5 
REMARK       I    between atoms: C5_5  and  N1_7 
REMARK    4  A    between atoms: N1_7  and  N2_8 
REMARK       I    between atoms: N2_8  and  C6_9 
REMARK    5  A    between atoms: C6_9  and  C7_11 
REMARK    6  A    between atoms: C11_15  and  O3_16 
REMARK    7  A    between atoms: C13_18  and  O4_19 
ROOT
ATOM      1  N2  NON d   1     -44.553  17.326  -3.932  0.00  0.00    -0.263 N 
ATOM      2  C6  NON d   1     -45.698  16.903  -4.591  0.00  0.00     0.273 C 
ATOM      3  O2  NON d   1     -45.704  16.697  -5.807  0.00  0.00    -0.266 OA
ATOM      4  H11 NON d   1     -44.480  17.530  -2.939  0.00  0.00     0.190 HD
ENDROOT
BRANCH   2   5
ATOM      5  C7  NON d   1     -46.962  16.697  -3.797  0.00  0.00     0.069 A 
ATOM      6  C8  NON d   1     -47.059  17.083  -2.454  0.00  0.00     0.020 A 
ATOM      7  C9  NON d   1     -48.245  16.881  -1.736  0.00  0.00     0.004 A 
ATOM      8  C10 NON d   1     -49.358  16.289  -2.341  0.00  0.00     0.040 A 
ATOM      9  C11 NON d   1     -49.299  15.879  -3.671  0.00  0.00     0.102 A 
ATOM     10  C13 NON d   1     -48.099  16.091  -4.394  0.00  0.00     0.114 A 
BRANCH   9  11
ATOM     11  O3  NON d   1     -50.344  15.271  -4.329  0.00  0.00    -0.353 OA
ATOM     12  C12 NON d   1     -50.066  13.881  -4.929  0.00  0.00     0.210 C 
ENDBRANCH   9  11
BRANCH  10  13
ATOM     13  O4  NON d   1     -48.081  15.673  -5.708  0.00  0.00    -0.357 OA
ATOM     14  H18 NON d   1     -48.996  15.442  -5.977  0.00  0.00     0.217 HD
ENDBRANCH  10  13
ENDBRANCH   2   5
BRANCH   1  15
ATOM     15  N1  NON d   1     -43.362  17.527  -4.662  0.00  0.00    -0.267 N 
ATOM     16  C5  NON d   1     -42.212  17.854  -3.964  0.00  0.00     0.236 C 
ATOM     17  O1  NON d   1     -42.216  18.006  -2.743  0.00  0.00    -0.272 OA
ATOM     18  H10 NON d   1     -43.403  17.372  -5.668  0.00  0.00     0.190 HD
BRANCH  16  19
ATOM     19  C4  NON d   1     -40.967  18.003  -4.834  0.00  0.00     0.104 C 
BRANCH  19  20
ATOM     20  C3  NON d   1     -40.786  19.435  -5.354  0.00  0.00     0.009 C 
BRANCH  20  21
ATOM     21  C2  NON d   1     -41.688  19.786  -6.546  0.00  0.00    -0.004 C 
ATOM     22  C1  NON d   1     -40.972  20.534  -7.659  0.00  0.00     0.005 C 
ENDBRANCH  20  21
ENDBRANCH  19  20
ENDBRANCH  16  19
ENDBRANCH   1  15
TORSDOF 7
ENDMDL
