MODEL 1
REMARK VINA RESULT:   -12.967      0.000      0.000
REMARK INTER + INTRA:         -16.555
REMARK INTER:                 -14.756
REMARK INTRA:                  -1.799
REMARK CONF_INDEPENDENT:        1.790
REMARK UNBOUND:                -1.799
REMARK  6 active torsions:
REMARK  status: ('A' for Active; 'I' for Inactive)
REMARK    1  A    between atoms: O1_2  and  C2_3 
REMARK    2  A    between atoms: C2_3  and  C3_5 
REMARK    3  A    between atoms: C4_6  and  N1_7 
REMARK       I    between atoms: N1_7  and  C5_8 
REMARK    4  A    between atoms: C5_8  and  C6_10 
REMARK    5  A    between atoms: C13_18  and  C14_19 
REMARK       I    between atoms: C14_19  and  N2_21 
REMARK    6  A    between atoms: N2_21  and  C15_22 
ROOT
ATOM      1  C3  NON d   1     -42.391  18.615  -4.573  0.00  0.00     0.080 C 
ATOM      2  C4  NON d   1     -42.129  17.593  -3.645  0.00  0.00     0.094 C 
ATOM      3  S1  NON d   1     -43.315  16.379  -3.690  0.00  0.00    -0.065 SA
ATOM      4  C13 NON d   1     -44.445  17.340  -4.508  0.00  0.00     0.082 C 
ATOM      5  C21 NON d   1     -43.829  18.496  -4.984  0.00  0.00    -0.020 C 
ATOM      6  C22 NON d   1     -44.533  19.505  -5.851  0.00  0.00     0.051 C 
ENDROOT
BRANCH   2   7
ATOM      7  N1  NON d   1     -40.992  17.254  -2.950  0.00  0.00    -0.316 N 
ATOM      8  C5  NON d   1     -39.977  17.896  -2.260  0.00  0.00     0.256 C 
ATOM      9  O3  NON d   1     -39.195  17.081  -1.741  0.00  0.00    -0.267 OA
ATOM     10  H4  NON d   1     -40.845  16.259  -2.841  0.00  0.00     0.169 HD
BRANCH   8  11
ATOM     11  C6  NON d   1     -39.626  19.354  -2.067  0.00  0.00     0.032 C 
ATOM     12  C7  NON d   1     -38.431  19.767  -2.706  0.00  0.00     0.017 C 
ATOM     13  C8  NON d   1     -37.889  21.047  -2.546  0.00  0.00     0.002 C 
ATOM     14  C9  NON d   1     -38.509  21.951  -1.702  0.00  0.00     0.007 C 
ATOM     15  C10 NON d   1     -39.716  21.606  -1.088  0.00  0.00    -0.061 C 
ATOM     16  C11 NON d   1     -40.315  22.544  -0.077  0.00  0.00     0.048 C 
ATOM     17  C12 NON d   1     -40.298  20.337  -1.335  0.00  0.00     0.023 C 
ENDBRANCH   8  11
ENDBRANCH   2   7
BRANCH   1  18
ATOM     18  C2  NON d   1     -41.525  19.697  -5.206  0.00  0.00     0.296 C 
ATOM     19  O2  NON d   1     -41.110  20.611  -4.494  0.00  0.00    -0.259 OA
BRANCH  18  20
ATOM     20  O1  NON d   1     -41.086  19.695  -6.526  0.00  0.00    -0.322 OA
ATOM     21  C1  NON d   1     -39.907  18.756  -6.843  0.00  0.00     0.213 C 
ENDBRANCH  18  20
ENDBRANCH   1  18
BRANCH   4  22
ATOM     22  C14 NON d   1     -45.830  16.857  -4.692  0.00  0.00     0.263 C 
ATOM     23  O4  NON d   1     -46.336  16.744  -5.806  0.00  0.00    -0.267 OA
ATOM     24  N2  NON d   1     -46.496  16.571  -3.506  0.00  0.00    -0.323 N 
ATOM     25  H12 NON d   1     -45.954  16.718  -2.662  0.00  0.00     0.169 HD
BRANCH  24  26
ATOM     26  C15 NON d   1     -47.817  16.116  -3.313  0.00  0.00     0.035 A 
ATOM     27  C16 NON d   1     -48.605  16.814  -2.385  0.00  0.00     0.029 A 
ATOM     28  C17 NON d   1     -49.931  16.446  -2.138  0.00  0.00     0.002 A 
ATOM     29  C18 NON d   1     -50.485  15.362  -2.810  0.00  0.00     0.000 A 
ATOM     30  C19 NON d   1     -49.709  14.655  -3.727  0.00  0.00     0.002 A 
ATOM     31  C20 NON d   1     -48.383  15.031  -3.981  0.00  0.00     0.029 A 
ENDBRANCH  24  26
ENDBRANCH   4  22
TORSDOF 6
ENDMDL
MODEL 2
REMARK VINA RESULT:   -12.897      1.796      2.894
REMARK INTER + INTRA:         -16.285
REMARK INTER:                 -14.687
REMARK INTRA:                  -1.599
REMARK CONF_INDEPENDENT:        1.790
REMARK UNBOUND:                -1.599
REMARK  6 active torsions:
REMARK  status: ('A' for Active; 'I' for Inactive)
REMARK    1  A    between atoms: O1_2  and  C2_3 
REMARK    2  A    between atoms: C2_3  and  C3_5 
REMARK    3  A    between atoms: C4_6  and  N1_7 
REMARK       I    between atoms: N1_7  and  C5_8 
REMARK    4  A    between atoms: C5_8  and  C6_10 
REMARK    5  A    between atoms: C13_18  and  C14_19 
REMARK       I    between atoms: C14_19  and  N2_21 
REMARK    6  A    between atoms: N2_21  and  C15_22 
ROOT
ATOM      1  C3  NON d   1     -42.060  18.259  -4.137  0.00  0.00     0.080 C 
ATOM      2  C4  NON d   1     -42.333  19.231  -5.115  0.00  0.00     0.094 C 
ATOM      3  S1  NON d   1     -43.995  19.354  -5.437  0.00  0.00    -0.065 SA
ATOM      4  C13 NON d   1     -44.370  17.858  -4.735  0.00  0.00     0.082 C 
ATOM      5  C21 NON d   1     -43.272  17.383  -4.019  0.00  0.00    -0.020 C 
ATOM      6  C22 NON d   1     -43.316  16.130  -3.185  0.00  0.00     0.051 C 
ENDROOT
BRANCH   2   7
ATOM      7  N1  NON d   1     -41.576  20.260  -5.621  0.00  0.00    -0.316 N 
ATOM      8  C5  NON d   1     -40.892  21.366  -5.145  0.00  0.00     0.256 C 
ATOM      9  O3  NON d   1     -40.293  21.958  -6.060  0.00  0.00    -0.267 OA
ATOM     10  H4  NON d   1     -41.399  20.205  -6.616  0.00  0.00     0.169 HD
BRANCH   8  11
ATOM     11  C6  NON d   1     -40.779  21.995  -3.775  0.00  0.00     0.032 C 
ATOM     12  C7  NON d   1     -41.186  23.351  -3.709  0.00  0.00     0.017 C 
ATOM     13  C8  NON d   1     -41.047  24.129  -2.554  0.00  0.00     0.002 C 
ATOM     14  C9  NON d   1     -40.452  23.583  -1.430  0.00  0.00     0.007 C 
ATOM     15  C10 NON d   1     -40.079  22.237  -1.432  0.00  0.00    -0.061 C 
ATOM     16  C11 NON d   1     -39.322  21.687  -0.255  0.00  0.00     0.048 C 
ATOM     17  C12 NON d   1     -40.313  21.439  -2.580  0.00  0.00     0.023 C 
ENDBRANCH   8  11
ENDBRANCH   2   7
BRANCH   1  18
ATOM     18  C2  NON d   1     -40.864  17.999  -3.230  0.00  0.00     0.296 C 
ATOM     19  O2  NON d   1     -41.072  17.669  -2.062  0.00  0.00    -0.259 OA
BRANCH  18  20
ATOM     20  O1  NON d   1     -39.535  18.022  -3.637  0.00  0.00    -0.322 OA
ATOM     21  C1  NON d   1     -38.509  18.442  -2.568  0.00  0.00     0.213 C 
ENDBRANCH  18  20
ENDBRANCH   1  18
BRANCH   4  22
ATOM     22  C14 NON d   1     -45.730  17.298  -4.871  0.00  0.00     0.263 C 
ATOM     23  O4  NON d   1     -46.301  17.231  -5.958  0.00  0.00    -0.267 OA
ATOM     24  N2  NON d   1     -46.298  16.883  -3.672  0.00  0.00    -0.323 N 
ATOM     25  H12 NON d   1     -45.712  17.005  -2.854  0.00  0.00     0.169 HD
BRANCH  24  26
ATOM     26  C15 NON d   1     -47.573  16.328  -3.435  0.00  0.00     0.035 A 
ATOM     27  C16 NON d   1     -48.263  16.773  -2.297  0.00  0.00     0.029 A 
ATOM     28  C17 NON d   1     -49.538  16.291  -1.988  0.00  0.00     0.002 A 
ATOM     29  C18 NON d   1     -50.138  15.343  -2.810  0.00  0.00     0.000 A 
ATOM     30  C19 NON d   1     -49.458  14.886  -3.938  0.00  0.00     0.002 A 
ATOM     31  C20 NON d   1     -48.184  15.377  -4.251  0.00  0.00     0.029 A 
ENDBRANCH  24  26
ENDBRANCH   4  22
TORSDOF 6
ENDMDL
MODEL 3
REMARK VINA RESULT:   -12.800      2.139      4.109
REMARK INTER + INTRA:         -16.211
REMARK INTER:                 -14.590
REMARK INTRA:                  -1.621
REMARK CONF_INDEPENDENT:        1.790
REMARK UNBOUND:                -1.621
REMARK  6 active torsions:
REMARK  status: ('A' for Active; 'I' for Inactive)
REMARK    1  A    between atoms: O1_2  and  C2_3 
REMARK    2  A    between atoms: C2_3  and  C3_5 
REMARK    3  A    between atoms: C4_6  and  N1_7 
REMARK       I    between atoms: N1_7  and  C5_8 
REMARK    4  A    between atoms: C5_8  and  C6_10 
REMARK    5  A    between atoms: C13_18  and  C14_19 
REMARK       I    between atoms: C14_19  and  N2_21 
REMARK    6  A    between atoms: N2_21  and  C15_22 
ROOT
ATOM      1  C3  NON d   1     -42.131  18.389  -4.048  0.00  0.00     0.080 C 
ATOM      2  C4  NON d   1     -42.427  19.430  -4.945  0.00  0.00     0.094 C 
ATOM      3  S1  NON d   1     -44.085  19.505  -5.301  0.00  0.00    -0.065 SA
ATOM      4  C13 NON d   1     -44.404  17.937  -4.743  0.00  0.00     0.082 C 
ATOM      5  C21 NON d   1     -43.302  17.452  -4.040  0.00  0.00    -0.020 C 
ATOM      6  C22 NON d   1     -43.305  16.130  -3.319  0.00  0.00     0.051 C 
ENDROOT
BRANCH   2   7
ATOM      7  N1  NON d   1     -41.709  20.533  -5.339  0.00  0.00    -0.316 N 
ATOM      8  C5  NON d   1     -40.573  20.812  -6.080  0.00  0.00     0.256 C 
ATOM      9  O3  NON d   1     -40.390  22.037  -6.189  0.00  0.00    -0.267 OA
ATOM     10  H4  NON d   1     -42.122  21.420  -5.081  0.00  0.00     0.169 HD
BRANCH   8  11
ATOM     11  C6  NON d   1     -39.519  19.934  -6.719  0.00  0.00     0.032 C 
ATOM     12  C7  NON d   1     -39.913  19.325  -7.936  0.00  0.00     0.017 C 
ATOM     13  C8  NON d   1     -39.115  18.394  -8.611  0.00  0.00     0.002 C 
ATOM     14  C9  NON d   1     -37.905  18.007  -8.063  0.00  0.00     0.007 C 
ATOM     15  C10 NON d   1     -37.453  18.616  -6.889  0.00  0.00    -0.061 C 
ATOM     16  C11 NON d   1     -36.201  18.102  -6.236  0.00  0.00     0.048 C 
ATOM     17  C12 NON d   1     -38.232  19.626  -6.270  0.00  0.00     0.023 C 
ENDBRANCH   8  11
ENDBRANCH   2   7
BRANCH   1  18
ATOM     18  C2  NON d   1     -40.946  18.106  -3.134  0.00  0.00     0.296 C 
ATOM     19  O2  NON d   1     -41.161  17.891  -1.941  0.00  0.00    -0.259 OA
BRANCH  18  20
ATOM     20  O1  NON d   1     -39.626  17.985  -3.554  0.00  0.00    -0.322 OA
ATOM     21  C1  NON d   1     -38.551  18.367  -2.520  0.00  0.00     0.213 C 
ENDBRANCH  18  20
ENDBRANCH   1  18
BRANCH   4  22
ATOM     22  C14 NON d   1     -45.733  17.329  -4.964  0.00  0.00     0.263 C 
ATOM     23  O4  NON d   1     -46.237  17.258  -6.082  0.00  0.00    -0.267 OA
ATOM     24  N2  NON d   1     -46.352  16.876  -3.805  0.00  0.00    -0.323 N 
ATOM     25  H12 NON d   1     -45.819  17.007  -2.954  0.00  0.00     0.169 HD
BRANCH  24  26
ATOM     26  C15 NON d   1     -47.616  16.271  -3.649  0.00  0.00     0.035 A 
ATOM     27  C16 NON d   1     -48.380  16.662  -2.539  0.00  0.00     0.029 A 
ATOM     28  C17 NON d   1     -49.652  16.128  -2.310  0.00  0.00     0.002 A 
ATOM     29  C18 NON d   1     -50.173  15.182  -3.185  0.00  0.00     0.000 A 
ATOM     30  C19 NON d   1     -49.420  14.778  -4.286  0.00  0.00     0.002 A 
ATOM     31  C20 NON d   1     -48.150  15.321  -4.520  0.00  0.00     0.029 A 
ENDBRANCH  24  26
ENDBRANCH   4  22
TORSDOF 6
ENDMDL
MODEL 4
REMARK VINA RESULT:   -12.796      1.680      2.719
REMARK INTER + INTRA:         -16.185
REMARK INTER:                 -14.586
REMARK INTRA:                  -1.599
REMARK CONF_INDEPENDENT:        1.790
REMARK UNBOUND:                -1.599
REMARK  6 active torsions:
REMARK  status: ('A' for Active; 'I' for Inactive)
REMARK    1  A    between atoms: O1_2  and  C2_3 
REMARK    2  A    between atoms: C2_3  and  C3_5 
REMARK    3  A    between atoms: C4_6  and  N1_7 
REMARK       I    between atoms: N1_7  and  C5_8 
REMARK    4  A    between atoms: C5_8  and  C6_10 
REMARK    5  A    between atoms: C13_18  and  C14_19 
REMARK       I    between atoms: C14_19  and  N2_21 
REMARK    6  A    between atoms: N2_21  and  C15_22 
ROOT
ATOM      1  C3  NON d   1     -42.064  18.298  -4.099  0.00  0.00     0.080 C 
ATOM      2  C4  NON d   1     -42.323  19.286  -5.064  0.00  0.00     0.094 C 
ATOM      3  S1  NON d   1     -43.976  19.391  -5.434  0.00  0.00    -0.065 SA
ATOM      4  C13 NON d   1     -44.348  17.875  -4.776  0.00  0.00     0.082 C 
ATOM      5  C21 NON d   1     -43.266  17.401  -4.036  0.00  0.00    -0.020 C 
ATOM      6  C22 NON d   1     -43.315  16.130  -3.230  0.00  0.00     0.051 C 
ENDROOT
BRANCH   2   7
ATOM      7  N1  NON d   1     -41.567  20.337  -5.525  0.00  0.00    -0.316 N 
ATOM      8  C5  NON d   1     -40.767  21.339  -5.001  0.00  0.00     0.256 C 
ATOM      9  O3  NON d   1     -40.241  22.018  -5.900  0.00  0.00    -0.267 OA
ATOM     10  H4  NON d   1     -41.507  20.404  -6.533  0.00  0.00     0.169 HD
BRANCH   8  11
ATOM     11  C6  NON d   1     -40.462  21.777  -3.586  0.00  0.00     0.032 C 
ATOM     12  C7  NON d   1     -39.616  20.901  -2.862  0.00  0.00     0.017 C 
ATOM     13  C8  NON d   1     -39.316  21.083  -1.507  0.00  0.00     0.002 C 
ATOM     14  C9  NON d   1     -39.891  22.135  -0.816  0.00  0.00     0.007 C 
ATOM     15  C10 NON d   1     -40.693  23.053  -1.498  0.00  0.00    -0.061 C 
ATOM     16  C11 NON d   1     -41.412  24.116  -0.717  0.00  0.00     0.048 C 
ATOM     17  C12 NON d   1     -40.910  22.905  -2.892  0.00  0.00     0.023 C 
ENDBRANCH   8  11
ENDBRANCH   2   7
BRANCH   1  18
ATOM     18  C2  NON d   1     -40.893  18.036  -3.160  0.00  0.00     0.296 C 
ATOM     19  O2  NON d   1     -41.128  17.804  -1.975  0.00  0.00    -0.259 OA
BRANCH  18  20
ATOM     20  O1  NON d   1     -39.561  17.954  -3.552  0.00  0.00    -0.322 OA
ATOM     21  C1  NON d   1     -38.548  17.634  -2.437  0.00  0.00     0.213 C 
ENDBRANCH  18  20
ENDBRANCH   1  18
BRANCH   4  22
ATOM     22  C14 NON d   1     -45.695  17.297  -4.965  0.00  0.00     0.263 C 
ATOM     23  O4  NON d   1     -46.235  17.255  -6.068  0.00  0.00    -0.267 OA
ATOM     24  N2  NON d   1     -46.287  16.838  -3.795  0.00  0.00    -0.323 N 
ATOM     25  H12 NON d   1     -45.726  16.944  -2.958  0.00  0.00     0.169 HD
BRANCH  24  26
ATOM     26  C15 NON d   1     -47.558  16.255  -3.609  0.00  0.00     0.035 A 
ATOM     27  C16 NON d   1     -48.278  16.641  -2.467  0.00  0.00     0.029 A 
ATOM     28  C17 NON d   1     -49.552  16.128  -2.207  0.00  0.00     0.002 A 
ATOM     29  C18 NON d   1     -50.121  15.209  -3.081  0.00  0.00     0.000 A 
ATOM     30  C19 NON d   1     -49.412  14.811  -4.213  0.00  0.00     0.002 A 
ATOM     31  C20 NON d   1     -48.139  15.333  -4.478  0.00  0.00     0.029 A 
ENDBRANCH  24  26
ENDBRANCH   4  22
TORSDOF 6
ENDMDL
MODEL 5
REMARK VINA RESULT:   -12.795      1.218      2.150
REMARK INTER + INTRA:         -16.599
REMARK INTER:                 -14.584
REMARK INTRA:                  -2.014
REMARK CONF_INDEPENDENT:        1.790
REMARK UNBOUND:                -2.014
REMARK  6 active torsions:
REMARK  status: ('A' for Active; 'I' for Inactive)
REMARK    1  A    between atoms: O1_2  and  C2_3 
REMARK    2  A    between atoms: C2_3  and  C3_5 
REMARK    3  A    between atoms: C4_6  and  N1_7 
REMARK       I    between atoms: N1_7  and  C5_8 
REMARK    4  A    between atoms: C5_8  and  C6_10 
REMARK    5  A    between atoms: C13_18  and  C14_19 
REMARK       I    between atoms: C14_19  and  N2_21 
REMARK    6  A    between atoms: N2_21  and  C15_22 
ROOT
ATOM      1  C3  NON d   1     -42.351  18.613  -4.435  0.00  0.00     0.080 C 
ATOM      2  C4  NON d   1     -42.135  17.598  -3.488  0.00  0.00     0.094 C 
ATOM      3  S1  NON d   1     -43.326  16.391  -3.572  0.00  0.00    -0.065 SA
ATOM      4  C13 NON d   1     -44.415  17.351  -4.445  0.00  0.00     0.082 C 
ATOM      5  C21 NON d   1     -43.772  18.499  -4.905  0.00  0.00    -0.020 C 
ATOM      6  C22 NON d   1     -44.433  19.505  -5.810  0.00  0.00     0.051 C 
ENDROOT
BRANCH   2   7
ATOM      7  N1  NON d   1     -41.031  17.259  -2.743  0.00  0.00    -0.316 N 
ATOM      8  C5  NON d   1     -39.703  17.637  -2.638  0.00  0.00     0.256 C 
ATOM      9  O3  NON d   1     -39.130  17.032  -1.716  0.00  0.00    -0.267 OA
ATOM     10  H4  NON d   1     -41.207  16.580  -2.013  0.00  0.00     0.169 HD
BRANCH   8  11
ATOM     11  C6  NON d   1     -38.836  18.581  -3.440  0.00  0.00     0.032 C 
ATOM     12  C7  NON d   1     -38.644  19.855  -2.851  0.00  0.00     0.017 C 
ATOM     13  C8  NON d   1     -37.966  20.895  -3.498  0.00  0.00     0.002 C 
ATOM     14  C9  NON d   1     -37.491  20.705  -4.784  0.00  0.00     0.007 C 
ATOM     15  C10 NON d   1     -37.615  19.451  -5.387  0.00  0.00    -0.061 C 
ATOM     16  C11 NON d   1     -37.210  19.289  -6.825  0.00  0.00     0.048 C 
ATOM     17  C12 NON d   1     -38.221  18.382  -4.680  0.00  0.00     0.023 C 
ENDBRANCH   8  11
ENDBRANCH   2   7
BRANCH   1  18
ATOM     18  C2  NON d   1     -41.452  19.684  -5.041  0.00  0.00     0.296 C 
ATOM     19  O2  NON d   1     -41.364  20.770  -4.471  0.00  0.00    -0.259 OA
BRANCH  18  20
ATOM     20  O1  NON d   1     -40.644  19.506  -6.158  0.00  0.00    -0.322 OA
ATOM     21  C1  NON d   1     -41.058  20.285  -7.421  0.00  0.00     0.213 C 
ENDBRANCH  18  20
ENDBRANCH   1  18
BRANCH   4  22
ATOM     22  C14 NON d   1     -45.794  16.875  -4.683  0.00  0.00     0.263 C 
ATOM     23  O4  NON d   1     -46.284  16.840  -5.809  0.00  0.00    -0.267 OA
ATOM     24  N2  NON d   1     -46.474  16.502  -3.530  0.00  0.00    -0.323 N 
ATOM     25  H12 NON d   1     -45.945  16.590  -2.671  0.00  0.00     0.169 HD
BRANCH  24  26
ATOM     26  C15 NON d   1     -47.795  16.027  -3.389  0.00  0.00     0.035 A 
ATOM     27  C16 NON d   1     -48.571  16.588  -2.363  0.00  0.00     0.029 A 
ATOM     28  C17 NON d   1     -49.895  16.191  -2.157  0.00  0.00     0.002 A 
ATOM     29  C18 NON d   1     -50.460  15.215  -2.969  0.00  0.00     0.000 A 
ATOM     30  C19 NON d   1     -49.697  14.643  -3.985  0.00  0.00     0.002 A 
ATOM     31  C20 NON d   1     -48.373  15.048  -4.197  0.00  0.00     0.029 A 
ENDBRANCH  24  26
ENDBRANCH   4  22
TORSDOF 6
ENDMDL
