MODEL 1
REMARK VINA RESULT:   -13.373      0.000      0.000
REMARK INTER + INTRA:         -18.979
REMARK INTER:                 -16.057
REMARK INTRA:                  -2.922
REMARK CONF_INDEPENDENT:        2.685
REMARK UNBOUND:                -2.922
REMARK  9 active torsions:
REMARK  status: ('A' for Active; 'I' for Inactive)
REMARK    1  A    between atoms: C6_6  and  C5_5 
REMARK    2  A    between atoms: C6_6  and  N1_7 
REMARK    3  A    between atoms: C6_6  and  C22_28 
REMARK    4  A    between atoms: N1_7  and  C7_8 
REMARK    5  A    between atoms: C7_8  and  C8_9 
REMARK       I    between atoms: C8_9  and  N2_11 
REMARK    6  A    between atoms: N2_11  and  C10_13 
REMARK    7  A    between atoms: C15_18  and  C16_19 
REMARK       I    between atoms: C16_19  and  N3_21 
REMARK    8  A    between atoms: N3_21  and  C17_22 
REMARK    9  A    between atoms: C17_22  and  C18_23 
ROOT
ATOM      1  C8  NON d   1     -40.569  19.844  -6.796  0.00  0.00     0.249 C 
ATOM      2  O1  NON d   1     -40.353  18.734  -7.294  0.00  0.00    -0.271 OA
ATOM      3  N2  NON d   1     -40.586  20.163  -5.384  0.00  0.00    -0.320 N 
ATOM      4  C9  NON d   1     -40.733  21.651  -5.014  0.00  0.00     0.159 C 
ENDROOT
BRANCH   1   5
ATOM      5  C7  NON d   1     -40.861  21.009  -7.861  0.00  0.00     0.336 C 
BRANCH   5   6
ATOM      6  N1  NON d   1     -40.299  20.681  -9.284  0.00  0.00    -0.054 N 
ATOM      7  H7  NON d   1     -40.397  19.653  -9.366  0.00  0.00     0.278 HD
ATOM      8  H8  NON d   1     -40.952  21.002 -10.002  0.00  0.00     0.278 HD
BRANCH   6   9
ATOM      9  C6  NON d   1     -38.754  20.999  -9.695  0.00  0.00     0.259 C 
BRANCH   9  10
ATOM     10  C5  NON d   1     -38.069  21.381 -11.239  0.00  0.00    -0.023 A 
ATOM     11  C4  NON d   1     -36.781  20.778 -11.712  0.00  0.00     0.010 A 
ATOM     12  C3  NON d   1     -36.211  20.911 -12.960  0.00  0.00     0.007 A 
ATOM     13  C2  NON d   1     -36.927  21.591 -13.896  0.00  0.00    -0.062 A 
ATOM     14  C1  NON d   1     -36.317  21.788 -15.297  0.00  0.00     0.048 C 
ATOM     15  C27 NON d   1     -38.142  22.234 -13.513  0.00  0.00     0.007 A 
ATOM     16  C26 NON d   1     -38.699  22.155 -12.204  0.00  0.00     0.010 A 
ENDBRANCH   9  10
BRANCH   9  17
ATOM     17  C22 NON d   1     -37.847  20.337  -8.641  0.00  0.00     0.017 C 
ATOM     18  C23 NON d   1     -36.972  20.914  -7.730  0.00  0.00     0.017 C 
ATOM     19  C24 NON d   1     -36.228  19.951  -6.983  0.00  0.00     0.008 C 
ATOM     20  C25 NON d   1     -36.584  18.665  -7.307  0.00  0.00     0.050 C 
ATOM     21  S1  NON d   1     -37.657  18.624  -8.631  0.00  0.00    -0.104 SA
ENDBRANCH   9  17
ENDBRANCH   6   9
ENDBRANCH   5   6
ENDBRANCH   1   5
BRANCH   3  22
ATOM     22  C10 NON d   1     -40.651  19.209  -4.297  0.00  0.00     0.052 A 
ATOM     23  C11 NON d   1     -39.532  18.991  -3.475  0.00  0.00     0.031 A 
ATOM     24  C12 NON d   1     -39.532  18.022  -2.462  0.00  0.00     0.002 A 
ATOM     25  C13 NON d   1     -40.652  17.229  -2.244  0.00  0.00     0.001 A 
ATOM     26  C14 NON d   1     -41.787  17.420  -3.022  0.00  0.00     0.019 A 
ATOM     27  C15 NON d   1     -41.792  18.401  -4.026  0.00  0.00     0.058 A 
BRANCH  27  28
ATOM     28  C16 NON d   1     -43.098  18.615  -4.695  0.00  0.00     0.254 C 
ATOM     29  O2  NON d   1     -43.186  19.503  -5.539  0.00  0.00    -0.268 OA
ATOM     30  N3  NON d   1     -44.086  17.706  -4.418  0.00  0.00    -0.351 N 
ATOM     31  H18 NON d   1     -43.942  16.986  -3.722  0.00  0.00     0.163 HD
BRANCH  30  32
ATOM     32  C17 NON d   1     -45.233  17.595  -5.300  0.00  0.00     0.187 C 
BRANCH  32  33
ATOM     33  C18 NON d   1     -46.302  16.735  -4.763  0.00  0.00     0.070 A 
ATOM     34  C19 NON d   1     -46.817  16.477  -3.511  0.00  0.00     0.036 A 
ATOM     35  C20 NON d   1     -47.917  15.607  -3.709  0.00  0.00     0.027 A 
ATOM     36  C21 NON d   1     -48.002  15.387  -5.061  0.00  0.00     0.142 A 
ATOM     37  O3  NON d   1     -47.017  16.057  -5.708  0.00  0.00    -0.325 OA
ENDBRANCH  32  33
ENDBRANCH  30  32
ENDBRANCH  27  28
ENDBRANCH   3  22
TORSDOF 9
ENDMDL
MODEL 2
REMARK VINA RESULT:   -12.600      2.259      3.810
REMARK INTER + INTRA:         -17.815
REMARK INTER:                 -15.285
REMARK INTRA:                  -2.531
REMARK CONF_INDEPENDENT:        2.685
REMARK UNBOUND:                -2.531
REMARK  9 active torsions:
REMARK  status: ('A' for Active; 'I' for Inactive)
REMARK    1  A    between atoms: C6_6  and  C5_5 
REMARK    2  A    between atoms: C6_6  and  N1_7 
REMARK    3  A    between atoms: C6_6  and  C22_28 
REMARK    4  A    between atoms: N1_7  and  C7_8 
REMARK    5  A    between atoms: C7_8  and  C8_9 
REMARK       I    between atoms: C8_9  and  N2_11 
REMARK    6  A    between atoms: N2_11  and  C10_13 
REMARK    7  A    between atoms: C15_18  and  C16_19 
REMARK       I    between atoms: C16_19  and  N3_21 
REMARK    8  A    between atoms: N3_21  and  C17_22 
REMARK    9  A    between atoms: C17_22  and  C18_23 
ROOT
ATOM      1  C8  NON d   1     -40.665  19.642  -7.063  0.00  0.00     0.249 C 
ATOM      2  O1  NON d   1     -40.316  18.545  -7.511  0.00  0.00    -0.271 OA
ATOM      3  N2  NON d   1     -40.745  20.013  -5.666  0.00  0.00    -0.320 N 
ATOM      4  C9  NON d   1     -41.065  21.488  -5.360  0.00  0.00     0.159 C 
ENDROOT
BRANCH   1   5
ATOM      5  C7  NON d   1     -41.065  20.723  -8.179  0.00  0.00     0.336 C 
BRANCH   5   6
ATOM      6  N1  NON d   1     -40.076  20.733  -9.392  0.00  0.00    -0.054 N 
ATOM      7  H7  NON d   1     -39.500  19.882  -9.258  0.00  0.00     0.278 HD
ATOM      8  H8  NON d   1     -40.576  20.503 -10.254  0.00  0.00     0.278 HD
BRANCH   6   9
ATOM      9  C6  NON d   1     -39.009  21.942  -9.624  0.00  0.00     0.259 C 
BRANCH   9  10
ATOM     10  C5  NON d   1     -38.896  23.491  -8.856  0.00  0.00    -0.023 A 
ATOM     11  C4  NON d   1     -39.892  24.582  -9.106  0.00  0.00     0.010 A 
ATOM     12  C3  NON d   1     -39.973  25.797  -8.462  0.00  0.00     0.007 A 
ATOM     13  C2  NON d   1     -39.112  26.007  -7.429  0.00  0.00    -0.062 A 
ATOM     14  C1  NON d   1     -39.146  27.362  -6.698  0.00  0.00     0.048 C 
ATOM     15  C27 NON d   1     -38.102  25.036  -7.157  0.00  0.00     0.007 A 
ATOM     16  C26 NON d   1     -37.974  23.807  -7.867  0.00  0.00     0.010 A 
ENDBRANCH   9  10
BRANCH   9  17
ATOM     17  C22 NON d   1     -38.441  21.795 -11.048  0.00  0.00     0.017 C 
ATOM     18  C23 NON d   1     -37.136  21.574 -11.468  0.00  0.00     0.017 C 
ATOM     19  C24 NON d   1     -36.995  21.598 -12.889  0.00  0.00     0.008 C 
ATOM     20  C25 NON d   1     -38.199  21.790 -13.520  0.00  0.00     0.050 C 
ATOM     21  S1  NON d   1     -39.445  22.132 -12.408  0.00  0.00    -0.104 SA
ENDBRANCH   9  17
ENDBRANCH   6   9
ENDBRANCH   5   6
ENDBRANCH   1   5
BRANCH   3  22
ATOM     22  C10 NON d   1     -40.724  19.102  -4.540  0.00  0.00     0.052 A 
ATOM     23  C11 NON d   1     -39.544  18.913  -3.801  0.00  0.00     0.031 A 
ATOM     24  C12 NON d   1     -39.463  17.983  -2.755  0.00  0.00     0.002 A 
ATOM     25  C13 NON d   1     -40.562  17.202  -2.419  0.00  0.00     0.001 A 
ATOM     26  C14 NON d   1     -41.755  17.365  -3.113  0.00  0.00     0.019 A 
ATOM     27  C15 NON d   1     -41.839  18.307  -4.150  0.00  0.00     0.058 A 
BRANCH  27  28
ATOM     28  C16 NON d   1     -43.194  18.498  -4.723  0.00  0.00     0.254 C 
ATOM     29  O2  NON d   1     -43.411  19.505  -5.391  0.00  0.00    -0.268 OA
ATOM     30  N3  NON d   1     -44.074  17.457  -4.577  0.00  0.00    -0.351 N 
ATOM     31  H18 NON d   1     -43.825  16.646  -4.026  0.00  0.00     0.163 HD
BRANCH  30  32
ATOM     32  C17 NON d   1     -45.251  17.383  -5.423  0.00  0.00     0.187 C 
BRANCH  32  33
ATOM     33  C18 NON d   1     -46.360  16.627  -4.815  0.00  0.00     0.070 A 
ATOM     34  C19 NON d   1     -46.886  16.505  -3.547  0.00  0.00     0.036 A 
ATOM     35  C20 NON d   1     -48.027  15.676  -3.671  0.00  0.00     0.027 A 
ATOM     36  C21 NON d   1     -48.125  15.342  -4.999  0.00  0.00     0.142 A 
ATOM     37  O3  NON d   1     -47.109  15.904  -5.699  0.00  0.00    -0.325 OA
ENDBRANCH  32  33
ENDBRANCH  30  32
ENDBRANCH  27  28
ENDBRANCH   3  22
TORSDOF 9
ENDMDL
MODEL 3
REMARK VINA RESULT:   -12.588      2.184      2.814
REMARK INTER + INTRA:         -17.811
REMARK INTER:                 -15.272
REMARK INTRA:                  -2.539
REMARK CONF_INDEPENDENT:        2.685
REMARK UNBOUND:                -2.539
REMARK  9 active torsions:
REMARK  status: ('A' for Active; 'I' for Inactive)
REMARK    1  A    between atoms: C6_6  and  C5_5 
REMARK    2  A    between atoms: C6_6  and  N1_7 
REMARK    3  A    between atoms: C6_6  and  C22_28 
REMARK    4  A    between atoms: N1_7  and  C7_8 
REMARK    5  A    between atoms: C7_8  and  C8_9 
REMARK       I    between atoms: C8_9  and  N2_11 
REMARK    6  A    between atoms: N2_11  and  C10_13 
REMARK    7  A    between atoms: C15_18  and  C16_19 
REMARK       I    between atoms: C16_19  and  N3_21 
REMARK    8  A    between atoms: N3_21  and  C17_22 
REMARK    9  A    between atoms: C17_22  and  C18_23 
ROOT
ATOM      1  C8  NON d   1     -40.382  20.471  -6.780  0.00  0.00     0.249 C 
ATOM      2  O1  NON d   1     -40.766  21.464  -6.153  0.00  0.00    -0.271 OA
ATOM      3  N2  NON d   1     -40.336  19.110  -6.288  0.00  0.00    -0.320 N 
ATOM      4  C9  NON d   1     -39.958  18.020  -7.308  0.00  0.00     0.159 C 
ENDROOT
BRANCH   1   5
ATOM      5  C7  NON d   1     -39.892  20.775  -8.278  0.00  0.00     0.336 C 
BRANCH   5   6
ATOM      6  N1  NON d   1     -40.443  22.130  -8.830  0.00  0.00    -0.054 N 
ATOM      7  H7  NON d   1     -41.375  21.889  -9.214  0.00  0.00     0.278 HD
ATOM      8  H8  NON d   1     -40.699  22.747  -8.056  0.00  0.00     0.278 HD
BRANCH   6   9
ATOM      9  C6  NON d   1     -39.687  22.947 -10.021  0.00  0.00     0.259 C 
BRANCH   9  10
ATOM     10  C5  NON d   1     -38.672  22.367 -11.299  0.00  0.00    -0.023 A 
ATOM     11  C4  NON d   1     -37.528  21.432 -11.049  0.00  0.00     0.010 A 
ATOM     12  C3  NON d   1     -36.739  20.813 -11.994  0.00  0.00     0.007 A 
ATOM     13  C2  NON d   1     -37.080  20.997 -13.299  0.00  0.00    -0.062 A 
ATOM     14  C1  NON d   1     -36.210  20.347 -14.391  0.00  0.00     0.048 C 
ATOM     15  C27 NON d   1     -38.128  21.909 -13.623  0.00  0.00     0.007 A 
ATOM     16  C26 NON d   1     -38.902  22.604 -12.648  0.00  0.00     0.010 A 
ENDBRANCH   9  10
BRANCH   9  17
ATOM     17  C22 NON d   1     -39.490  24.396  -9.538  0.00  0.00     0.017 C 
ATOM     18  C23 NON d   1     -38.828  25.456 -10.146  0.00  0.00     0.017 C 
ATOM     19  C24 NON d   1     -38.777  26.625  -9.329  0.00  0.00     0.008 C 
ATOM     20  C25 NON d   1     -39.440  26.449  -8.140  0.00  0.00     0.050 C 
ATOM     21  S1  NON d   1     -39.942  24.833  -7.934  0.00  0.00    -0.104 SA
ENDBRANCH   9  17
ENDBRANCH   6   9
ENDBRANCH   5   6
ENDBRANCH   1   5
BRANCH   3  22
ATOM     22  C10 NON d   1     -40.440  18.702  -4.903  0.00  0.00     0.052 A 
ATOM     23  C11 NON d   1     -39.285  18.559  -4.115  0.00  0.00     0.031 A 
ATOM     24  C12 NON d   1     -39.340  18.093  -2.794  0.00  0.00     0.002 A 
ATOM     25  C13 NON d   1     -40.555  17.742  -2.219  0.00  0.00     0.001 A 
ATOM     26  C14 NON d   1     -41.725  17.882  -2.955  0.00  0.00     0.019 A 
ATOM     27  C15 NON d   1     -41.671  18.364  -4.273  0.00  0.00     0.058 A 
BRANCH  27  28
ATOM     28  C16 NON d   1     -42.988  18.608  -4.911  0.00  0.00     0.254 C 
ATOM     29  O2  NON d   1     -43.059  19.445  -5.806  0.00  0.00    -0.268 OA
ATOM     30  N3  NON d   1     -44.012  17.774  -4.544  0.00  0.00    -0.351 N 
ATOM     31  H18 NON d   1     -43.882  17.091  -3.809  0.00  0.00     0.163 HD
BRANCH  30  32
ATOM     32  C17 NON d   1     -45.194  17.671  -5.379  0.00  0.00     0.187 C 
BRANCH  32  33
ATOM     33  C18 NON d   1     -46.234  16.792  -4.816  0.00  0.00     0.070 A 
ATOM     34  C19 NON d   1     -46.738  16.552  -3.556  0.00  0.00     0.036 A 
ATOM     35  C20 NON d   1     -47.809  15.641  -3.726  0.00  0.00     0.027 A 
ATOM     36  C21 NON d   1     -47.889  15.380  -5.072  0.00  0.00     0.142 A 
ATOM     37  O3  NON d   1     -46.927  16.064  -5.739  0.00  0.00    -0.325 OA
ENDBRANCH  32  33
ENDBRANCH  30  32
ENDBRANCH  27  28
ENDBRANCH   3  22
TORSDOF 9
ENDMDL
MODEL 4
REMARK VINA RESULT:   -11.847      3.816      6.506
REMARK INTER + INTRA:         -17.173
REMARK INTER:                 -14.532
REMARK INTRA:                  -2.641
REMARK CONF_INDEPENDENT:        2.685
REMARK UNBOUND:                -2.641
REMARK  9 active torsions:
REMARK  status: ('A' for Active; 'I' for Inactive)
REMARK    1  A    between atoms: C6_6  and  C5_5 
REMARK    2  A    between atoms: C6_6  and  N1_7 
REMARK    3  A    between atoms: C6_6  and  C22_28 
REMARK    4  A    between atoms: N1_7  and  C7_8 
REMARK    5  A    between atoms: C7_8  and  C8_9 
REMARK       I    between atoms: C8_9  and  N2_11 
REMARK    6  A    between atoms: N2_11  and  C10_13 
REMARK    7  A    between atoms: C15_18  and  C16_19 
REMARK       I    between atoms: C16_19  and  N3_21 
REMARK    8  A    between atoms: N3_21  and  C17_22 
REMARK    9  A    between atoms: C17_22  and  C18_23 
ROOT
ATOM      1  C8  NON d   1     -40.744  21.213  -5.585  0.00  0.00     0.249 C 
ATOM      2  O1  NON d   1     -41.343  21.878  -4.733  0.00  0.00    -0.271 OA
ATOM      3  N2  NON d   1     -40.476  19.791  -5.532  0.00  0.00    -0.320 N 
ATOM      4  C9  NON d   1     -39.840  19.161  -6.785  0.00  0.00     0.159 C 
ENDROOT
BRANCH   1   5
ATOM      5  C7  NON d   1     -40.226  22.056  -6.849  0.00  0.00     0.336 C 
BRANCH   5   6
ATOM      6  N1  NON d   1     -39.296  23.246  -6.441  0.00  0.00    -0.054 N 
ATOM      7  H7  NON d   1     -38.348  22.830  -6.411  0.00  0.00     0.278 HD
ATOM      8  H8  NON d   1     -39.203  23.902  -7.220  0.00  0.00     0.278 HD
BRANCH   6   9
ATOM      9  C6  NON d   1     -39.468  24.026  -5.020  0.00  0.00     0.259 C 
BRANCH   9  10
ATOM     10  C5  NON d   1     -39.460  23.408  -3.402  0.00  0.00    -0.023 A 
ATOM     11  C4  NON d   1     -40.587  23.657  -2.446  0.00  0.00     0.010 A 
ATOM     12  C3  NON d   1     -40.745  23.116  -1.189  0.00  0.00     0.007 A 
ATOM     13  C2  NON d   1     -39.827  22.190  -0.796  0.00  0.00    -0.062 A 
ATOM     14  C1  NON d   1     -39.947  21.578   0.612  0.00  0.00     0.048 C 
ATOM     15  C27 NON d   1     -38.698  21.931  -1.630  0.00  0.00     0.007 A 
ATOM     16  C26 NON d   1     -38.498  22.541  -2.902  0.00  0.00     0.010 A 
ENDBRANCH   9  10
BRANCH   9  17
ATOM     17  C22 NON d   1     -40.241  25.329  -5.296  0.00  0.00     0.017 C 
ATOM     18  C23 NON d   1     -41.171  25.997  -4.509  0.00  0.00     0.017 C 
ATOM     19  C24 NON d   1     -41.745  27.130  -5.162  0.00  0.00     0.008 C 
ATOM     20  C25 NON d   1     -41.207  27.328  -6.410  0.00  0.00     0.050 C 
ATOM     21  S1  NON d   1     -40.172  26.051  -6.859  0.00  0.00    -0.104 SA
ENDBRANCH   9  17
ENDBRANCH   6   9
ENDBRANCH   5   6
ENDBRANCH   1   5
BRANCH   3  22
ATOM     22  C10 NON d   1     -40.588  18.947  -4.361  0.00  0.00     0.052 A 
ATOM     23  C11 NON d   1     -39.473  18.727  -3.534  0.00  0.00     0.031 A 
ATOM     24  C12 NON d   1     -39.522  17.857  -2.436  0.00  0.00     0.002 A 
ATOM     25  C13 NON d   1     -40.690  17.167  -2.134  0.00  0.00     0.001 A 
ATOM     26  C14 NON d   1     -41.822  17.366  -2.915  0.00  0.00     0.019 A 
ATOM     27  C15 NON d   1     -41.777  18.250  -4.004  0.00  0.00     0.058 A 
BRANCH  27  28
ATOM     28  C16 NON d   1     -43.077  18.492  -4.676  0.00  0.00     0.254 C 
ATOM     29  O2  NON d   1     -43.148  19.396  -5.504  0.00  0.00    -0.268 OA
ATOM     30  N3  NON d   1     -44.078  17.591  -4.420  0.00  0.00    -0.351 N 
ATOM     31  H18 NON d   1     -43.947  16.857  -3.737  0.00  0.00     0.163 HD
BRANCH  30  32
ATOM     32  C17 NON d   1     -45.221  17.511  -5.310  0.00  0.00     0.187 C 
BRANCH  32  33
ATOM     33  C18 NON d   1     -46.327  16.700  -4.770  0.00  0.00     0.070 A 
ATOM     34  C19 NON d   1     -46.884  16.509  -3.525  0.00  0.00     0.036 A 
ATOM     35  C20 NON d   1     -47.999  15.656  -3.718  0.00  0.00     0.027 A 
ATOM     36  C21 NON d   1     -48.050  15.380  -5.062  0.00  0.00     0.142 A 
ATOM     37  O3  NON d   1     -47.030  15.998  -5.707  0.00  0.00    -0.325 OA
ENDBRANCH  32  33
ENDBRANCH  30  32
ENDBRANCH  27  28
ENDBRANCH   3  22
TORSDOF 9
ENDMDL
MODEL 5
REMARK VINA RESULT:   -11.678      4.264      6.214
REMARK INTER + INTRA:         -17.428
REMARK INTER:                 -14.363
REMARK INTRA:                  -3.065
REMARK CONF_INDEPENDENT:        2.685
REMARK UNBOUND:                -3.065
REMARK  9 active torsions:
REMARK  status: ('A' for Active; 'I' for Inactive)
REMARK    1  A    between atoms: C6_6  and  C5_5 
REMARK    2  A    between atoms: C6_6  and  N1_7 
REMARK    3  A    between atoms: C6_6  and  C22_28 
REMARK    4  A    between atoms: N1_7  and  C7_8 
REMARK    5  A    between atoms: C7_8  and  C8_9 
REMARK       I    between atoms: C8_9  and  N2_11 
REMARK    6  A    between atoms: N2_11  and  C10_13 
REMARK    7  A    between atoms: C15_18  and  C16_19 
REMARK       I    between atoms: C16_19  and  N3_21 
REMARK    8  A    between atoms: N3_21  and  C17_22 
REMARK    9  A    between atoms: C17_22  and  C18_23 
ROOT
ATOM      1  C8  NON d   1     -38.406  18.269  -3.454  0.00  0.00     0.249 C 
ATOM      2  O1  NON d   1     -37.675  17.993  -4.412  0.00  0.00    -0.271 OA
ATOM      3  N2  NON d   1     -39.789  18.693  -3.525  0.00  0.00    -0.320 N 
ATOM      4  C9  NON d   1     -40.536  18.838  -2.186  0.00  0.00     0.159 C 
ENDROOT
BRANCH   1   5
ATOM      5  C7  NON d   1     -37.705  18.136  -2.017  0.00  0.00     0.336 C 
BRANCH   5   6
ATOM      6  N1  NON d   1     -37.413  19.524  -1.357  0.00  0.00    -0.054 N 
ATOM      7  H7  NON d   1     -37.556  19.361  -0.345  0.00  0.00     0.278 HD
ATOM      8  H8  NON d   1     -36.410  19.723  -1.388  0.00  0.00     0.278 HD
BRANCH   6   9
ATOM      9  C6  NON d   1     -38.296  20.848  -1.708  0.00  0.00     0.259 C 
BRANCH   9  10
ATOM     10  C5  NON d   1     -38.412  21.752  -3.181  0.00  0.00    -0.023 A 
ATOM     11  C4  NON d   1     -39.595  22.617  -3.497  0.00  0.00     0.010 A 
ATOM     12  C3  NON d   1     -39.737  23.470  -4.570  0.00  0.00     0.007 A 
ATOM     13  C2  NON d   1     -38.661  23.613  -5.391  0.00  0.00    -0.062 A 
ATOM     14  C1  NON d   1     -38.783  24.534  -6.620  0.00  0.00     0.048 C 
ATOM     15  C27 NON d   1     -37.513  22.790  -5.185  0.00  0.00     0.007 A 
ATOM     16  C26 NON d   1     -37.390  21.858  -4.115  0.00  0.00     0.010 A 
ENDBRANCH   9  10
BRANCH   9  17
ATOM     17  C22 NON d   1     -38.585  21.579  -0.384  0.00  0.00     0.017 C 
ATOM     18  C23 NON d   1     -37.712  21.996   0.613  0.00  0.00     0.017 C 
ATOM     19  C24 NON d   1     -38.381  22.554   1.744  0.00  0.00     0.008 C 
ATOM     20  C25 NON d   1     -39.742  22.593   1.567  0.00  0.00     0.050 C 
ATOM     21  S1  NON d   1     -40.214  21.788   0.141  0.00  0.00    -0.104 SA
ENDBRANCH   9  17
ENDBRANCH   6   9
ENDBRANCH   5   6
ENDBRANCH   1   5
BRANCH   3  22
ATOM     22  C10 NON d   1     -40.477  19.157  -4.712  0.00  0.00     0.052 A 
ATOM     23  C11 NON d   1     -39.857  20.072  -5.580  0.00  0.00     0.031 A 
ATOM     24  C12 NON d   1     -40.520  20.602  -6.696  0.00  0.00     0.002 A 
ATOM     25  C13 NON d   1     -41.832  20.242  -6.975  0.00  0.00     0.001 A 
ATOM     26  C14 NON d   1     -42.480  19.329  -6.152  0.00  0.00     0.019 A 
ATOM     27  C15 NON d   1     -41.811  18.786  -5.044  0.00  0.00     0.058 A 
BRANCH  27  28
ATOM     28  C16 NON d   1     -42.545  17.718  -4.322  0.00  0.00     0.254 C 
ATOM     29  O2  NON d   1     -41.928  17.021  -3.522  0.00  0.00    -0.268 OA
ATOM     30  N3  NON d   1     -43.903  17.677  -4.503  0.00  0.00    -0.351 N 
ATOM     31  H18 NON d   1     -44.353  18.294  -5.166  0.00  0.00     0.163 HD
BRANCH  30  32
ATOM     32  C17 NON d   1     -44.735  16.953  -3.560  0.00  0.00     0.187 C 
BRANCH  32  33
ATOM     33  C18 NON d   1     -46.027  16.529  -4.126  0.00  0.00     0.070 A 
ATOM     34  C19 NON d   1     -47.164  15.926  -3.633  0.00  0.00     0.036 A 
ATOM     35  C20 NON d   1     -48.088  15.887  -4.706  0.00  0.00     0.027 A 
ATOM     36  C21 NON d   1     -47.460  16.462  -5.782  0.00  0.00     0.142 A 
ATOM     37  O3  NON d   1     -46.203  16.842  -5.443  0.00  0.00    -0.325 OA
ENDBRANCH  32  33
ENDBRANCH  30  32
ENDBRANCH  27  28
ENDBRANCH   3  22
TORSDOF 9
ENDMDL
MODEL 6
REMARK VINA RESULT:   -11.634      3.585      6.283
REMARK INTER + INTRA:         -17.537
REMARK INTER:                 -14.319
REMARK INTRA:                  -3.219
REMARK CONF_INDEPENDENT:        2.685
REMARK UNBOUND:                -3.219
REMARK  9 active torsions:
REMARK  status: ('A' for Active; 'I' for Inactive)
REMARK    1  A    between atoms: C6_6  and  C5_5 
REMARK    2  A    between atoms: C6_6  and  N1_7 
REMARK    3  A    between atoms: C6_6  and  C22_28 
REMARK    4  A    between atoms: N1_7  and  C7_8 
REMARK    5  A    between atoms: C7_8  and  C8_9 
REMARK       I    between atoms: C8_9  and  N2_11 
REMARK    6  A    between atoms: N2_11  and  C10_13 
REMARK    7  A    between atoms: C15_18  and  C16_19 
REMARK       I    between atoms: C16_19  and  N3_21 
REMARK    8  A    between atoms: N3_21  and  C17_22 
REMARK    9  A    between atoms: C17_22  and  C18_23 
ROOT
ATOM      1  C8  NON d   1     -38.088  18.999  -3.659  0.00  0.00     0.249 C 
ATOM      2  O1  NON d   1     -37.023  19.404  -4.136  0.00  0.00    -0.271 OA
ATOM      3  N2  NON d   1     -39.278  18.638  -4.400  0.00  0.00    -0.320 N 
ATOM      4  C9  NON d   1     -40.434  18.019  -3.592  0.00  0.00     0.159 C 
ENDROOT
BRANCH   1   5
ATOM      5  C7  NON d   1     -38.104  18.886  -2.058  0.00  0.00     0.336 C 
BRANCH   5   6
ATOM      6  N1  NON d   1     -38.394  20.255  -1.359  0.00  0.00    -0.054 N 
ATOM      7  H7  NON d   1     -38.791  19.993  -0.439  0.00  0.00     0.278 HD
ATOM      8  H8  NON d   1     -37.517  20.700  -1.080  0.00  0.00     0.278 HD
BRANCH   6   9
ATOM      9  C6  NON d   1     -39.439  21.338  -1.985  0.00  0.00     0.259 C 
BRANCH   9  10
ATOM     10  C5  NON d   1     -39.484  22.062  -3.558  0.00  0.00    -0.023 A 
ATOM     11  C4  NON d   1     -40.580  22.994  -3.978  0.00  0.00     0.010 A 
ATOM     12  C3  NON d   1     -40.651  23.720  -5.147  0.00  0.00     0.007 A 
ATOM     13  C2  NON d   1     -39.577  23.655  -5.980  0.00  0.00    -0.062 A 
ATOM     14  C1  NON d   1     -39.623  24.427  -7.312  0.00  0.00     0.048 C 
ATOM     15  C27 NON d   1     -38.512  22.755  -5.675  0.00  0.00     0.007 A 
ATOM     16  C26 NON d   1     -38.468  21.953  -4.498  0.00  0.00     0.010 A 
ENDBRANCH   9  10
BRANCH   9  17
ATOM     17  C22 NON d   1     -40.065  22.113  -0.811  0.00  0.00     0.017 C 
ATOM     18  C23 NON d   1     -40.882  23.237  -0.820  0.00  0.00     0.017 C 
ATOM     19  C24 NON d   1     -41.178  23.723   0.490  0.00  0.00     0.008 C 
ATOM     20  C25 NON d   1     -40.620  22.935   1.466  0.00  0.00     0.050 C 
ATOM     21  S1  NON d   1     -39.595  21.744   0.805  0.00  0.00    -0.104 SA
ENDBRANCH   9  17
ENDBRANCH   6   9
ENDBRANCH   5   6
ENDBRANCH   1   5
BRANCH   3  22
ATOM     22  C10 NON d   1     -39.549  18.962  -5.785  0.00  0.00     0.052 A 
ATOM     23  C11 NON d   1     -38.565  18.756  -6.768  0.00  0.00     0.031 A 
ATOM     24  C12 NON d   1     -38.762  19.127  -8.105  0.00  0.00     0.002 A 
ATOM     25  C13 NON d   1     -39.949  19.729  -8.503  0.00  0.00     0.001 A 
ATOM     26  C14 NON d   1     -40.956  19.938  -7.569  0.00  0.00     0.019 A 
ATOM     27  C15 NON d   1     -40.765  19.551  -6.233  0.00  0.00     0.058 A 
BRANCH  27  28
ATOM     28  C16 NON d   1     -41.955  19.690  -5.358  0.00  0.00     0.254 C 
ATOM     29  O2  NON d   1     -42.009  20.649  -4.593  0.00  0.00    -0.268 OA
ATOM     30  N3  NON d   1     -42.978  18.803  -5.568  0.00  0.00    -0.351 N 
ATOM     31  H18 NON d   1     -42.874  18.044  -6.228  0.00  0.00     0.163 HD
BRANCH  30  32
ATOM     32  C17 NON d   1     -44.304  19.098  -5.058  0.00  0.00     0.187 C 
BRANCH  32  33
ATOM     33  C18 NON d   1     -45.156  17.904  -4.918  0.00  0.00     0.070 A 
ATOM     34  C19 NON d   1     -45.409  16.991  -3.917  0.00  0.00     0.036 A 
ATOM     35  C20 NON d   1     -46.419  16.130  -4.413  0.00  0.00     0.027 A 
ATOM     36  C21 NON d   1     -46.715  16.567  -5.681  0.00  0.00     0.142 A 
ATOM     37  O3  NON d   1     -45.942  17.635  -6.001  0.00  0.00    -0.325 OA
ENDBRANCH  32  33
ENDBRANCH  30  32
ENDBRANCH  27  28
ENDBRANCH   3  22
TORSDOF 9
ENDMDL
MODEL 7
REMARK VINA RESULT:   -11.538      4.648      8.681
REMARK INTER + INTRA:         -17.075
REMARK INTER:                 -14.222
REMARK INTRA:                  -2.852
REMARK CONF_INDEPENDENT:        2.685
REMARK UNBOUND:                -2.852
REMARK  9 active torsions:
REMARK  status: ('A' for Active; 'I' for Inactive)
REMARK    1  A    between atoms: C6_6  and  C5_5 
REMARK    2  A    between atoms: C6_6  and  N1_7 
REMARK    3  A    between atoms: C6_6  and  C22_28 
REMARK    4  A    between atoms: N1_7  and  C7_8 
REMARK    5  A    between atoms: C7_8  and  C8_9 
REMARK       I    between atoms: C8_9  and  N2_11 
REMARK    6  A    between atoms: N2_11  and  C10_13 
REMARK    7  A    between atoms: C15_18  and  C16_19 
REMARK       I    between atoms: C16_19  and  N3_21 
REMARK    8  A    between atoms: N3_21  and  C17_22 
REMARK    9  A    between atoms: C17_22  and  C18_23 
ROOT
ATOM      1  C8  NON d   1     -38.787  20.586  -2.534  0.00  0.00     0.249 C 
ATOM      2  O1  NON d   1     -37.825  21.219  -2.983  0.00  0.00    -0.271 OA
ATOM      3  N2  NON d   1     -39.532  19.553  -3.223  0.00  0.00    -0.320 N 
ATOM      4  C9  NON d   1     -40.598  18.806  -2.400  0.00  0.00     0.159 C 
ENDROOT
BRANCH   1   5
ATOM      5  C7  NON d   1     -39.217  20.992  -1.042  0.00  0.00     0.336 C 
BRANCH   5   6
ATOM      6  N1  NON d   1     -38.683  22.402  -0.623  0.00  0.00    -0.054 N 
ATOM      7  H7  NON d   1     -38.401  22.284   0.367  0.00  0.00     0.278 HD
ATOM      8  H8  NON d   1     -37.781  22.582  -1.068  0.00  0.00     0.278 HD
BRANCH   6   9
ATOM      9  C6  NON d   1     -39.635  23.725  -0.643  0.00  0.00     0.259 C 
BRANCH   9  10
ATOM     10  C5  NON d   1     -40.456  24.526   0.655  0.00  0.00    -0.023 A 
ATOM     11  C4  NON d   1     -40.391  24.031   2.068  0.00  0.00     0.010 A 
ATOM     12  C3  NON d   1     -40.896  24.652   3.190  0.00  0.00     0.007 A 
ATOM     13  C2  NON d   1     -41.440  25.887   3.019  0.00  0.00    -0.062 A 
ATOM     14  C1  NON d   1     -42.042  26.608   4.240  0.00  0.00     0.048 C 
ATOM     15  C27 NON d   1     -41.581  26.410   1.699  0.00  0.00     0.007 A 
ATOM     16  C26 NON d   1     -41.120  25.739   0.529  0.00  0.00     0.010 A 
ENDBRANCH   9  10
BRANCH   9  17
ATOM     17  C22 NON d   1     -40.217  23.857  -2.062  0.00  0.00     0.017 C 
ATOM     18  C23 NON d   1     -41.068  23.008  -2.759  0.00  0.00     0.017 C 
ATOM     19  C24 NON d   1     -41.304  23.433  -4.101  0.00  0.00     0.008 C 
ATOM     20  C25 NON d   1     -40.668  24.617  -4.384  0.00  0.00     0.050 C 
ATOM     21  S1  NON d   1     -39.645  25.101  -3.109  0.00  0.00    -0.104 SA
ENDBRANCH   9  17
ENDBRANCH   6   9
ENDBRANCH   5   6
ENDBRANCH   1   5
BRANCH   3  22
ATOM     22  C10 NON d   1     -39.491  19.278  -4.644  0.00  0.00     0.052 A 
ATOM     23  C11 NON d   1     -38.275  18.953  -5.269  0.00  0.00     0.031 A 
ATOM     24  C12 NON d   1     -38.181  18.755  -6.654  0.00  0.00     0.002 A 
ATOM     25  C13 NON d   1     -39.303  18.887  -7.463  0.00  0.00     0.001 A 
ATOM     26  C14 NON d   1     -40.530  19.192  -6.886  0.00  0.00     0.019 A 
ATOM     27  C15 NON d   1     -40.626  19.375  -5.498  0.00  0.00     0.058 A 
BRANCH  27  28
ATOM     28  C16 NON d   1     -42.004  19.554  -4.977  0.00  0.00     0.254 C 
ATOM     29  O2  NON d   1     -42.252  20.554  -4.310  0.00  0.00    -0.268 OA
ATOM     30  N3  NON d   1     -42.942  18.648  -5.399  0.00  0.00    -0.351 N 
ATOM     31  H18 NON d   1     -42.673  17.853  -5.963  0.00  0.00     0.163 HD
BRANCH  30  32
ATOM     32  C17 NON d   1     -44.354  18.961  -5.275  0.00  0.00     0.187 C 
BRANCH  32  33
ATOM     33  C18 NON d   1     -45.169  17.816  -4.834  0.00  0.00     0.070 A 
ATOM     34  C19 NON d   1     -45.401  17.183  -3.632  0.00  0.00     0.036 A 
ATOM     35  C20 NON d   1     -46.381  16.193  -3.890  0.00  0.00     0.027 A 
ATOM     36  C21 NON d   1     -46.682  16.281  -5.227  0.00  0.00     0.142 A 
ATOM     37  O3  NON d   1     -45.940  17.255  -5.810  0.00  0.00    -0.325 OA
ENDBRANCH  32  33
ENDBRANCH  30  32
ENDBRANCH  27  28
ENDBRANCH   3  22
TORSDOF 9
ENDMDL
MODEL 8
REMARK VINA RESULT:   -11.412      1.639      4.146
REMARK INTER + INTRA:         -17.197
REMARK INTER:                 -14.097
REMARK INTRA:                  -3.101
REMARK CONF_INDEPENDENT:        2.685
REMARK UNBOUND:                -3.101
REMARK  9 active torsions:
REMARK  status: ('A' for Active; 'I' for Inactive)
REMARK    1  A    between atoms: C6_6  and  C5_5 
REMARK    2  A    between atoms: C6_6  and  N1_7 
REMARK    3  A    between atoms: C6_6  and  C22_28 
REMARK    4  A    between atoms: N1_7  and  C7_8 
REMARK    5  A    between atoms: C7_8  and  C8_9 
REMARK       I    between atoms: C8_9  and  N2_11 
REMARK    6  A    between atoms: N2_11  and  C10_13 
REMARK    7  A    between atoms: C15_18  and  C16_19 
REMARK       I    between atoms: C16_19  and  N3_21 
REMARK    8  A    between atoms: N3_21  and  C17_22 
REMARK    9  A    between atoms: C17_22  and  C18_23 
ROOT
ATOM      1  C8  NON d   1     -40.744  19.478  -6.911  0.00  0.00     0.249 C 
ATOM      2  O1  NON d   1     -40.532  18.332  -7.323  0.00  0.00    -0.271 OA
ATOM      3  N2  NON d   1     -40.701  19.915  -5.531  0.00  0.00    -0.320 N 
ATOM      4  C9  NON d   1     -40.857  21.427  -5.282  0.00  0.00     0.159 C 
ENDROOT
BRANCH   1   5
ATOM      5  C7  NON d   1     -41.107  20.543  -8.055  0.00  0.00     0.336 C 
BRANCH   5   6
ATOM      6  N1  NON d   1     -39.978  20.683  -9.129  0.00  0.00    -0.054 N 
ATOM      7  H7  NON d   1     -39.839  19.719  -9.480  0.00  0.00     0.278 HD
ATOM      8  H8  NON d   1     -40.342  21.150  -9.962  0.00  0.00     0.278 HD
BRANCH   6   9
ATOM      9  C6  NON d   1     -38.487  21.220  -8.746  0.00  0.00     0.259 C 
BRANCH   9  10
ATOM     10  C5  NON d   1     -37.700  21.319  -7.206  0.00  0.00    -0.023 A 
ATOM     11  C4  NON d   1     -37.648  22.592  -6.417  0.00  0.00     0.010 A 
ATOM     12  C3  NON d   1     -37.164  22.756  -5.137  0.00  0.00     0.007 A 
ATOM     13  C2  NON d   1     -36.765  21.633  -4.479  0.00  0.00    -0.062 A 
ATOM     14  C1  NON d   1     -36.190  21.772  -3.057  0.00  0.00     0.048 C 
ATOM     15  C27 NON d   1     -36.740  20.389  -5.177  0.00  0.00     0.007 A 
ATOM     16  C26 NON d   1     -37.178  20.229  -6.524  0.00  0.00     0.010 A 
ENDBRANCH   9  10
BRANCH   9  17
ATOM     17  C22 NON d   1     -38.047  22.198  -9.851  0.00  0.00     0.017 C 
ATOM     18  C23 NON d   1     -37.223  23.314  -9.776  0.00  0.00     0.017 C 
ATOM     19  C24 NON d   1     -37.135  24.027 -11.010  0.00  0.00     0.008 C 
ATOM     20  C25 NON d   1     -37.854  23.415 -12.007  0.00  0.00     0.050 C 
ATOM     21  S1  NON d   1     -38.776  22.112 -11.410  0.00  0.00    -0.104 SA
ENDBRANCH   9  17
ENDBRANCH   6   9
ENDBRANCH   5   6
ENDBRANCH   1   5
BRANCH   3  22
ATOM     22  C10 NON d   1     -40.698  19.057  -4.365  0.00  0.00     0.052 A 
ATOM     23  C11 NON d   1     -39.525  18.889  -3.610  0.00  0.00     0.031 A 
ATOM     24  C12 NON d   1     -39.463  18.008  -2.521  0.00  0.00     0.002 A 
ATOM     25  C13 NON d   1     -40.572  17.255  -2.158  0.00  0.00     0.001 A 
ATOM     26  C14 NON d   1     -41.758  17.399  -2.867  0.00  0.00     0.019 A 
ATOM     27  C15 NON d   1     -41.825  18.293  -3.947  0.00  0.00     0.058 A 
BRANCH  27  28
ATOM     28  C16 NON d   1     -43.174  18.472  -4.538  0.00  0.00     0.254 C 
ATOM     29  O2  NON d   1     -43.410  19.507  -5.155  0.00  0.00    -0.268 OA
ATOM     30  N3  NON d   1     -44.022  17.398  -4.467  0.00  0.00    -0.351 N 
ATOM     31  H18 NON d   1     -43.758  16.567  -3.956  0.00  0.00     0.163 HD
BRANCH  30  32
ATOM     32  C17 NON d   1     -45.179  17.333  -5.341  0.00  0.00     0.187 C 
BRANCH  32  33
ATOM     33  C18 NON d   1     -46.322  16.619  -4.746  0.00  0.00     0.070 A 
ATOM     34  C19 NON d   1     -46.884  16.542  -3.490  0.00  0.00     0.036 A 
ATOM     35  C20 NON d   1     -48.042  15.737  -3.623  0.00  0.00     0.027 A 
ATOM     36  C21 NON d   1     -48.112  15.372  -4.945  0.00  0.00     0.142 A 
ATOM     37  O3  NON d   1     -47.064  15.892  -5.631  0.00  0.00    -0.325 OA
ENDBRANCH  32  33
ENDBRANCH  30  32
ENDBRANCH  27  28
ENDBRANCH   3  22
TORSDOF 9
ENDMDL
MODEL 9
REMARK VINA RESULT:   -11.061      5.432      9.362
REMARK INTER + INTRA:         -16.986
REMARK INTER:                 -13.745
REMARK INTRA:                  -3.241
REMARK CONF_INDEPENDENT:        2.685
REMARK UNBOUND:                -3.241
REMARK  9 active torsions:
REMARK  status: ('A' for Active; 'I' for Inactive)
REMARK    1  A    between atoms: C6_6  and  C5_5 
REMARK    2  A    between atoms: C6_6  and  N1_7 
REMARK    3  A    between atoms: C6_6  and  C22_28 
REMARK    4  A    between atoms: N1_7  and  C7_8 
REMARK    5  A    between atoms: C7_8  and  C8_9 
REMARK       I    between atoms: C8_9  and  N2_11 
REMARK    6  A    between atoms: N2_11  and  C10_13 
REMARK    7  A    between atoms: C15_18  and  C16_19 
REMARK       I    between atoms: C16_19  and  N3_21 
REMARK    8  A    between atoms: N3_21  and  C17_22 
REMARK    9  A    between atoms: C17_22  and  C18_23 
ROOT
ATOM      1  C8  NON d   1     -40.298  21.128  -2.160  0.00  0.00     0.249 C 
ATOM      2  O1  NON d   1     -40.898  22.194  -2.333  0.00  0.00    -0.271 OA
ATOM      3  N2  NON d   1     -39.914  20.183  -3.188  0.00  0.00    -0.320 N 
ATOM      4  C9  NON d   1     -39.042  18.995  -2.742  0.00  0.00     0.159 C 
ENDROOT
BRANCH   1   5
ATOM      5  C7  NON d   1     -39.939  20.803  -0.630  0.00  0.00     0.336 C 
BRANCH   5   6
ATOM      6  N1  NON d   1     -40.725  21.704   0.379  0.00  0.00    -0.054 N 
ATOM      7  H7  NON d   1     -41.462  22.148  -0.197  0.00  0.00     0.278 HD
ATOM      8  H8  NON d   1     -41.284  21.123   1.007  0.00  0.00     0.278 HD
BRANCH   6   9
ATOM      9  C6  NON d   1     -40.008  22.930   1.178  0.00  0.00     0.259 C 
BRANCH   9  10
ATOM     10  C5  NON d   1     -40.708  24.225   2.091  0.00  0.00    -0.023 A 
ATOM     11  C4  NON d   1     -41.351  24.005   3.427  0.00  0.00     0.010 A 
ATOM     12  C3  NON d   1     -41.824  24.969   4.290  0.00  0.00     0.007 A 
ATOM     13  C2  NON d   1     -41.615  26.267   3.939  0.00  0.00    -0.062 A 
ATOM     14  C1  NON d   1     -42.151  27.380   4.860  0.00  0.00     0.048 C 
ATOM     15  C27 NON d   1     -41.051  26.562   2.662  0.00  0.00     0.007 A 
ATOM     16  C26 NON d   1     -40.622  25.565   1.738  0.00  0.00     0.010 A 
ENDBRANCH   9  10
BRANCH   9  17
ATOM     17  C22 NON d   1     -38.625  23.157   0.539  0.00  0.00     0.017 C 
ATOM     18  C23 NON d   1     -38.241  24.037  -0.465  0.00  0.00     0.017 C 
ATOM     19  C24 NON d   1     -36.878  23.878  -0.857  0.00  0.00     0.008 C 
ATOM     20  C25 NON d   1     -36.241  22.915  -0.114  0.00  0.00     0.050 C 
ATOM     21  S1  NON d   1     -37.327  22.083   0.904  0.00  0.00    -0.104 SA
ENDBRANCH   9  17
ENDBRANCH   6   9
ENDBRANCH   5   6
ENDBRANCH   1   5
BRANCH   3  22
ATOM     22  C10 NON d   1     -40.411  20.155  -4.548  0.00  0.00     0.052 A 
ATOM     23  C11 NON d   1     -39.807  20.944  -5.541  0.00  0.00     0.031 A 
ATOM     24  C12 NON d   1     -40.307  21.003  -6.850  0.00  0.00     0.002 A 
ATOM     25  C13 NON d   1     -41.439  20.280  -7.206  0.00  0.00     0.001 A 
ATOM     26  C14 NON d   1     -42.060  19.474  -6.260  0.00  0.00     0.019 A 
ATOM     27  C15 NON d   1     -41.550  19.403  -4.954  0.00  0.00     0.058 A 
BRANCH  27  28
ATOM     28  C16 NON d   1     -42.204  18.406  -4.072  0.00  0.00     0.254 C 
ATOM     29  O2  NON d   1     -41.688  18.156  -2.987  0.00  0.00    -0.268 OA
ATOM     30  N3  NON d   1     -43.424  17.932  -4.480  0.00  0.00    -0.351 N 
ATOM     31  H18 NON d   1     -43.801  18.191  -5.382  0.00  0.00     0.163 HD
BRANCH  30  32
ATOM     32  C17 NON d   1     -44.302  17.282  -3.525  0.00  0.00     0.187 C 
BRANCH  32  33
ATOM     33  C18 NON d   1     -45.594  16.873  -4.103  0.00  0.00     0.070 A 
ATOM     34  C19 NON d   1     -46.789  16.407  -3.601  0.00  0.00     0.036 A 
ATOM     35  C20 NON d   1     -47.666  16.294  -4.709  0.00  0.00     0.027 A 
ATOM     36  C21 NON d   1     -46.952  16.692  -5.812  0.00  0.00     0.142 A 
ATOM     37  O3  NON d   1     -45.689  17.032  -5.456  0.00  0.00    -0.325 OA
ENDBRANCH  32  33
ENDBRANCH  30  32
ENDBRANCH  27  28
ENDBRANCH   3  22
TORSDOF 9
ENDMDL
