MODEL 1
REMARK VINA RESULT:   -11.268      0.000      0.000
REMARK INTER + INTRA:         -15.838
REMARK INTER:                 -13.953
REMARK INTRA:                  -1.885
REMARK CONF_INDEPENDENT:        2.685
REMARK UNBOUND:                -1.885
REMARK  9 active torsions:
REMARK  status: ('A' for Active; 'I' for Inactive)
REMARK    1  A    between atoms: C3_3  and  N1_4 
REMARK       I    between atoms: N1_4  and  C5_6 
REMARK    2  A    between atoms: C5_6  and  C6_8 
REMARK    3  A    between atoms: C7_9  and  C6_8 
REMARK    4  A    between atoms: C9_12  and  N3_13 
REMARK    5  A    between atoms: N3_13  and  C10_14 
REMARK    6  A    between atoms: C14_18  and  O2_19 
REMARK    7  A    between atoms: C19_25  and  C21_27 
REMARK    8  A    between atoms: C21_27  and  O3_28 
REMARK    9  A    between atoms: C22_29  and  O4_30 
ROOT
ATOM      1  C1  NON d   1     -40.117  25.142  -3.664  0.00  0.00     0.014 C 
ATOM      2  C2  NON d   1     -40.314  24.223  -2.444  0.00  0.00    -0.098 C 
ATOM      3  C3  NON d   1     -40.512  23.304  -1.225  0.00  0.00     0.218 C 
ENDROOT
BRANCH   3   4
ATOM      4  N1  NON d   1     -39.900  21.978  -1.169  0.00  0.00    -0.346 N 
ATOM      5  C4  NON d   1     -39.130  21.615   0.012  0.00  0.00     0.153 C 
ATOM      6  C5  NON d   1     -40.310  21.087  -2.183  0.00  0.00     0.220 C 
ATOM      7  O1  NON d   1     -41.062  21.494  -3.080  0.00  0.00    -0.273 OA
BRANCH   6   8
ATOM      8  C6  NON d   1     -39.824  19.624  -2.175  0.00  0.00     0.114 C 
BRANCH   8   9
ATOM      9  C7  NON d   1     -39.988  18.889  -3.555  0.00  0.00     0.056 C 
ATOM     10  C8  NON d   1     -41.407  18.588  -3.991  0.00  0.00     0.056 A 
ATOM     11  N2  NON d   1     -42.495  18.434  -3.128  0.00  0.00    -0.227 NA
ATOM     12  C16 NON d   1     -41.654  18.154  -5.269  0.00  0.00     0.012 A 
ATOM     13  C9  NON d   1     -43.528  17.867  -3.746  0.00  0.00     0.171 A 
ATOM     14  S1  NON d   1     -43.252  17.640  -5.435  0.00  0.00    -0.055 SA
ATOM     15  C17 NON d   1     -40.660  17.953  -6.341  0.00  0.00     0.054 C 
ATOM     16  C18 NON d   1     -39.442  18.899  -6.238  0.00  0.00     0.012 C 
ATOM     17  C19 NON d   1     -39.392  19.908  -7.482  0.00  0.00     0.008 C 
ATOM     18  C25 NON d   1     -39.102  19.485  -4.777  0.00  0.00    -0.030 C 
ATOM     19  C20 NON d   1     -40.751  20.633  -7.730  0.00  0.00     0.020 C 
ATOM     20  C22 NON d   1     -38.326  21.036  -7.314  0.00  0.00     0.128 C 
ATOM     21  C23 NON d   1     -38.141  21.581  -5.899  0.00  0.00     0.033 C 
ATOM     22  C24 NON d   1     -39.111  21.031  -4.853  0.00  0.00     0.013 C 
ATOM     23  C26 NON d   1     -37.645  19.021  -4.445  0.00  0.00     0.016 C 
BRANCH  13  24
ATOM     24  N3  NON d   1     -44.652  17.466  -3.077  0.00  0.00    -0.335 N 
ATOM     25  H10 NON d   1     -44.454  17.207  -2.117  0.00  0.00     0.168 HD
BRANCH  24  26
ATOM     26  C10 NON d   1     -45.908  16.986  -3.543  0.00  0.00     0.036 A 
ATOM     27  C11 NON d   1     -47.052  17.228  -2.753  0.00  0.00     0.029 A 
ATOM     28  C12 NON d   1     -48.319  16.738  -3.114  0.00  0.00     0.005 A 
ATOM     29  C13 NON d   1     -48.473  15.981  -4.270  0.00  0.00     0.036 A 
ATOM     30  C14 NON d   1     -47.362  15.749  -5.065  0.00  0.00     0.067 A 
ATOM     31  C15 NON d   1     -46.107  16.262  -4.722  0.00  0.00     0.066 A 
BRANCH  30  32
ATOM     32  O2  NON d   1     -47.451  15.005  -6.208  0.00  0.00    -0.361 OA
ATOM     33  H14 NON d   1     -47.932  15.519  -6.877  0.00  0.00     0.217 HD
ENDBRANCH  30  32
ENDBRANCH  24  26
ENDBRANCH  13  24
BRANCH  17  34
ATOM     34  C21 NON d   1     -39.109  19.105  -8.805  0.00  0.00     0.176 C 
BRANCH  34  35
ATOM     35  O3  NON d   1     -38.088  18.127  -8.645  0.00  0.00    -0.400 OA
ATOM     36  H24 NON d   1     -37.452  18.465  -7.994  0.00  0.00     0.209 HD
ENDBRANCH  34  35
ENDBRANCH  17  34
BRANCH  20  37
ATOM     37  O4  NON d   1     -37.044  20.649  -7.810  0.00  0.00    -0.395 OA
ATOM     38  H26 NON d   1     -37.186  20.087  -8.591  0.00  0.00     0.210 HD
ENDBRANCH  20  37
ENDBRANCH   8   9
ENDBRANCH   6   8
ENDBRANCH   3   4
TORSDOF 9
ENDMDL
MODEL 2
REMARK VINA RESULT:   -10.450      2.327      5.022
REMARK INTER + INTRA:         -15.291
REMARK INTER:                 -13.135
REMARK INTRA:                  -2.156
REMARK CONF_INDEPENDENT:        2.685
REMARK UNBOUND:                -2.156
REMARK  9 active torsions:
REMARK  status: ('A' for Active; 'I' for Inactive)
REMARK    1  A    between atoms: C3_3  and  N1_4 
REMARK       I    between atoms: N1_4  and  C5_6 
REMARK    2  A    between atoms: C5_6  and  C6_8 
REMARK    3  A    between atoms: C7_9  and  C6_8 
REMARK    4  A    between atoms: C9_12  and  N3_13 
REMARK    5  A    between atoms: N3_13  and  C10_14 
REMARK    6  A    between atoms: C14_18  and  O2_19 
REMARK    7  A    between atoms: C19_25  and  C21_27 
REMARK    8  A    between atoms: C21_27  and  O3_28 
REMARK    9  A    between atoms: C22_29  and  O4_30 
ROOT
ATOM      1  C1  NON d   1     -36.207  20.268 -10.960  0.00  0.00     0.014 C 
ATOM      2  C2  NON d   1     -37.155  19.896  -9.804  0.00  0.00    -0.098 C 
ATOM      3  C3  NON d   1     -38.102  19.525  -8.648  0.00  0.00     0.218 C 
ENDROOT
BRANCH   3   4
ATOM      4  N1  NON d   1     -38.694  20.552  -7.794  0.00  0.00    -0.346 N 
ATOM      5  C4  NON d   1     -38.096  21.880  -7.785  0.00  0.00     0.153 C 
ATOM      6  C5  NON d   1     -39.940  20.212  -7.227  0.00  0.00     0.220 C 
ATOM      7  O1  NON d   1     -40.396  19.073  -7.402  0.00  0.00    -0.273 OA
BRANCH   6   8
ATOM      8  C6  NON d   1     -40.723  21.247  -6.394  0.00  0.00     0.114 C 
BRANCH   8   9
ATOM      9  C7  NON d   1     -40.706  20.967  -4.847  0.00  0.00     0.056 C 
ATOM     10  C8  NON d   1     -41.106  19.572  -4.413  0.00  0.00     0.056 A 
ATOM     11  N2  NON d   1     -41.931  18.711  -5.142  0.00  0.00    -0.227 NA
ATOM     12  C16 NON d   1     -40.908  19.175  -3.114  0.00  0.00     0.012 A 
ATOM     13  C9  NON d   1     -42.366  17.703  -4.388  0.00  0.00     0.171 A 
ATOM     14  S1  NON d   1     -41.661  17.697  -2.812  0.00  0.00    -0.055 SA
ATOM     15  C17 NON d   1     -40.300  19.971  -2.031  0.00  0.00     0.054 C 
ATOM     16  C18 NON d   1     -39.251  20.992  -2.527  0.00  0.00     0.012 C 
ATOM     17  C19 NON d   1     -37.789  20.621  -1.986  0.00  0.00     0.008 C 
ATOM     18  C25 NON d   1     -39.387  21.484  -4.055  0.00  0.00    -0.030 C 
ATOM     19  C20 NON d   1     -37.407  19.130  -2.239  0.00  0.00     0.020 C 
ATOM     20  C22 NON d   1     -36.658  21.474  -2.643  0.00  0.00     0.128 C 
ATOM     21  C23 NON d   1     -36.845  21.815  -4.120  0.00  0.00     0.033 C 
ATOM     22  C24 NON d   1     -38.061  21.176  -4.791  0.00  0.00     0.013 C 
ATOM     23  C26 NON d   1     -39.567  23.038  -4.002  0.00  0.00     0.016 C 
BRANCH  13  24
ATOM     24  N3  NON d   1     -43.313  16.818  -4.826  0.00  0.00    -0.335 N 
ATOM     25  H10 NON d   1     -43.022  16.330  -5.666  0.00  0.00     0.168 HD
BRANCH  24  26
ATOM     26  C10 NON d   1     -44.711  16.734  -4.579  0.00  0.00     0.036 A 
ATOM     27  C11 NON d   1     -45.211  17.255  -3.367  0.00  0.00     0.029 A 
ATOM     28  C12 NON d   1     -46.570  17.159  -3.023  0.00  0.00     0.005 A 
ATOM     29  C13 NON d   1     -47.465  16.526  -3.879  0.00  0.00     0.036 A 
ATOM     30  C14 NON d   1     -46.993  16.024  -5.081  0.00  0.00     0.067 A 
ATOM     31  C15 NON d   1     -45.647  16.146  -5.437  0.00  0.00     0.066 A 
BRANCH  30  32
ATOM     32  O2  NON d   1     -47.824  15.385  -5.957  0.00  0.00    -0.361 OA
ATOM     33  H14 NON d   1     -48.176  16.037  -6.585  0.00  0.00     0.217 HD
ENDBRANCH  30  32
ENDBRANCH  24  26
ENDBRANCH  13  24
BRANCH  17  34
ATOM     34  C21 NON d   1     -37.743  20.796  -0.423  0.00  0.00     0.176 C 
BRANCH  34  35
ATOM     35  O3  NON d   1     -37.985  22.137  -0.014  0.00  0.00    -0.400 OA
ATOM     36  H24 NON d   1     -37.925  22.703  -0.801  0.00  0.00     0.209 HD
ENDBRANCH  34  35
ENDBRANCH  17  34
BRANCH  20  37
ATOM     37  O4  NON d   1     -36.414  22.689  -1.935  0.00  0.00    -0.395 OA
ATOM     38  H26 NON d   1     -36.207  22.459  -1.013  0.00  0.00     0.210 HD
ENDBRANCH  20  37
ENDBRANCH   8   9
ENDBRANCH   6   8
ENDBRANCH   3   4
TORSDOF 9
ENDMDL
MODEL 3
REMARK VINA RESULT:    -8.952      2.741      7.574
REMARK INTER + INTRA:         -13.563
REMARK INTER:                 -11.637
REMARK INTRA:                  -1.926
REMARK CONF_INDEPENDENT:        2.685
REMARK UNBOUND:                -1.926
REMARK  9 active torsions:
REMARK  status: ('A' for Active; 'I' for Inactive)
REMARK    1  A    between atoms: C3_3  and  N1_4 
REMARK       I    between atoms: N1_4  and  C5_6 
REMARK    2  A    between atoms: C5_6  and  C6_8 
REMARK    3  A    between atoms: C7_9  and  C6_8 
REMARK    4  A    between atoms: C9_12  and  N3_13 
REMARK    5  A    between atoms: N3_13  and  C10_14 
REMARK    6  A    between atoms: C14_18  and  O2_19 
REMARK    7  A    between atoms: C19_25  and  C21_27 
REMARK    8  A    between atoms: C21_27  and  O3_28 
REMARK    9  A    between atoms: C22_29  and  O4_30 
ROOT
ATOM      1  C1  NON d   1     -47.158  16.475  -5.447  0.00  0.00     0.014 C 
ATOM      2  C2  NON d   1     -45.964  16.661  -4.492  0.00  0.00    -0.098 C 
ATOM      3  C3  NON d   1     -44.771  16.848  -3.537  0.00  0.00     0.218 C 
ENDROOT
BRANCH   3   4
ATOM      4  N1  NON d   1     -43.413  17.025  -4.046  0.00  0.00    -0.346 N 
ATOM      5  C4  NON d   1     -43.140  16.684  -5.435  0.00  0.00     0.153 C 
ATOM      6  C5  NON d   1     -42.542  17.732  -3.191  0.00  0.00     0.220 C 
ATOM      7  O1  NON d   1     -42.936  18.065  -2.064  0.00  0.00    -0.273 OA
BRANCH   6   8
ATOM      8  C6  NON d   1     -41.114  18.082  -3.654  0.00  0.00     0.114 C 
BRANCH   8   9
ATOM      9  C7  NON d   1     -40.943  19.572  -4.127  0.00  0.00     0.056 C 
ATOM     10  C8  NON d   1     -39.993  20.429  -3.315  0.00  0.00     0.056 A 
ATOM     11  N2  NON d   1     -39.665  20.212  -1.974  0.00  0.00    -0.227 NA
ATOM     12  C16 NON d   1     -39.616  21.663  -3.781  0.00  0.00     0.012 A 
ATOM     13  C9  NON d   1     -39.078  21.282  -1.440  0.00  0.00     0.171 A 
ATOM     14  S1  NON d   1     -38.777  22.525  -2.599  0.00  0.00    -0.055 SA
ATOM     15  C17 NON d   1     -40.022  22.289  -5.054  0.00  0.00     0.054 C 
ATOM     16  C18 NON d   1     -40.308  21.268  -6.180  0.00  0.00     0.012 C 
ATOM     17  C19 NON d   1     -39.247  21.417  -7.372  0.00  0.00     0.008 C 
ATOM     18  C25 NON d   1     -40.722  19.781  -5.721  0.00  0.00    -0.030 C 
ATOM     19  C20 NON d   1     -37.770  21.428  -6.872  0.00  0.00     0.020 C 
ATOM     20  C22 NON d   1     -39.339  20.265  -8.422  0.00  0.00     0.128 C 
ATOM     21  C23 NON d   1     -39.656  18.876  -7.870  0.00  0.00     0.033 C 
ATOM     22  C24 NON d   1     -39.724  18.777  -6.346  0.00  0.00     0.013 C 
ATOM     23  C26 NON d   1     -42.136  19.510  -6.334  0.00  0.00     0.016 C 
BRANCH  13  24
ATOM     24  N3  NON d   1     -38.807  21.376  -0.103  0.00  0.00    -0.335 N 
ATOM     25  H10 NON d   1     -38.739  20.466   0.340  0.00  0.00     0.168 HD
BRANCH  24  26
ATOM     26  C10 NON d   1     -38.984  22.442   0.823  0.00  0.00     0.036 A 
ATOM     27  C11 NON d   1     -40.295  22.761   1.236  0.00  0.00     0.029 A 
ATOM     28  C12 NON d   1     -40.558  23.835   2.102  0.00  0.00     0.005 A 
ATOM     29  C13 NON d   1     -39.516  24.630   2.569  0.00  0.00     0.036 A 
ATOM     30  C14 NON d   1     -38.221  24.320   2.185  0.00  0.00     0.067 A 
ATOM     31  C15 NON d   1     -37.956  23.232   1.348  0.00  0.00     0.066 A 
BRANCH  30  32
ATOM     32  O2  NON d   1     -37.159  25.069   2.606  0.00  0.00    -0.361 OA
ATOM     33  H14 NON d   1     -37.032  24.923   3.558  0.00  0.00     0.217 HD
ENDBRANCH  30  32
ENDBRANCH  24  26
ENDBRANCH  13  24
BRANCH  17  34
ATOM     34  C21 NON d   1     -39.447  22.803  -8.089  0.00  0.00     0.176 C 
BRANCH  34  35
ATOM     35  O3  NON d   1     -40.706  22.905  -8.743  0.00  0.00    -0.400 OA
ATOM     36  H24 NON d   1     -40.637  22.445  -9.595  0.00  0.00     0.209 HD
ENDBRANCH  34  35
ENDBRANCH  17  34
BRANCH  20  37
ATOM     37  O4  NON d   1     -40.274  20.552  -9.461  0.00  0.00    -0.395 OA
ATOM     38  H26 NON d   1     -40.877  21.242  -9.135  0.00  0.00     0.210 HD
ENDBRANCH  20  37
ENDBRANCH   8   9
ENDBRANCH   6   8
ENDBRANCH   3   4
TORSDOF 9
ENDMDL
MODEL 4
REMARK VINA RESULT:    -8.868      3.045      4.560
REMARK INTER + INTRA:         -13.913
REMARK INTER:                 -11.553
REMARK INTRA:                  -2.361
REMARK CONF_INDEPENDENT:        2.685
REMARK UNBOUND:                -2.361
REMARK  9 active torsions:
REMARK  status: ('A' for Active; 'I' for Inactive)
REMARK    1  A    between atoms: C3_3  and  N1_4 
REMARK       I    between atoms: N1_4  and  C5_6 
REMARK    2  A    between atoms: C5_6  and  C6_8 
REMARK    3  A    between atoms: C7_9  and  C6_8 
REMARK    4  A    between atoms: C9_12  and  N3_13 
REMARK    5  A    between atoms: N3_13  and  C10_14 
REMARK    6  A    between atoms: C14_18  and  O2_19 
REMARK    7  A    between atoms: C19_25  and  C21_27 
REMARK    8  A    between atoms: C21_27  and  O3_28 
REMARK    9  A    between atoms: C22_29  and  O4_30 
ROOT
ATOM      1  C1  NON d   1     -40.169  18.002  -2.429  0.00  0.00     0.014 C 
ATOM      2  C2  NON d   1     -38.713  18.000  -2.932  0.00  0.00    -0.098 C 
ATOM      3  C3  NON d   1     -37.258  17.999  -3.433  0.00  0.00     0.218 C 
ENDROOT
BRANCH   3   4
ATOM      4  N1  NON d   1     -36.865  18.758  -4.619  0.00  0.00    -0.346 N 
ATOM      5  C4  NON d   1     -36.380  18.030  -5.783  0.00  0.00     0.153 C 
ATOM      6  C5  NON d   1     -37.212  20.125  -4.595  0.00  0.00     0.220 C 
ATOM      7  O1  NON d   1     -37.725  20.604  -3.573  0.00  0.00    -0.273 OA
BRANCH   6   8
ATOM      8  C6  NON d   1     -36.953  21.014  -5.828  0.00  0.00     0.114 C 
BRANCH   8   9
ATOM      9  C7  NON d   1     -37.861  20.672  -7.065  0.00  0.00     0.056 C 
ATOM     10  C8  NON d   1     -39.354  20.626  -6.809  0.00  0.00     0.056 A 
ATOM     11  N2  NON d   1     -39.947  20.362  -5.572  0.00  0.00    -0.227 NA
ATOM     12  C16 NON d   1     -40.228  20.556  -7.864  0.00  0.00     0.012 A 
ATOM     13  C9  NON d   1     -41.239  20.070  -5.707  0.00  0.00     0.171 A 
ATOM     14  S1  NON d   1     -41.798  20.255  -7.329  0.00  0.00    -0.055 SA
ATOM     15  C17 NON d   1     -39.882  20.541  -9.299  0.00  0.00     0.054 C 
ATOM     16  C18 NON d   1     -38.582  21.310  -9.628  0.00  0.00     0.012 C 
ATOM     17  C19 NON d   1     -38.889  22.593 -10.538  0.00  0.00     0.008 C 
ATOM     18  C25 NON d   1     -37.514  21.473  -8.433  0.00  0.00    -0.030 C 
ATOM     19  C20 NON d   1     -40.036  23.482  -9.967  0.00  0.00     0.020 C 
ATOM     20  C22 NON d   1     -37.656  23.536 -10.706  0.00  0.00     0.128 C 
ATOM     21  C23 NON d   1     -36.752  23.684  -9.483  0.00  0.00     0.033 C 
ATOM     22  C24 NON d   1     -37.242  22.980  -8.218  0.00  0.00     0.013 C 
ATOM     23  C26 NON d   1     -36.190  20.804  -8.933  0.00  0.00     0.016 C 
BRANCH  13  24
ATOM     24  N3  NON d   1     -42.001  19.620  -4.663  0.00  0.00    -0.335 N 
ATOM     25  H10 NON d   1     -41.532  19.732  -3.771  0.00  0.00     0.168 HD
BRANCH  24  26
ATOM     26  C10 NON d   1     -43.095  18.713  -4.616  0.00  0.00     0.036 A 
ATOM     27  C11 NON d   1     -43.016  17.612  -3.737  0.00  0.00     0.029 A 
ATOM     28  C12 NON d   1     -44.029  16.640  -3.673  0.00  0.00     0.005 A 
ATOM     29  C13 NON d   1     -45.145  16.737  -4.497  0.00  0.00     0.036 A 
ATOM     30  C14 NON d   1     -45.246  17.822  -5.354  0.00  0.00     0.067 A 
ATOM     31  C15 NON d   1     -44.253  18.805  -5.396  0.00  0.00     0.066 A 
BRANCH  30  32
ATOM     32  O2  NON d   1     -46.315  17.965  -6.193  0.00  0.00    -0.361 OA
ATOM     33  H14 NON d   1     -46.013  18.383  -7.015  0.00  0.00     0.217 HD
ENDBRANCH  30  32
ENDBRANCH  24  26
ENDBRANCH  13  24
BRANCH  17  34
ATOM     34  C21 NON d   1     -39.396  22.130 -11.953  0.00  0.00     0.176 C 
BRANCH  34  35
ATOM     35  O3  NON d   1     -38.392  21.453 -12.701  0.00  0.00    -0.400 OA
ATOM     36  H24 NON d   1     -37.709  22.102 -12.937  0.00  0.00     0.209 HD
ENDBRANCH  34  35
ENDBRANCH  17  34
BRANCH  20  37
ATOM     37  O4  NON d   1     -36.839  23.168 -11.817  0.00  0.00    -0.395 OA
ATOM     38  H26 NON d   1     -36.679  22.210 -11.763  0.00  0.00     0.210 HD
ENDBRANCH  20  37
ENDBRANCH   8   9
ENDBRANCH   6   8
ENDBRANCH   3   4
TORSDOF 9
ENDMDL
MODEL 5
REMARK VINA RESULT:    -8.358      2.819      7.291
REMARK INTER + INTRA:         -13.063
REMARK INTER:                 -11.042
REMARK INTRA:                  -2.020
REMARK CONF_INDEPENDENT:        2.685
REMARK UNBOUND:                -2.020
REMARK  9 active torsions:
REMARK  status: ('A' for Active; 'I' for Inactive)
REMARK    1  A    between atoms: C3_3  and  N1_4 
REMARK       I    between atoms: N1_4  and  C5_6 
REMARK    2  A    between atoms: C5_6  and  C6_8 
REMARK    3  A    between atoms: C7_9  and  C6_8 
REMARK    4  A    between atoms: C9_12  and  N3_13 
REMARK    5  A    between atoms: N3_13  and  C10_14 
REMARK    6  A    between atoms: C14_18  and  O2_19 
REMARK    7  A    between atoms: C19_25  and  C21_27 
REMARK    8  A    between atoms: C21_27  and  O3_28 
REMARK    9  A    between atoms: C22_29  and  O4_30 
ROOT
ATOM      1  C1  NON d   1     -45.952  17.242  -5.436  0.00  0.00     0.014 C 
ATOM      2  C2  NON d   1     -44.765  17.076  -4.469  0.00  0.00    -0.098 C 
ATOM      3  C3  NON d   1     -43.579  16.911  -3.502  0.00  0.00     0.218 C 
ENDROOT
BRANCH   3   4
ATOM      4  N1  NON d   1     -42.375  17.729  -3.634  0.00  0.00    -0.346 N 
ATOM      5  C4  NON d   1     -41.807  18.331  -2.436  0.00  0.00     0.153 C 
ATOM      6  C5  NON d   1     -41.746  17.666  -4.895  0.00  0.00     0.220 C 
ATOM      7  O1  NON d   1     -42.281  17.024  -5.810  0.00  0.00    -0.273 OA
BRANCH   6   8
ATOM      8  C6  NON d   1     -40.408  18.395  -5.133  0.00  0.00     0.114 C 
BRANCH   8   9
ATOM      9  C7  NON d   1     -40.545  19.955  -5.270  0.00  0.00     0.056 C 
ATOM     10  C8  NON d   1     -39.911  20.784  -4.173  0.00  0.00     0.056 A 
ATOM     11  N2  NON d   1     -39.677  20.343  -2.868  0.00  0.00    -0.227 NA
ATOM     12  C16 NON d   1     -39.789  22.143  -4.323  0.00  0.00     0.012 A 
ATOM     13  C9  NON d   1     -39.415  21.361  -2.051  0.00  0.00     0.171 A 
ATOM     14  S1  NON d   1     -39.300  22.870  -2.883  0.00  0.00    -0.055 SA
ATOM     15  C17 NON d   1     -40.201  22.942  -5.494  0.00  0.00     0.054 C 
ATOM     16  C18 NON d   1     -40.124  22.166  -6.829  0.00  0.00     0.012 C 
ATOM     17  C19 NON d   1     -39.013  22.799  -7.796  0.00  0.00     0.008 C 
ATOM     18  C25 NON d   1     -40.221  20.561  -6.740  0.00  0.00    -0.030 C 
ATOM     19  C20 NON d   1     -37.638  23.003  -7.090  0.00  0.00     0.020 C 
ATOM     20  C22 NON d   1     -38.726  21.921  -9.055  0.00  0.00     0.128 C 
ATOM     21  C23 NON d   1     -38.761  20.409  -8.843  0.00  0.00     0.033 C 
ATOM     22  C24 NON d   1     -38.957  19.955  -7.396  0.00  0.00     0.013 C 
ATOM     23  C26 NON d   1     -41.463  20.148  -7.599  0.00  0.00     0.016 C 
BRANCH  13  24
ATOM     24  N3  NON d   1     -39.310  21.205  -0.696  0.00  0.00    -0.335 N 
ATOM     25  H10 NON d   1     -39.540  20.263  -0.401  0.00  0.00     0.168 HD
BRANCH  24  26
ATOM     26  C10 NON d   1     -39.325  22.150   0.367  0.00  0.00     0.036 A 
ATOM     27  C11 NON d   1     -40.555  22.750   0.713  0.00  0.00     0.029 A 
ATOM     28  C12 NON d   1     -40.644  23.734   1.711  0.00  0.00     0.005 A 
ATOM     29  C13 NON d   1     -39.502  24.155   2.384  0.00  0.00     0.036 A 
ATOM     30  C14 NON d   1     -38.289  23.563   2.068  0.00  0.00     0.067 A 
ATOM     31  C15 NON d   1     -38.205  22.562   1.096  0.00  0.00     0.066 A 
BRANCH  30  32
ATOM     32  O2  NON d   1     -37.133  23.941   2.690  0.00  0.00    -0.361 OA
ATOM     33  H14 NON d   1     -37.355  24.532   3.428  0.00  0.00     0.217 HD
ENDBRANCH  30  32
ENDBRANCH  24  26
ENDBRANCH  13  24
BRANCH  17  34
ATOM     34  C21 NON d   1     -39.461  24.238  -8.246  0.00  0.00     0.176 C 
BRANCH  34  35
ATOM     35  O3  NON d   1     -40.696  24.233  -8.953  0.00  0.00    -0.400 OA
ATOM     36  H24 NON d   1     -40.589  23.667  -9.734  0.00  0.00     0.209 HD
ENDBRANCH  34  35
ENDBRANCH  17  34
BRANCH  20  37
ATOM     37  O4  NON d   1     -39.593  22.234 -10.145  0.00  0.00    -0.395 OA
ATOM     38  H26 NON d   1     -40.508  22.199  -9.815  0.00  0.00     0.210 HD
ENDBRANCH  20  37
ENDBRANCH   8   9
ENDBRANCH   6   8
ENDBRANCH   3   4
TORSDOF 9
ENDMDL
