MODEL 1
REMARK VINA RESULT:   -23.218      0.000      0.000
REMARK INTER + INTRA:         -25.016
REMARK INTER:                 -24.412
REMARK INTRA:                  -0.604
REMARK CONF_INDEPENDENT:        1.193
REMARK UNBOUND:                -0.604
REMARK  4 active torsions:
REMARK  status: ('A' for Active; 'I' for Inactive)
REMARK    1  A    between atoms: N1_1  and  C1_2 
REMARK    2  A    between atoms: C2_3  and  C3_4 
REMARK    3  A    between atoms: N3_16  and  C12_17 
REMARK    4  A    between atoms: C12_17  and  C13_18 
ROOT
ATOM      1  C1  NON d   1     -44.098  17.993  -4.019  0.00  0.00     0.093 A 
ATOM      2  C2  NON d   1     -45.194  17.916  -4.812  0.00  0.00     0.085 A 
ATOM      3  C10 NON d   1     -44.898  18.789  -5.972  0.00  0.00     0.183 A 
ATOM      4  O1  NON d   1     -45.637  18.987  -6.926  0.00  0.00    -0.290 OA
ATOM      5  C11 NON d   1     -43.516  19.390  -5.815  0.00  0.00     0.208 A 
ATOM      6  N3  NON d   1     -43.140  18.887  -4.490  0.00  0.00    -0.359 N 
ENDROOT
BRANCH   2   7
ATOM      7  C3  NON d   1     -46.364  17.176  -4.531  0.00  0.00     0.116 A 
ATOM      8  N2  NON d   1     -47.065  16.505  -5.435  0.00  0.00    -0.239 NA
ATOM      9  C4  NON d   1     -48.129  15.840  -4.854  0.00  0.00     0.075 A 
ATOM     10  C5  NON d   1     -49.042  15.003  -5.525  0.00  0.00     0.033 A 
ATOM     11  C9  NON d   1     -48.276  16.038  -3.484  0.00  0.00     0.035 A 
ATOM     12  C6  NON d   1     -50.069  14.383  -4.809  0.00  0.00     0.002 A 
ATOM     13  C7  NON d   1     -50.201  14.595  -3.441  0.00  0.00     0.002 A 
ATOM     14  C8  NON d   1     -49.311  15.429  -2.755  0.00  0.00     0.021 A 
ATOM     15  S1  NON d   1     -47.030  17.088  -2.937  0.00  0.00    -0.067 SA
ENDBRANCH   2   7
BRANCH   1  16
ATOM     16  N1  NON d   1     -43.918  17.296  -2.854  0.00  0.00    -0.288 NA
ATOM     17  H1  NON d   1     -44.435  16.410  -2.864  0.00  0.00     0.125 HD
ATOM     18  H2  NON d   1     -44.196  17.861  -2.055  0.00  0.00     0.125 HD
ENDBRANCH   1  16
BRANCH   6  19
ATOM     19  C12 NON d   1     -41.721  18.890  -4.142  0.00  0.00     0.170 C 
BRANCH  19  20
ATOM     20  C13 NON d   1     -40.692  19.284  -5.182  0.00  0.00     0.000 A 
ATOM     21  C14 NON d   1     -39.848  20.381  -5.120  0.00  0.00     0.017 A 
ATOM     22  C15 NON d   1     -39.057  20.540  -6.295  0.00  0.00     0.008 A 
ATOM     23  C16 NON d   1     -39.304  19.549  -7.215  0.00  0.00     0.050 A 
ATOM     24  S2  NON d   1     -40.440  18.413  -6.638  0.00  0.00    -0.105 SA
ENDBRANCH  19  20
ENDBRANCH   6  19
TORSDOF 4
ENDMDL
MODEL 2
REMARK VINA RESULT:   -22.945      1.475      1.789
REMARK INTER + INTRA:         -24.637
REMARK INTER:                 -24.139
REMARK INTRA:                  -0.498
REMARK CONF_INDEPENDENT:        1.193
REMARK UNBOUND:                -0.498
REMARK  4 active torsions:
REMARK  status: ('A' for Active; 'I' for Inactive)
REMARK    1  A    between atoms: N1_1  and  C1_2 
REMARK    2  A    between atoms: C2_3  and  C3_4 
REMARK    3  A    between atoms: N3_16  and  C12_17 
REMARK    4  A    between atoms: C12_17  and  C13_18 
ROOT
ATOM      1  C1  NON d   1     -44.042  17.916  -4.056  0.00  0.00     0.093 A 
ATOM      2  C2  NON d   1     -45.158  17.872  -4.822  0.00  0.00     0.085 A 
ATOM      3  C10 NON d   1     -44.882  18.772  -5.966  0.00  0.00     0.183 A 
ATOM      4  O1  NON d   1     -45.644  19.004  -6.895  0.00  0.00    -0.290 OA
ATOM      5  C11 NON d   1     -43.490  19.355  -5.828  0.00  0.00     0.208 A 
ATOM      6  N3  NON d   1     -43.086  18.812  -4.527  0.00  0.00    -0.359 N 
ENDROOT
BRANCH   2   7
ATOM      7  C3  NON d   1     -46.330  17.138  -4.530  0.00  0.00     0.116 A 
ATOM      8  N2  NON d   1     -47.065  16.505  -5.435  0.00  0.00    -0.239 NA
ATOM      9  C4  NON d   1     -48.120  15.834  -4.844  0.00  0.00     0.075 A 
ATOM     10  C5  NON d   1     -49.063  15.030  -5.515  0.00  0.00     0.033 A 
ATOM     11  C9  NON d   1     -48.225  15.989  -3.465  0.00  0.00     0.035 A 
ATOM     12  C6  NON d   1     -50.076  14.399  -4.789  0.00  0.00     0.002 A 
ATOM     13  C7  NON d   1     -50.165  14.568  -3.411  0.00  0.00     0.002 A 
ATOM     14  C8  NON d   1     -49.245  15.368  -2.726  0.00  0.00     0.021 A 
ATOM     15  S1  NON d   1     -46.950  17.005  -2.921  0.00  0.00    -0.067 SA
ENDBRANCH   2   7
BRANCH   1  16
ATOM     16  N1  NON d   1     -43.840  17.186  -2.915  0.00  0.00    -0.288 NA
ATOM     17  H1  NON d   1     -42.919  16.735  -2.917  0.00  0.00     0.125 HD
ATOM     18  H2  NON d   1     -44.576  16.492  -2.803  0.00  0.00     0.125 HD
ENDBRANCH   1  16
BRANCH   6  19
ATOM     19  C12 NON d   1     -41.658  18.790  -4.217  0.00  0.00     0.170 C 
BRANCH  19  20
ATOM     20  C13 NON d   1     -40.995  20.024  -3.641  0.00  0.00     0.000 A 
ATOM     21  C14 NON d   1     -40.223  20.073  -2.491  0.00  0.00     0.017 A 
ATOM     22  C15 NON d   1     -39.814  21.396  -2.153  0.00  0.00     0.008 A 
ATOM     23  C16 NON d   1     -40.269  22.319  -3.064  0.00  0.00     0.050 A 
ATOM     24  S2  NON d   1     -41.133  21.584  -4.339  0.00  0.00    -0.105 SA
ENDBRANCH  19  20
ENDBRANCH   6  19
TORSDOF 4
ENDMDL
