MODEL 1
REMARK VINA RESULT:   -10.267      0.000      0.000
REMARK INTER + INTRA:         -15.861
REMARK INTER:                 -12.951
REMARK INTRA:                  -2.910
REMARK CONF_INDEPENDENT:        2.685
REMARK UNBOUND:                -2.910
REMARK  9 active torsions:
REMARK  status: ('A' for Active; 'I' for Inactive)
REMARK    1  A    between atoms: O1_2  and  C2_3 
REMARK    2  A    between atoms: C5_6  and  S1_7 
REMARK    3  A    between atoms: C6_10  and  S1_7 
REMARK    4  A    between atoms: C6_10  and  C7_11 
REMARK    5  A    between atoms: C6_10  and  C13_18 
REMARK    6  A    between atoms: C6_10  and  C17_22 
REMARK    7  A    between atoms: C7_11  and  C8_12 
REMARK    8  A    between atoms: C13_18  and  C14_19 
REMARK       I    between atoms: C17_22  and  N2_24 
REMARK    9  A    between atoms: N2_24  and  O5_25 
ROOT
ATOM      1  C6  NON d   1     -39.767  18.325  -3.596  0.00  0.00     0.155 C 
ENDROOT
BRANCH   1   2
ATOM      2  S1  NON d   1     -41.217  18.172  -4.092  0.00  0.00     0.193 S 
ATOM      3  O2  NON d   1     -41.447  19.609  -3.833  0.00  0.00    -0.221 OA
ATOM      4  O3  NON d   1     -40.879  17.388  -5.293  0.00  0.00    -0.221 OA
BRANCH   2   5
ATOM      5  C5  NON d   1     -42.667  18.020  -4.587  0.00  0.00     0.060 A 
ATOM      6  C4  NON d   1     -43.265  16.745  -4.596  0.00  0.00     0.026 A 
ATOM      7  C3  NON d   1     -44.583  16.551  -5.040  0.00  0.00     0.038 A 
ATOM      8  C2  NON d   1     -45.372  17.630  -5.435  0.00  0.00     0.068 A 
ATOM      9  C19 NON d   1     -44.815  18.902  -5.439  0.00  0.00     0.038 A 
ATOM     10  C18 NON d   1     -43.483  19.084  -5.043  0.00  0.00     0.026 A 
BRANCH   8  11
ATOM     11  O1  NON d   1     -46.648  17.316  -5.809  0.00  0.00    -0.356 OA
ATOM     12  C1  NON d   1     -47.191  16.118  -5.264  0.00  0.00     0.210 C 
ENDBRANCH   8  11
ENDBRANCH   2   5
ENDBRANCH   1   2
BRANCH   1  13
ATOM     13  C7  NON d   1     -39.343  18.824  -4.990  0.00  0.00     0.076 C 
BRANCH  13  14
ATOM     14  C8  NON d   1     -39.927  19.830  -6.151  0.00  0.00    -0.038 A 
ATOM     15  C9  NON d   1     -39.987  21.239  -6.261  0.00  0.00     0.010 A 
ATOM     16  C10 NON d   1     -40.296  21.879  -7.468  0.00  0.00     0.020 A 
ATOM     17  C11 NON d   1     -40.596  21.108  -8.564  0.00  0.00     0.116 A 
ATOM     18  N1  NON d   1     -40.632  19.766  -8.525  0.00  0.00    -0.273 NA
ATOM     19  C12 NON d   1     -40.290  19.176  -7.344  0.00  0.00     0.123 A 
ENDBRANCH  13  14
ENDBRANCH   1  13
BRANCH   1  20
ATOM     20  C13 NON d   1     -38.317  18.478  -3.101  0.00  0.00     0.040 C 
BRANCH  20  21
ATOM     21  C14 NON d   1     -37.907  19.991  -2.850  0.00  0.00    -0.021 C 
ATOM     22  C15 NON d   1     -36.878  20.141  -1.699  0.00  0.00     0.009 C 
ATOM     23  C16 NON d   1     -39.050  20.937  -2.495  0.00  0.00     0.009 C 
ENDBRANCH  20  21
ENDBRANCH   1  20
BRANCH   1  24
ATOM     24  C17 NON d   1     -40.191  17.826  -2.202  0.00  0.00     0.265 C 
ATOM     25  O4  NON d   1     -39.758  16.790  -1.685  0.00  0.00    -0.269 OA
ATOM     26  N2  NON d   1     -41.211  18.518  -1.575  0.00  0.00    -0.236 N 
ATOM     27  H21 NON d   1     -41.660  19.366  -1.910  0.00  0.00     0.197 HD
BRANCH  26  28
ATOM     28  O5  NON d   1     -41.607  18.032  -0.310  0.00  0.00    -0.287 OA
ATOM     29  H22 NON d   1     -41.020  17.255  -0.179  0.00  0.00     0.244 HD
ENDBRANCH  26  28
ENDBRANCH   1  24
TORSDOF 9
ENDMDL
MODEL 2
REMARK VINA RESULT:   -10.181      1.192      1.744
REMARK INTER + INTRA:         -15.736
REMARK INTER:                 -12.866
REMARK INTRA:                  -2.870
REMARK CONF_INDEPENDENT:        2.685
REMARK UNBOUND:                -2.870
REMARK  9 active torsions:
REMARK  status: ('A' for Active; 'I' for Inactive)
REMARK    1  A    between atoms: O1_2  and  C2_3 
REMARK    2  A    between atoms: C5_6  and  S1_7 
REMARK    3  A    between atoms: C6_10  and  S1_7 
REMARK    4  A    between atoms: C6_10  and  C7_11 
REMARK    5  A    between atoms: C6_10  and  C13_18 
REMARK    6  A    between atoms: C6_10  and  C17_22 
REMARK    7  A    between atoms: C7_11  and  C8_12 
REMARK    8  A    between atoms: C13_18  and  C14_19 
REMARK       I    between atoms: C17_22  and  N2_24 
REMARK    9  A    between atoms: N2_24  and  O5_25 
ROOT
ATOM      1  C6  NON d   1     -40.843  19.307  -3.465  0.00  0.00     0.155 C 
ENDROOT
BRANCH   1   2
ATOM      2  S1  NON d   1     -42.205  18.735  -3.902  0.00  0.00     0.193 S 
ATOM      3  O2  NON d   1     -42.580  20.061  -4.436  0.00  0.00    -0.221 OA
ATOM      4  O3  NON d   1     -41.660  17.505  -4.504  0.00  0.00    -0.221 OA
BRANCH   2   5
ATOM      5  C5  NON d   1     -43.566  18.162  -4.339  0.00  0.00     0.060 A 
ATOM      6  C4  NON d   1     -44.281  18.792  -5.376  0.00  0.00     0.026 A 
ATOM      7  C3  NON d   1     -45.527  18.313  -5.810  0.00  0.00     0.038 A 
ATOM      8  C2  NON d   1     -46.077  17.153  -5.267  0.00  0.00     0.068 A 
ATOM      9  C19 NON d   1     -45.399  16.505  -4.243  0.00  0.00     0.038 A 
ATOM     10  C18 NON d   1     -44.180  17.017  -3.777  0.00  0.00     0.026 A 
BRANCH   8  11
ATOM     11  O1  NON d   1     -47.274  16.767  -5.801  0.00  0.00    -0.356 OA
ATOM     12  C1  NON d   1     -47.986  15.757  -5.094  0.00  0.00     0.210 C 
ENDBRANCH   8  11
ENDBRANCH   2   5
ENDBRANCH   1   2
BRANCH   1  13
ATOM     13  C7  NON d   1     -40.848  20.249  -4.683  0.00  0.00     0.076 C 
BRANCH  13  14
ATOM     14  C8  NON d   1     -40.462  20.177  -6.278  0.00  0.00    -0.038 A 
ATOM     15  C9  NON d   1     -40.030  21.151  -7.209  0.00  0.00     0.010 A 
ATOM     16  C10 NON d   1     -39.507  20.804  -8.461  0.00  0.00     0.020 A 
ATOM     17  C11 NON d   1     -39.459  19.477  -8.810  0.00  0.00     0.116 A 
ATOM     18  N1  NON d   1     -39.915  18.496  -8.015  0.00  0.00    -0.273 NA
ATOM     19  C12 NON d   1     -40.383  18.867  -6.788  0.00  0.00     0.123 A 
ENDBRANCH  13  14
ENDBRANCH   1  13
BRANCH   1  20
ATOM     20  C13 NON d   1     -39.482  19.879  -3.028  0.00  0.00     0.040 C 
BRANCH  20  21
ATOM     21  C14 NON d   1     -38.256  18.992  -3.510  0.00  0.00    -0.021 C 
ATOM     22  C15 NON d   1     -37.104  18.963  -2.472  0.00  0.00     0.009 C 
ATOM     23  C16 NON d   1     -37.606  19.419  -4.823  0.00  0.00     0.009 C 
ENDBRANCH  20  21
ENDBRANCH   1  20
BRANCH   1  24
ATOM     24  C17 NON d   1     -40.838  18.364  -2.247  0.00  0.00     0.265 C 
ATOM     25  O4  NON d   1     -41.151  18.719  -1.105  0.00  0.00    -0.269 OA
ATOM     26  N2  NON d   1     -40.323  17.096  -2.442  0.00  0.00    -0.236 N 
ATOM     27  H21 NON d   1     -40.014  16.699  -3.326  0.00  0.00     0.197 HD
BRANCH  26  28
ATOM     28  O5  NON d   1     -40.300  16.253  -1.309  0.00  0.00    -0.287 OA
ATOM     29  H22 NON d   1     -40.139  16.880  -0.571  0.00  0.00     0.244 HD
ENDBRANCH  26  28
ENDBRANCH   1  24
TORSDOF 9
ENDMDL
MODEL 3
REMARK VINA RESULT:    -8.864      1.979      4.354
REMARK INTER + INTRA:         -14.489
REMARK INTER:                 -11.549
REMARK INTRA:                  -2.940
REMARK CONF_INDEPENDENT:        2.685
REMARK UNBOUND:                -2.940
REMARK  9 active torsions:
REMARK  status: ('A' for Active; 'I' for Inactive)
REMARK    1  A    between atoms: O1_2  and  C2_3 
REMARK    2  A    between atoms: C5_6  and  S1_7 
REMARK    3  A    between atoms: C6_10  and  S1_7 
REMARK    4  A    between atoms: C6_10  and  C7_11 
REMARK    5  A    between atoms: C6_10  and  C13_18 
REMARK    6  A    between atoms: C6_10  and  C17_22 
REMARK    7  A    between atoms: C7_11  and  C8_12 
REMARK    8  A    between atoms: C13_18  and  C14_19 
REMARK       I    between atoms: C17_22  and  N2_24 
REMARK    9  A    between atoms: N2_24  and  O5_25 
ROOT
ATOM      1  C6  NON d   1     -39.964  19.596  -4.474  0.00  0.00     0.155 C 
ENDROOT
BRANCH   1   2
ATOM      2  S1  NON d   1     -41.365  18.978  -4.636  0.00  0.00     0.193 S 
ATOM      3  O2  NON d   1     -41.061  18.027  -3.546  0.00  0.00    -0.221 OA
ATOM      4  O3  NON d   1     -42.084  20.262  -4.704  0.00  0.00    -0.221 OA
BRANCH   2   5
ATOM      5  C5  NON d   1     -42.766  18.359  -4.797  0.00  0.00     0.060 A 
ATOM      6  C4  NON d   1     -43.802  19.129  -5.360  0.00  0.00     0.026 A 
ATOM      7  C3  NON d   1     -45.097  18.614  -5.527  0.00  0.00     0.038 A 
ATOM      8  C2  NON d   1     -45.391  17.294  -5.193  0.00  0.00     0.068 A 
ATOM      9  C19 NON d   1     -44.394  16.504  -4.634  0.00  0.00     0.038 A 
ATOM     10  C18 NON d   1     -43.116  17.039  -4.422  0.00  0.00     0.026 A 
BRANCH   8  11
ATOM     11  O1  NON d   1     -46.677  16.900  -5.438  0.00  0.00    -0.356 OA
ATOM     12  C1  NON d   1     -47.151  15.786  -4.689  0.00  0.00     0.210 C 
ENDBRANCH   8  11
ENDBRANCH   2   5
ENDBRANCH   1   2
BRANCH   1  13
ATOM     13  C7  NON d   1     -40.290  19.955  -3.013  0.00  0.00     0.076 C 
BRANCH  13  14
ATOM     14  C8  NON d   1     -40.259  21.287  -2.052  0.00  0.00    -0.038 A 
ATOM     15  C9  NON d   1     -40.637  22.634  -2.262  0.00  0.00     0.010 A 
ATOM     16  C10 NON d   1     -40.764  23.545  -1.207  0.00  0.00     0.020 A 
ATOM     17  C11 NON d   1     -40.464  23.125   0.066  0.00  0.00     0.116 A 
ATOM     18  N1  NON d   1     -40.030  21.885   0.342  0.00  0.00    -0.273 NA
ATOM     19  C12 NON d   1     -39.953  21.014  -0.705  0.00  0.00     0.123 A 
ENDBRANCH  13  14
ENDBRANCH   1  13
BRANCH   1  20
ATOM     20  C13 NON d   1     -38.562  20.214  -4.313  0.00  0.00     0.040 C 
BRANCH  20  21
ATOM     21  C14 NON d   1     -38.349  21.503  -5.216  0.00  0.00    -0.021 C 
ATOM     22  C15 NON d   1     -37.309  22.482  -4.611  0.00  0.00     0.009 C 
ATOM     23  C16 NON d   1     -39.596  22.346  -5.471  0.00  0.00     0.009 C 
ENDBRANCH  20  21
ENDBRANCH   1  20
BRANCH   1  24
ATOM     24  C17 NON d   1     -39.637  19.236  -5.936  0.00  0.00     0.265 C 
ATOM     25  O4  NON d   1     -38.555  18.762  -6.299  0.00  0.00    -0.269 OA
ATOM     26  N2  NON d   1     -40.569  19.600  -6.891  0.00  0.00    -0.236 N 
ATOM     27  H21 NON d   1     -41.481  20.014  -6.717  0.00  0.00     0.197 HD
BRANCH  26  28
ATOM     28  O5  NON d   1     -40.243  19.288  -8.229  0.00  0.00    -0.287 OA
ATOM     29  H22 NON d   1     -39.581  18.568  -8.133  0.00  0.00     0.244 HD
ENDBRANCH  26  28
ENDBRANCH   1  24
TORSDOF 9
ENDMDL
MODEL 4
REMARK VINA RESULT:    -8.022      1.737      2.367
REMARK INTER + INTRA:         -12.499
REMARK INTER:                 -10.707
REMARK INTRA:                  -1.792
REMARK CONF_INDEPENDENT:        2.685
REMARK UNBOUND:                -1.792
REMARK  9 active torsions:
REMARK  status: ('A' for Active; 'I' for Inactive)
REMARK    1  A    between atoms: O1_2  and  C2_3 
REMARK    2  A    between atoms: C5_6  and  S1_7 
REMARK    3  A    between atoms: C6_10  and  S1_7 
REMARK    4  A    between atoms: C6_10  and  C7_11 
REMARK    5  A    between atoms: C6_10  and  C13_18 
REMARK    6  A    between atoms: C6_10  and  C17_22 
REMARK    7  A    between atoms: C7_11  and  C8_12 
REMARK    8  A    between atoms: C13_18  and  C14_19 
REMARK       I    between atoms: C17_22  and  N2_24 
REMARK    9  A    between atoms: N2_24  and  O5_25 
ROOT
ATOM      1  C6  NON d   1     -39.529  19.542  -3.299  0.00  0.00     0.155 C 
ENDROOT
BRANCH   1   2
ATOM      2  S1  NON d   1     -40.912  19.105  -3.816  0.00  0.00     0.193 S 
ATOM      3  O2  NON d   1     -41.059  18.216  -2.645  0.00  0.00    -0.221 OA
ATOM      4  O3  NON d   1     -41.385  20.463  -4.138  0.00  0.00    -0.221 OA
BRANCH   2   5
ATOM      5  C5  NON d   1     -42.295  18.667  -4.334  0.00  0.00     0.060 A 
ATOM      6  C4  NON d   1     -42.735  17.350  -4.103  0.00  0.00     0.026 A 
ATOM      7  C3  NON d   1     -43.986  16.899  -4.555  0.00  0.00     0.038 A 
ATOM      8  C2  NON d   1     -44.867  17.764  -5.203  0.00  0.00     0.068 A 
ATOM      9  C19 NON d   1     -44.466  19.071  -5.449  0.00  0.00     0.038 A 
ATOM     10  C18 NON d   1     -43.196  19.501  -5.040  0.00  0.00     0.026 A 
BRANCH   8  11
ATOM     11  O1  NON d   1     -46.067  17.217  -5.560  0.00  0.00    -0.356 OA
ATOM     12  C1  NON d   1     -46.528  16.128  -4.767  0.00  0.00     0.210 C 
ENDBRANCH   8  11
ENDBRANCH   2   5
ENDBRANCH   1   2
BRANCH   1  13
ATOM     13  C7  NON d   1     -38.852  18.697  -4.393  0.00  0.00     0.076 C 
BRANCH  13  14
ATOM     14  C8  NON d   1     -38.630  18.767  -6.020  0.00  0.00    -0.038 A 
ATOM     15  C9  NON d   1     -37.481  18.670  -6.839  0.00  0.00     0.010 A 
ATOM     16  C10 NON d   1     -37.567  18.496  -8.225  0.00  0.00     0.020 A 
ATOM     17  C11 NON d   1     -38.809  18.468  -8.810  0.00  0.00     0.116 A 
ATOM     18  N1  NON d   1     -39.947  18.624  -8.114  0.00  0.00    -0.273 NA
ATOM     19  C12 NON d   1     -39.827  18.755  -6.761  0.00  0.00     0.123 A 
ENDBRANCH  13  14
ENDBRANCH   1  13
BRANCH   1  20
ATOM     20  C13 NON d   1     -38.147  19.980  -2.781  0.00  0.00     0.040 C 
BRANCH  20  21
ATOM     21  C14 NON d   1     -37.522  21.172  -3.624  0.00  0.00    -0.021 C 
ATOM     22  C15 NON d   1     -38.465  21.652  -4.758  0.00  0.00     0.009 C 
ATOM     23  C16 NON d   1     -36.190  20.873  -4.306  0.00  0.00     0.009 C 
ENDBRANCH  20  21
ENDBRANCH   1  20
BRANCH   1  24
ATOM     24  C17 NON d   1     -40.207  20.388  -2.204  0.00  0.00     0.265 C 
ATOM     25  O4  NON d   1     -40.696  19.910  -1.174  0.00  0.00    -0.269 OA
ATOM     26  N2  NON d   1     -40.386  21.732  -2.475  0.00  0.00    -0.236 N 
ATOM     27  H21 NON d   1     -40.050  22.233  -3.293  0.00  0.00     0.197 HD
BRANCH  26  28
ATOM     28  O5  NON d   1     -41.033  22.488  -1.473  0.00  0.00    -0.287 OA
ATOM     29  H22 NON d   1     -41.230  21.817  -0.783  0.00  0.00     0.244 HD
ENDBRANCH  26  28
ENDBRANCH   1  24
TORSDOF 9
ENDMDL
