MODEL 1
REMARK VINA RESULT:   -17.363      0.000      0.000
REMARK INTER + INTRA:         -19.090
REMARK INTER:                 -19.451
REMARK INTRA:                   0.361
REMARK CONF_INDEPENDENT:        2.088
REMARK UNBOUND:                 0.361
REMARK  7 active torsions:
REMARK  status: ('A' for Active; 'I' for Inactive)
REMARK    1  A    between atoms: O1_2  and  C2_3 
REMARK    2  A    between atoms: C2_3  and  C3_4 
REMARK       I    between atoms: C3_4  and  N1_6 
REMARK    3  A    between atoms: N1_6  and  C4_7 
REMARK    4  A    between atoms: C6_9  and  C7_10 
REMARK       I    between atoms: C7_10  and  N2_12 
REMARK    5  A    between atoms: C8_13  and  N2_12 
REMARK    6  A    between atoms: C8_13  and  C10_15 
REMARK    7  A    between atoms: C16_24  and  C17_25 
ROOT
ATOM      1  C4  NON d   1     -40.242  19.040  -3.163  0.00  0.00     0.045 C 
ATOM      2  C5  NON d   1     -40.746  18.011  -3.999  0.00  0.00     0.043 C 
ATOM      3  C6  NON d   1     -41.650  18.276  -5.044  0.00  0.00     0.036 C 
ATOM      4  C14 NON d   1     -41.851  19.639  -5.421  0.00  0.00     0.051 C 
ATOM      5  C15 NON d   1     -41.253  20.695  -4.666  0.00  0.00     0.088 C 
ATOM      6  N4  NON d   1     -41.222  22.078  -4.849  0.00  0.00    -0.228 NA
ATOM      7  C16 NON d   1     -40.545  22.611  -3.830  0.00  0.00     0.141 C 
ATOM      8  N5  NON d   1     -40.357  21.605  -2.891  0.00  0.00    -0.332 N 
ATOM      9  C23 NON d   1     -40.259  21.800  -1.454  0.00  0.00     0.158 C 
ATOM     10  C24 NON d   1     -40.542  20.374  -3.512  0.00  0.00     0.086 C 
ENDROOT
BRANCH   3  11
ATOM     11  C7  NON d   1     -42.410  17.107  -5.750  0.00  0.00     0.252 C 
ATOM     12  O3  NON d   1     -41.777  16.430  -6.562  0.00  0.00    -0.268 OA
ATOM     13  N2  NON d   1     -43.818  16.806  -5.542  0.00  0.00    -0.347 N 
ATOM     14  H8  NON d   1     -44.116  16.011  -6.100  0.00  0.00     0.163 HD
BRANCH  13  15
ATOM     15  C8  NON d   1     -45.013  17.913  -5.438  0.00  0.00     0.133 C 
ATOM     16  C9  NON d   1     -44.236  18.947  -4.601  0.00  0.00     0.039 C 
BRANCH  15  17
ATOM     17  C10 NON d   1     -46.164  17.115  -4.800  0.00  0.00     0.064 A 
ATOM     18  C11 NON d   1     -46.528  17.179  -3.466  0.00  0.00     0.081 A 
ATOM     19  S1  NON d   1     -47.996  16.345  -3.205  0.00  0.00    -0.085 SA
ATOM     20  C12 NON d   1     -48.096  16.026  -4.891  0.00  0.00     0.071 A 
ATOM     21  C13 NON d   1     -49.302  15.347  -5.435  0.00  0.00     0.078 C 
ATOM     22  N3  NON d   1     -47.080  16.454  -5.613  0.00  0.00    -0.248 NA
ENDBRANCH  15  17
ENDBRANCH  13  15
ENDBRANCH   3  11
BRANCH   1  23
ATOM     23  N1  NON d   1     -39.377  18.774  -2.068  0.00  0.00    -0.225 NA
ATOM     24  C3  NON d   1     -38.307  17.909  -2.131  0.00  0.00     0.225 C 
ATOM     25  O2  NON d   1     -38.317  16.946  -1.353  0.00  0.00    -0.277 OA
ATOM     26  H6  NON d   1     -39.916  18.440  -1.275  0.00  0.00     0.136 HD
BRANCH  24  27
ATOM     27  C2  NON d   1     -37.123  18.101  -3.085  0.00  0.00     0.263 C 
BRANCH  27  28
ATOM     28  O1  NON d   1     -37.119  19.286  -3.856  0.00  0.00    -0.387 OA
ATOM     29  C1  NON d   1     -38.029  19.207  -4.948  0.00  0.00     0.202 C 
ENDBRANCH  27  28
ENDBRANCH  24  27
ENDBRANCH   1  23
BRANCH   7  30
ATOM     30  C17 NON d   1     -40.085  24.036  -3.700  0.00  0.00     0.010 A 
ATOM     31  C18 NON d   1     -40.061  24.879  -4.820  0.00  0.00     0.015 A 
ATOM     32  C19 NON d   1     -39.587  26.204  -4.746  0.00  0.00     0.001 A 
ATOM     33  C20 NON d   1     -39.138  26.731  -3.538  0.00  0.00     0.000 A 
ATOM     34  C21 NON d   1     -39.145  25.925  -2.410  0.00  0.00     0.001 A 
ATOM     35  C22 NON d   1     -39.597  24.594  -2.501  0.00  0.00     0.015 A 
ENDBRANCH   7  30
TORSDOF 7
ENDMDL
MODEL 2
REMARK VINA RESULT:   -15.272      3.274      4.218
REMARK INTER + INTRA:         -18.140
REMARK INTER:                 -17.360
REMARK INTRA:                  -0.780
REMARK CONF_INDEPENDENT:        2.088
REMARK UNBOUND:                -0.780
REMARK  7 active torsions:
REMARK  status: ('A' for Active; 'I' for Inactive)
REMARK    1  A    between atoms: O1_2  and  C2_3 
REMARK    2  A    between atoms: C2_3  and  C3_4 
REMARK       I    between atoms: C3_4  and  N1_6 
REMARK    3  A    between atoms: N1_6  and  C4_7 
REMARK    4  A    between atoms: C6_9  and  C7_10 
REMARK       I    between atoms: C7_10  and  N2_12 
REMARK    5  A    between atoms: C8_13  and  N2_12 
REMARK    6  A    between atoms: C8_13  and  C10_15 
REMARK    7  A    between atoms: C16_24  and  C17_25 
ROOT
ATOM      1  C4  NON d   1     -38.939  19.199  -4.851  0.00  0.00     0.045 C 
ATOM      2  C5  NON d   1     -39.874  18.513  -4.035  0.00  0.00     0.043 C 
ATOM      3  C6  NON d   1     -41.242  18.841  -4.031  0.00  0.00     0.036 C 
ATOM      4  C14 NON d   1     -41.722  19.706  -5.062  0.00  0.00     0.051 C 
ATOM      5  C15 NON d   1     -40.811  20.317  -5.978  0.00  0.00     0.088 C 
ATOM      6  N4  NON d   1     -41.007  21.124  -7.100  0.00  0.00    -0.228 NA
ATOM      7  C16 NON d   1     -39.808  21.449  -7.585  0.00  0.00     0.141 C 
ATOM      8  N5  NON d   1     -38.863  21.054  -6.646  0.00  0.00    -0.332 N 
ATOM      9  C23 NON d   1     -37.583  21.701  -6.414  0.00  0.00     0.158 C 
ATOM     10  C24 NON d   1     -39.444  20.119  -5.795  0.00  0.00     0.086 C 
ENDROOT
BRANCH   3  11
ATOM     11  C7  NON d   1     -42.188  18.281  -2.921  0.00  0.00     0.252 C 
ATOM     12  O3  NON d   1     -41.809  18.376  -1.753  0.00  0.00    -0.268 OA
ATOM     13  N2  NON d   1     -43.456  17.618  -3.188  0.00  0.00    -0.347 N 
ATOM     14  H8  NON d   1     -43.912  17.326  -2.329  0.00  0.00     0.163 HD
BRANCH  13  15
ATOM     15  C8  NON d   1     -43.718  16.530  -4.375  0.00  0.00     0.133 C 
ATOM     16  C9  NON d   1     -42.802  17.180  -5.429  0.00  0.00     0.039 C 
BRANCH  15  17
ATOM     17  C10 NON d   1     -45.247  16.577  -4.550  0.00  0.00     0.064 A 
ATOM     18  C11 NON d   1     -45.921  16.255  -5.716  0.00  0.00     0.081 A 
ATOM     19  S1  NON d   1     -47.605  16.190  -5.435  0.00  0.00    -0.085 SA
ATOM     20  C12 NON d   1     -47.324  16.509  -3.770  0.00  0.00     0.071 A 
ATOM     21  C13 NON d   1     -48.469  16.495  -2.821  0.00  0.00     0.078 C 
ATOM     22  N3  NON d   1     -46.066  16.713  -3.433  0.00  0.00    -0.248 NA
ENDBRANCH  15  17
ENDBRANCH  13  15
ENDBRANCH   3  11
BRANCH   1  23
ATOM     23  N1  NON d   1     -37.547  18.915  -4.817  0.00  0.00    -0.225 NA
ATOM     24  C3  NON d   1     -36.855  18.359  -5.870  0.00  0.00     0.225 C 
ATOM     25  O2  NON d   1     -36.291  17.276  -5.661  0.00  0.00    -0.277 OA
ATOM     26  H6  NON d   1     -37.340  18.302  -4.035  0.00  0.00     0.136 HD
BRANCH  24  27
ATOM     27  C2  NON d   1     -36.736  19.022  -7.246  0.00  0.00     0.263 C 
BRANCH  27  28
ATOM     28  O1  NON d   1     -37.326  18.336  -8.331  0.00  0.00    -0.387 OA
ATOM     29  C1  NON d   1     -38.740  18.253  -8.197  0.00  0.00     0.202 C 
ENDBRANCH  27  28
ENDBRANCH  24  27
ENDBRANCH   1  23
BRANCH   7  30
ATOM     30  C17 NON d   1     -39.518  22.135  -8.891  0.00  0.00     0.010 A 
ATOM     31  C18 NON d   1     -39.848  23.487  -9.070  0.00  0.00     0.015 A 
ATOM     32  C19 NON d   1     -39.639  24.148 -10.297  0.00  0.00     0.001 A 
ATOM     33  C20 NON d   1     -39.075  23.478 -11.378  0.00  0.00     0.000 A 
ATOM     34  C21 NON d   1     -38.739  22.140 -11.238  0.00  0.00     0.001 A 
ATOM     35  C22 NON d   1     -38.975  21.481 -10.015  0.00  0.00     0.015 A 
ENDBRANCH   7  30
TORSDOF 7
ENDMDL
