MODEL 1
REMARK VINA RESULT:   -10.896      0.000      0.000
REMARK INTER + INTRA:         -17.329
REMARK INTER:                 -14.774
REMARK INTRA:                  -2.555
REMARK CONF_INDEPENDENT:        3.878
REMARK UNBOUND:                -2.555
REMARK  13 active torsions:
REMARK  status: ('A' for Active; 'I' for Inactive)
REMARK    1  A    between atoms: C2_2  and  C3_3 
REMARK    2  A    between atoms: C3_3  and  N1_4 
REMARK       I    between atoms: N1_4  and  C4_5 
REMARK    3  A    between atoms: C13_17  and  N1_4 
REMARK    4  A    between atoms: C4_5  and  C5_7 
REMARK    5  A    between atoms: C5_7  and  C6_8 
REMARK    6  A    between atoms: C13_17  and  C14_18 
REMARK    7  A    between atoms: C13_17  and  C23_29 
REMARK       I    between atoms: C14_18  and  N2_20 
REMARK    8  A    between atoms: N2_20  and  C15_21 
REMARK    9  A    between atoms: C15_21  and  C18_24 
REMARK   10  A    between atoms: C18_24  and  C19_25 
REMARK   11  A    between atoms: C24_30  and  O5_31 
REMARK   12  A    between atoms: C26_33  and  O6_34 
REMARK   13  A    between atoms: C28_36  and  O7_37 
ROOT
ATOM      1  C13 NON d   1     -38.292  19.711  -4.620  0.00  0.00     0.212 C 
ENDROOT
BRANCH   1   2
ATOM      2  N1  NON d   1     -39.571  18.775  -3.944  0.00  0.00    -0.335 N 
ATOM      3  C4  NON d   1     -40.550  18.224  -4.815  0.00  0.00     0.225 C 
ATOM      4  O1  NON d   1     -40.474  18.288  -6.041  0.00  0.00    -0.273 OA
BRANCH   2   5
ATOM      5  C3  NON d   1     -39.453  18.172  -2.443  0.00  0.00     0.127 C 
BRANCH   5   6
ATOM      6  C2  NON d   1     -38.072  17.437  -2.083  0.00  0.00     0.015 C 
ATOM      7  C1  NON d   1     -36.727  17.471  -2.832  0.00  0.00     0.006 C 
ENDBRANCH   5   6
ENDBRANCH   2   5
BRANCH   3   8
ATOM      8  C5  NON d   1     -41.694  17.466  -4.145  0.00  0.00     0.141 C 
BRANCH   8   9
ATOM      9  C6  NON d   1     -43.137  17.576  -4.593  0.00  0.00    -0.047 A 
ATOM     10  C7  NON d   1     -43.546  18.859  -5.077  0.00  0.00     0.010 A 
ATOM     11  C8  NON d   1     -44.815  19.075  -5.618  0.00  0.00     0.040 A 
ATOM     12  C9  NON d   1     -45.653  17.992  -5.682  0.00  0.00     0.105 A 
ATOM     13  C10 NON d   1     -45.268  16.746  -5.230  0.00  0.00     0.105 A 
ATOM     14  O3  NON d   1     -46.915  18.006  -6.186  0.00  0.00    -0.323 OA
ATOM     15  C11 NON d   1     -44.024  16.499  -4.691  0.00  0.00     0.047 A 
ATOM     16  O2  NON d   1     -46.249  15.818  -5.413  0.00  0.00    -0.323 OA
ATOM     17  C12 NON d   1     -47.292  16.627  -5.999  0.00  0.00     0.352 A 
ENDBRANCH   8   9
ENDBRANCH   3   8
ENDBRANCH   1   2
BRANCH   1  18
ATOM     18  C14 NON d   1     -37.533  21.054  -3.663  0.00  0.00     0.225 C 
ATOM     19  O4  NON d   1     -36.829  21.890  -4.248  0.00  0.00    -0.277 OA
ATOM     20  N2  NON d   1     -37.776  21.251  -2.246  0.00  0.00    -0.252 NA
ATOM     21  H16 NON d   1     -37.779  20.298  -1.907  0.00  0.00     0.131 HD
BRANCH  20  22
ATOM     22  C15 NON d   1     -39.014  22.060  -1.370  0.00  0.00     0.011 C 
ATOM     23  C16 NON d   1     -38.006  23.149  -0.955  0.00  0.00     0.032 C 
ATOM     24  C17 NON d   1     -40.021  20.971  -1.784  0.00  0.00     0.032 C 
BRANCH  22  25
ATOM     25  C18 NON d   1     -39.769  22.254  -0.042  0.00  0.00     0.033 C 
BRANCH  25  26
ATOM     26  C19 NON d   1     -40.395  23.620   0.294  0.00  0.00    -0.050 C 
ATOM     27  C20 NON d   1     -41.022  24.986   0.630  0.00  0.00     0.014 C 
ATOM     28  C21 NON d   1     -39.719  23.590   1.678  0.00  0.00     0.014 C 
ATOM     29  C22 NON d   1     -41.072  23.651  -1.089  0.00  0.00     0.014 C 
ENDBRANCH  25  26
ENDBRANCH  22  25
ENDBRANCH  20  22
ENDBRANCH   1  18
BRANCH   1  30
ATOM     30  C23 NON d   1     -38.792  20.427  -5.888  0.00  0.00     0.040 A 
ATOM     31  C24 NON d   1     -38.620  19.969  -7.202  0.00  0.00     0.080 A 
ATOM     32  C25 NON d   1     -39.135  20.656  -8.305  0.00  0.00     0.073 A 
ATOM     33  C26 NON d   1     -39.909  21.786  -8.105  0.00  0.00     0.071 A 
ATOM     34  C27 NON d   1     -40.144  22.257  -6.820  0.00  0.00     0.073 A 
ATOM     35  C28 NON d   1     -39.570  21.586  -5.733  0.00  0.00     0.080 A 
BRANCH  31  36
ATOM     36  O5  NON d   1     -37.926  18.823  -7.475  0.00  0.00    -0.360 OA
ATOM     37  H34 NON d   1     -38.423  18.116  -7.022  0.00  0.00     0.217 HD
ENDBRANCH  31  36
BRANCH  33  38
ATOM     38  O6  NON d   1     -40.442  22.392  -9.203  0.00  0.00    -0.361 OA
ATOM     39  H36 NON d   1     -41.407  22.293  -9.191  0.00  0.00     0.217 HD
ENDBRANCH  33  38
BRANCH  35  40
ATOM     40  O7  NON d   1     -39.837  22.023  -4.462  0.00  0.00    -0.360 OA
ATOM     41  H38 NON d   1     -38.994  22.252  -4.032  0.00  0.00     0.217 HD
ENDBRANCH  35  40
ENDBRANCH   1  30
TORSDOF 13
ENDMDL
MODEL 2
REMARK VINA RESULT:   -10.628      0.667      1.629
REMARK INTER + INTRA:         -17.509
REMARK INTER:                 -14.506
REMARK INTRA:                  -3.003
REMARK CONF_INDEPENDENT:        3.878
REMARK UNBOUND:                -3.003
REMARK  13 active torsions:
REMARK  status: ('A' for Active; 'I' for Inactive)
REMARK    1  A    between atoms: C2_2  and  C3_3 
REMARK    2  A    between atoms: C3_3  and  N1_4 
REMARK       I    between atoms: N1_4  and  C4_5 
REMARK    3  A    between atoms: C13_17  and  N1_4 
REMARK    4  A    between atoms: C4_5  and  C5_7 
REMARK    5  A    between atoms: C5_7  and  C6_8 
REMARK    6  A    between atoms: C13_17  and  C14_18 
REMARK    7  A    between atoms: C13_17  and  C23_29 
REMARK       I    between atoms: C14_18  and  N2_20 
REMARK    8  A    between atoms: N2_20  and  C15_21 
REMARK    9  A    between atoms: C15_21  and  C18_24 
REMARK   10  A    between atoms: C18_24  and  C19_25 
REMARK   11  A    between atoms: C24_30  and  O5_31 
REMARK   12  A    between atoms: C26_33  and  O6_34 
REMARK   13  A    between atoms: C28_36  and  O7_37 
ROOT
ATOM      1  C13 NON d   1     -38.115  19.748  -4.984  0.00  0.00     0.212 C 
ENDROOT
BRANCH   1   2
ATOM      2  N1  NON d   1     -39.374  18.928  -4.143  0.00  0.00    -0.335 N 
ATOM      3  C4  NON d   1     -40.457  18.386  -4.889  0.00  0.00     0.225 C 
ATOM      4  O1  NON d   1     -40.489  18.377  -6.119  0.00  0.00    -0.273 OA
BRANCH   2   5
ATOM      5  C3  NON d   1     -39.153  18.406  -2.623  0.00  0.00     0.127 C 
BRANCH   5   6
ATOM      6  C2  NON d   1     -37.799  17.589  -2.347  0.00  0.00     0.015 C 
ATOM      7  C1  NON d   1     -36.380  17.843  -2.890  0.00  0.00     0.006 C 
ENDBRANCH   5   6
ENDBRANCH   2   5
BRANCH   3   8
ATOM      8  C5  NON d   1     -41.573  17.735  -4.076  0.00  0.00     0.141 C 
BRANCH   8   9
ATOM      9  C6  NON d   1     -43.024  17.735  -4.512  0.00  0.00    -0.047 A 
ATOM     10  C7  NON d   1     -43.514  18.963  -5.061  0.00  0.00     0.010 A 
ATOM     11  C8  NON d   1     -44.798  19.073  -5.597  0.00  0.00     0.040 A 
ATOM     12  C9  NON d   1     -45.571  17.940  -5.590  0.00  0.00     0.105 A 
ATOM     13  C10 NON d   1     -45.109  16.747  -5.074  0.00  0.00     0.105 A 
ATOM     14  O3  NON d   1     -46.836  17.852  -6.077  0.00  0.00    -0.323 OA
ATOM     15  C11 NON d   1     -43.846  16.604  -4.538  0.00  0.00     0.047 A 
ATOM     16  O2  NON d   1     -46.035  15.754  -5.192  0.00  0.00    -0.323 OA
ATOM     17  C12 NON d   1     -47.128  16.466  -5.809  0.00  0.00     0.352 A 
ENDBRANCH   8   9
ENDBRANCH   3   8
ENDBRANCH   1   2
BRANCH   1  18
ATOM     18  C14 NON d   1     -37.087  20.976  -4.128  0.00  0.00     0.225 C 
ATOM     19  O4  NON d   1     -36.240  21.611  -4.774  0.00  0.00    -0.277 OA
ATOM     20  N2  NON d   1     -37.263  21.317  -2.728  0.00  0.00    -0.252 NA
ATOM     21  H16 NON d   1     -37.451  20.410  -2.322  0.00  0.00     0.131 HD
BRANCH  20  22
ATOM     22  C15 NON d   1     -38.300  22.417  -1.911  0.00  0.00     0.011 C 
ATOM     23  C16 NON d   1     -37.212  23.504  -1.996  0.00  0.00     0.032 C 
ATOM     24  C17 NON d   1     -39.388  21.330  -1.825  0.00  0.00     0.032 C 
BRANCH  22  25
ATOM     25  C18 NON d   1     -38.791  23.014  -0.580  0.00  0.00     0.033 C 
BRANCH  25  26
ATOM     26  C19 NON d   1     -40.287  23.318  -0.378  0.00  0.00    -0.050 C 
ATOM     27  C20 NON d   1     -41.784  23.621  -0.175  0.00  0.00     0.014 C 
ATOM     28  C21 NON d   1     -40.244  24.314  -1.551  0.00  0.00     0.014 C 
ATOM     29  C22 NON d   1     -40.331  22.322   0.797  0.00  0.00     0.014 C 
ENDBRANCH  25  26
ENDBRANCH  22  25
ENDBRANCH  20  22
ENDBRANCH   1  18
BRANCH   1  30
ATOM     30  C23 NON d   1     -38.714  20.551  -6.154  0.00  0.00     0.040 A 
ATOM     31  C24 NON d   1     -39.176  21.872  -6.083  0.00  0.00     0.080 A 
ATOM     32  C25 NON d   1     -39.674  22.550  -7.199  0.00  0.00     0.073 A 
ATOM     33  C26 NON d   1     -39.644  21.936  -8.440  0.00  0.00     0.071 A 
ATOM     34  C27 NON d   1     -39.157  20.643  -8.571  0.00  0.00     0.073 A 
ATOM     35  C28 NON d   1     -38.717  19.961  -7.430  0.00  0.00     0.080 A 
BRANCH  31  36
ATOM     36  O5  NON d   1     -39.172  22.568  -4.906  0.00  0.00    -0.360 OA
ATOM     37  H34 NON d   1     -38.242  22.557  -4.613  0.00  0.00     0.217 HD
ENDBRANCH  31  36
BRANCH  33  38
ATOM     38  O6  NON d   1     -40.083  22.653  -9.513  0.00  0.00    -0.361 OA
ATOM     39  H36 NON d   1     -40.305  22.048 -10.238  0.00  0.00     0.217 HD
ENDBRANCH  33  38
BRANCH  35  40
ATOM     40  O7  NON d   1     -38.195  18.701  -7.564  0.00  0.00    -0.360 OA
ATOM     41  H38 NON d   1     -38.417  18.190  -6.766  0.00  0.00     0.217 HD
ENDBRANCH  35  40
ENDBRANCH   1  30
TORSDOF 13
ENDMDL
MODEL 3
REMARK VINA RESULT:   -10.625      1.672      2.832
REMARK INTER + INTRA:         -18.574
REMARK INTER:                 -14.503
REMARK INTRA:                  -4.071
REMARK CONF_INDEPENDENT:        3.878
REMARK UNBOUND:                -4.071
REMARK  13 active torsions:
REMARK  status: ('A' for Active; 'I' for Inactive)
REMARK    1  A    between atoms: C2_2  and  C3_3 
REMARK    2  A    between atoms: C3_3  and  N1_4 
REMARK       I    between atoms: N1_4  and  C4_5 
REMARK    3  A    between atoms: C13_17  and  N1_4 
REMARK    4  A    between atoms: C4_5  and  C5_7 
REMARK    5  A    between atoms: C5_7  and  C6_8 
REMARK    6  A    between atoms: C13_17  and  C14_18 
REMARK    7  A    between atoms: C13_17  and  C23_29 
REMARK       I    between atoms: C14_18  and  N2_20 
REMARK    8  A    between atoms: N2_20  and  C15_21 
REMARK    9  A    between atoms: C15_21  and  C18_24 
REMARK   10  A    between atoms: C18_24  and  C19_25 
REMARK   11  A    between atoms: C24_30  and  O5_31 
REMARK   12  A    between atoms: C26_33  and  O6_34 
REMARK   13  A    between atoms: C28_36  and  O7_37 
ROOT
ATOM      1  C13 NON d   1     -38.741  19.894  -4.128  0.00  0.00     0.212 C 
ENDROOT
BRANCH   1   2
ATOM      2  N1  NON d   1     -39.982  18.703  -4.219  0.00  0.00    -0.335 N 
ATOM      3  C4  NON d   1     -40.734  18.407  -3.049  0.00  0.00     0.225 C 
ATOM      4  O1  NON d   1     -40.618  19.036  -1.997  0.00  0.00    -0.273 OA
BRANCH   2   5
ATOM      5  C3  NON d   1     -40.578  18.234  -5.653  0.00  0.00     0.127 C 
BRANCH   5   6
ATOM      6  C2  NON d   1     -39.934  18.931  -6.948  0.00  0.00     0.015 C 
ATOM      7  C1  NON d   1     -40.403  20.182  -7.715  0.00  0.00     0.006 C 
ENDBRANCH   5   6
ENDBRANCH   2   5
BRANCH   3   8
ATOM      8  C5  NON d   1     -41.769  17.293  -3.180  0.00  0.00     0.141 C 
BRANCH   8   9
ATOM      9  C6  NON d   1     -43.097  17.474  -3.887  0.00  0.00    -0.047 A 
ATOM     10  C7  NON d   1     -43.241  18.675  -4.651  0.00  0.00     0.010 A 
ATOM     11  C8  NON d   1     -44.369  18.921  -5.436  0.00  0.00     0.040 A 
ATOM     12  C9  NON d   1     -45.334  17.947  -5.455  0.00  0.00     0.105 A 
ATOM     13  C10 NON d   1     -45.204  16.779  -4.732  0.00  0.00     0.105 A 
ATOM     14  O3  NON d   1     -46.490  18.004  -6.167  0.00  0.00    -0.323 OA
ATOM     15  C11 NON d   1     -44.103  16.505  -3.949  0.00  0.00     0.047 A 
ATOM     16  O2  NON d   1     -46.268  15.949  -4.919  0.00  0.00    -0.323 OA
ATOM     17  C12 NON d   1     -47.084  16.739  -5.811  0.00  0.00     0.352 A 
ENDBRANCH   8   9
ENDBRANCH   3   8
ENDBRANCH   1   2
BRANCH   1  18
ATOM     18  C14 NON d   1     -37.826  20.152  -2.581  0.00  0.00     0.225 C 
ATOM     19  O4  NON d   1     -36.591  20.044  -2.584  0.00  0.00    -0.277 OA
ATOM     20  N2  NON d   1     -38.465  20.563  -1.345  0.00  0.00    -0.252 NA
ATOM     21  H16 NON d   1     -39.319  20.022  -1.369  0.00  0.00     0.131 HD
BRANCH  20  22
ATOM     22  C15 NON d   1     -38.903  22.097  -0.704  0.00  0.00     0.011 C 
ATOM     23  C16 NON d   1     -39.980  21.424   0.167  0.00  0.00     0.032 C 
ATOM     24  C17 NON d   1     -37.825  22.769  -1.576  0.00  0.00     0.032 C 
BRANCH  22  25
ATOM     25  C18 NON d   1     -39.775  23.361  -0.807  0.00  0.00     0.033 C 
BRANCH  25  26
ATOM     26  C19 NON d   1     -40.419  23.957   0.458  0.00  0.00    -0.050 C 
ATOM     27  C20 NON d   1     -41.062  24.553   1.725  0.00  0.00     0.014 C 
ATOM     28  C21 NON d   1     -41.814  23.788  -0.171  0.00  0.00     0.014 C 
ATOM     29  C22 NON d   1     -39.024  24.127   1.089  0.00  0.00     0.014 C 
ENDBRANCH  25  26
ENDBRANCH  22  25
ENDBRANCH  20  22
ENDBRANCH   1  18
BRANCH   1  30
ATOM     30  C23 NON d   1     -39.338  21.285  -4.415  0.00  0.00     0.040 A 
ATOM     31  C24 NON d   1     -40.301  21.934  -3.630  0.00  0.00     0.080 A 
ATOM     32  C25 NON d   1     -40.771  23.215  -3.934  0.00  0.00     0.073 A 
ATOM     33  C26 NON d   1     -40.219  23.910  -4.997  0.00  0.00     0.071 A 
ATOM     34  C27 NON d   1     -39.233  23.327  -5.780  0.00  0.00     0.073 A 
ATOM     35  C28 NON d   1     -38.818  22.021  -5.493  0.00  0.00     0.080 A 
BRANCH  31  36
ATOM     36  O5  NON d   1     -40.842  21.339  -2.525  0.00  0.00    -0.360 OA
ATOM     37  H34 NON d   1     -40.265  20.574  -2.346  0.00  0.00     0.217 HD
ENDBRANCH  31  36
BRANCH  33  38
ATOM     38  O6  NON d   1     -40.662  25.180  -5.222  0.00  0.00    -0.361 OA
ATOM     39  H36 NON d   1     -39.904  25.784  -5.263  0.00  0.00     0.217 HD
ENDBRANCH  33  38
BRANCH  35  40
ATOM     40  O7  NON d   1     -37.813  21.461  -6.237  0.00  0.00    -0.360 OA
ATOM     41  H38 NON d   1     -36.960  21.735  -5.857  0.00  0.00     0.217 HD
ENDBRANCH  35  40
ENDBRANCH   1  30
TORSDOF 13
ENDMDL
MODEL 4
REMARK VINA RESULT:   -10.441      1.630      2.401
REMARK INTER + INTRA:         -17.183
REMARK INTER:                 -14.319
REMARK INTRA:                  -2.864
REMARK CONF_INDEPENDENT:        3.878
REMARK UNBOUND:                -2.864
REMARK  13 active torsions:
REMARK  status: ('A' for Active; 'I' for Inactive)
REMARK    1  A    between atoms: C2_2  and  C3_3 
REMARK    2  A    between atoms: C3_3  and  N1_4 
REMARK       I    between atoms: N1_4  and  C4_5 
REMARK    3  A    between atoms: C13_17  and  N1_4 
REMARK    4  A    between atoms: C4_5  and  C5_7 
REMARK    5  A    between atoms: C5_7  and  C6_8 
REMARK    6  A    between atoms: C13_17  and  C14_18 
REMARK    7  A    between atoms: C13_17  and  C23_29 
REMARK       I    between atoms: C14_18  and  N2_20 
REMARK    8  A    between atoms: N2_20  and  C15_21 
REMARK    9  A    between atoms: C15_21  and  C18_24 
REMARK   10  A    between atoms: C18_24  and  C19_25 
REMARK   11  A    between atoms: C24_30  and  O5_31 
REMARK   12  A    between atoms: C26_33  and  O6_34 
REMARK   13  A    between atoms: C28_36  and  O7_37 
ROOT
ATOM      1  C13 NON d   1     -38.525  20.326  -4.949  0.00  0.00     0.212 C 
ENDROOT
BRANCH   1   2
ATOM      2  N1  NON d   1     -39.753  19.462  -4.106  0.00  0.00    -0.335 N 
ATOM      3  C4  NON d   1     -40.473  18.448  -4.795  0.00  0.00     0.225 C 
ATOM      4  O1  NON d   1     -40.192  18.078  -5.935  0.00  0.00    -0.273 OA
BRANCH   2   5
ATOM      5  C3  NON d   1     -39.816  19.480  -2.485  0.00  0.00     0.127 C 
BRANCH   5   6
ATOM      6  C2  NON d   1     -38.658  20.309  -1.742  0.00  0.00     0.015 C 
ATOM      7  C1  NON d   1     -38.779  21.371  -0.634  0.00  0.00     0.006 C 
ENDBRANCH   5   6
ENDBRANCH   2   5
BRANCH   3   8
ATOM      8  C5  NON d   1     -41.594  17.770  -4.011  0.00  0.00     0.141 C 
BRANCH   8   9
ATOM      9  C6  NON d   1     -43.038  17.757  -4.472  0.00  0.00    -0.047 A 
ATOM     10  C7  NON d   1     -43.519  18.971  -5.058  0.00  0.00     0.010 A 
ATOM     11  C8  NON d   1     -44.794  19.066  -5.619  0.00  0.00     0.040 A 
ATOM     12  C9  NON d   1     -45.565  17.933  -5.599  0.00  0.00     0.105 A 
ATOM     13  C10 NON d   1     -45.111  16.752  -5.048  0.00  0.00     0.105 A 
ATOM     14  O3  NON d   1     -46.822  17.831  -6.107  0.00  0.00    -0.323 OA
ATOM     15  C11 NON d   1     -43.858  16.624  -4.487  0.00  0.00     0.047 A 
ATOM     16  O2  NON d   1     -46.033  15.756  -5.159  0.00  0.00    -0.323 OA
ATOM     17  C12 NON d   1     -47.117  16.451  -5.812  0.00  0.00     0.352 A 
ENDBRANCH   8   9
ENDBRANCH   3   8
ENDBRANCH   1   2
BRANCH   1  18
ATOM     18  C14 NON d   1     -38.041  21.992  -4.413  0.00  0.00     0.225 C 
ATOM     19  O4  NON d   1     -36.969  22.469  -4.813  0.00  0.00    -0.277 OA
ATOM     20  N2  NON d   1     -38.893  22.838  -3.596  0.00  0.00    -0.252 NA
ATOM     21  H16 NON d   1     -39.281  22.166  -2.947  0.00  0.00     0.131 HD
BRANCH  20  22
ATOM     22  C15 NON d   1     -40.173  23.921  -3.968  0.00  0.00     0.011 C 
ATOM     23  C16 NON d   1     -39.161  25.075  -4.088  0.00  0.00     0.032 C 
ATOM     24  C17 NON d   1     -41.186  22.767  -3.848  0.00  0.00     0.032 C 
BRANCH  22  25
ATOM     25  C18 NON d   1     -41.242  24.911  -3.469  0.00  0.00     0.033 C 
BRANCH  25  26
ATOM     26  C19 NON d   1     -41.032  25.665  -2.143  0.00  0.00    -0.050 C 
ATOM     27  C20 NON d   1     -40.821  26.420  -0.816  0.00  0.00     0.014 C 
ATOM     28  C21 NON d   1     -41.418  26.987  -2.833  0.00  0.00     0.014 C 
ATOM     29  C22 NON d   1     -40.645  24.344  -1.452  0.00  0.00     0.014 C 
ENDBRANCH  25  26
ENDBRANCH  22  25
ENDBRANCH  20  22
ENDBRANCH   1  18
BRANCH   1  30
ATOM     30  C23 NON d   1     -38.958  20.544  -6.411  0.00  0.00     0.040 A 
ATOM     31  C24 NON d   1     -40.273  20.759  -6.847  0.00  0.00     0.080 A 
ATOM     32  C25 NON d   1     -40.586  20.985  -8.190  0.00  0.00     0.073 A 
ATOM     33  C26 NON d   1     -39.567  21.082  -9.121  0.00  0.00     0.071 A 
ATOM     34  C27 NON d   1     -38.244  20.918  -8.734  0.00  0.00     0.073 A 
ATOM     35  C28 NON d   1     -37.957  20.634  -7.392  0.00  0.00     0.080 A 
BRANCH  31  36
ATOM     36  O5  NON d   1     -41.326  20.747  -5.975  0.00  0.00    -0.360 OA
ATOM     37  H34 NON d   1     -41.604  19.814  -5.932  0.00  0.00     0.217 HD
ENDBRANCH  31  36
BRANCH  33  38
ATOM     38  O6  NON d   1     -39.910  21.364 -10.410  0.00  0.00    -0.361 OA
ATOM     39  H36 NON d   1     -40.690  21.941 -10.418  0.00  0.00     0.217 HD
ENDBRANCH  33  38
BRANCH  35  40
ATOM     40  O7  NON d   1     -36.649  20.517  -7.000  0.00  0.00    -0.360 OA
ATOM     41  H38 NON d   1     -36.599  20.692  -6.044  0.00  0.00     0.217 HD
ENDBRANCH  35  40
ENDBRANCH   1  30
TORSDOF 13
ENDMDL
MODEL 5
REMARK VINA RESULT:   -10.129      1.463      2.559
REMARK INTER + INTRA:         -16.989
REMARK INTER:                 -14.006
REMARK INTRA:                  -2.982
REMARK CONF_INDEPENDENT:        3.878
REMARK UNBOUND:                -2.982
REMARK  13 active torsions:
REMARK  status: ('A' for Active; 'I' for Inactive)
REMARK    1  A    between atoms: C2_2  and  C3_3 
REMARK    2  A    between atoms: C3_3  and  N1_4 
REMARK       I    between atoms: N1_4  and  C4_5 
REMARK    3  A    between atoms: C13_17  and  N1_4 
REMARK    4  A    between atoms: C4_5  and  C5_7 
REMARK    5  A    between atoms: C5_7  and  C6_8 
REMARK    6  A    between atoms: C13_17  and  C14_18 
REMARK    7  A    between atoms: C13_17  and  C23_29 
REMARK       I    between atoms: C14_18  and  N2_20 
REMARK    8  A    between atoms: N2_20  and  C15_21 
REMARK    9  A    between atoms: C15_21  and  C18_24 
REMARK   10  A    between atoms: C18_24  and  C19_25 
REMARK   11  A    between atoms: C24_30  and  O5_31 
REMARK   12  A    between atoms: C26_33  and  O6_34 
REMARK   13  A    between atoms: C28_36  and  O7_37 
ROOT
ATOM      1  C13 NON d   1     -38.767  20.920  -5.732  0.00  0.00     0.212 C 
ENDROOT
BRANCH   1   2
ATOM      2  N1  NON d   1     -40.172  20.487  -4.835  0.00  0.00    -0.335 N 
ATOM      3  C4  NON d   1     -41.315  20.014  -5.537  0.00  0.00     0.225 C 
ATOM      4  O1  NON d   1     -41.317  19.792  -6.748  0.00  0.00    -0.273 OA
BRANCH   2   5
ATOM      5  C3  NON d   1     -40.085  20.212  -3.239  0.00  0.00     0.127 C 
BRANCH   5   6
ATOM      6  C2  NON d   1     -40.151  18.674  -2.783  0.00  0.00     0.015 C 
ATOM      7  C1  NON d   1     -41.326  17.891  -2.168  0.00  0.00     0.006 C 
ENDBRANCH   5   6
ENDBRANCH   2   5
BRANCH   3   8
ATOM      8  C5  NON d   1     -42.548  19.716  -4.689  0.00  0.00     0.141 C 
BRANCH   8   9
ATOM      9  C6  NON d   1     -43.516  18.591  -4.998  0.00  0.00    -0.047 A 
ATOM     10  C7  NON d   1     -43.034  17.266  -4.754  0.00  0.00     0.010 A 
ATOM     11  C8  NON d   1     -43.853  16.144  -4.895  0.00  0.00     0.040 A 
ATOM     12  C9  NON d   1     -45.154  16.370  -5.266  0.00  0.00     0.105 A 
ATOM     13  C10 NON d   1     -45.635  17.643  -5.494  0.00  0.00     0.105 A 
ATOM     14  O3  NON d   1     -46.097  15.407  -5.440  0.00  0.00    -0.323 OA
ATOM     15  C11 NON d   1     -44.854  18.771  -5.363  0.00  0.00     0.047 A 
ATOM     16  O2  NON d   1     -46.956  17.630  -5.828  0.00  0.00    -0.323 OA
ATOM     17  C12 NON d   1     -47.234  16.213  -5.810  0.00  0.00     0.352 A 
ENDBRANCH   8   9
ENDBRANCH   3   8
ENDBRANCH   1   2
BRANCH   1  18
ATOM     18  C14 NON d   1     -37.540  22.057  -5.025  0.00  0.00     0.225 C 
ATOM     19  O4  NON d   1     -36.642  22.505  -5.753  0.00  0.00    -0.277 OA
ATOM     20  N2  NON d   1     -37.605  22.538  -3.657  0.00  0.00    -0.252 NA
ATOM     21  H16 NON d   1     -37.899  21.705  -3.164  0.00  0.00     0.131 HD
BRANCH  20  22
ATOM     22  C15 NON d   1     -38.439  23.842  -2.911  0.00  0.00     0.011 C 
ATOM     23  C16 NON d   1     -37.092  24.492  -2.544  0.00  0.00     0.032 C 
ATOM     24  C17 NON d   1     -39.786  23.191  -3.278  0.00  0.00     0.032 C 
BRANCH  22  25
ATOM     25  C18 NON d   1     -39.072  24.439  -1.642  0.00  0.00     0.033 C 
BRANCH  25  26
ATOM     26  C19 NON d   1     -39.818  23.526  -0.651  0.00  0.00    -0.050 C 
ATOM     27  C20 NON d   1     -40.564  22.612   0.340  0.00  0.00     0.014 C 
ATOM     28  C21 NON d   1     -41.067  24.420  -0.765  0.00  0.00     0.014 C 
ATOM     29  C22 NON d   1     -38.570  22.631  -0.535  0.00  0.00     0.014 C 
ENDBRANCH  25  26
ENDBRANCH  22  25
ENDBRANCH  20  22
ENDBRANCH   1  18
BRANCH   1  30
ATOM     30  C23 NON d   1     -39.185  21.626  -7.036  0.00  0.00     0.040 A 
ATOM     31  C24 NON d   1     -39.418  23.001  -7.178  0.00  0.00     0.080 A 
ATOM     32  C25 NON d   1     -39.760  23.577  -8.405  0.00  0.00     0.073 A 
ATOM     33  C26 NON d   1     -39.796  22.789  -9.542  0.00  0.00     0.071 A 
ATOM     34  C27 NON d   1     -39.531  21.429  -9.462  0.00  0.00     0.073 A 
ATOM     35  C28 NON d   1     -39.248  20.862  -8.213  0.00  0.00     0.080 A 
BRANCH  31  36
ATOM     36  O5  NON d   1     -39.334  23.855  -6.113  0.00  0.00    -0.360 OA
ATOM     37  H34 NON d   1     -38.385  23.884  -5.892  0.00  0.00     0.217 HD
ENDBRANCH  31  36
BRANCH  33  38
ATOM     38  O6  NON d   1     -40.073  23.401 -10.729  0.00  0.00    -0.361 OA
ATOM     39  H36 NON d   1     -40.740  22.887 -11.210  0.00  0.00     0.217 HD
ENDBRANCH  33  38
BRANCH  35  40
ATOM     40  O7  NON d   1     -38.942  19.528  -8.139  0.00  0.00    -0.360 OA
ATOM     41  H38 NON d   1     -39.763  19.034  -7.965  0.00  0.00     0.217 HD
ENDBRANCH  35  40
ENDBRANCH   1  30
TORSDOF 13
ENDMDL
MODEL 6
REMARK VINA RESULT:   -10.048      1.347      2.048
REMARK INTER + INTRA:         -16.442
REMARK INTER:                 -13.926
REMARK INTRA:                  -2.516
REMARK CONF_INDEPENDENT:        3.878
REMARK UNBOUND:                -2.516
REMARK  13 active torsions:
REMARK  status: ('A' for Active; 'I' for Inactive)
REMARK    1  A    between atoms: C2_2  and  C3_3 
REMARK    2  A    between atoms: C3_3  and  N1_4 
REMARK       I    between atoms: N1_4  and  C4_5 
REMARK    3  A    between atoms: C13_17  and  N1_4 
REMARK    4  A    between atoms: C4_5  and  C5_7 
REMARK    5  A    between atoms: C5_7  and  C6_8 
REMARK    6  A    between atoms: C13_17  and  C14_18 
REMARK    7  A    between atoms: C13_17  and  C23_29 
REMARK       I    between atoms: C14_18  and  N2_20 
REMARK    8  A    between atoms: N2_20  and  C15_21 
REMARK    9  A    between atoms: C15_21  and  C18_24 
REMARK   10  A    between atoms: C18_24  and  C19_25 
REMARK   11  A    between atoms: C24_30  and  O5_31 
REMARK   12  A    between atoms: C26_33  and  O6_34 
REMARK   13  A    between atoms: C28_36  and  O7_37 
ROOT
ATOM      1  C13 NON d   1     -38.628  20.402  -5.481  0.00  0.00     0.212 C 
ENDROOT
BRANCH   1   2
ATOM      2  N1  NON d   1     -40.165  20.181  -4.736  0.00  0.00    -0.335 N 
ATOM      3  C4  NON d   1     -41.268  19.791  -5.544  0.00  0.00     0.225 C 
ATOM      4  O1  NON d   1     -41.161  19.496  -6.734  0.00  0.00    -0.273 OA
BRANCH   2   5
ATOM      5  C3  NON d   1     -40.289  19.998  -3.129  0.00  0.00     0.127 C 
BRANCH   5   6
ATOM      6  C2  NON d   1     -39.912  18.548  -2.552  0.00  0.00     0.015 C 
ATOM      7  C1  NON d   1     -40.809  17.310  -2.365  0.00  0.00     0.006 C 
ENDBRANCH   5   6
ENDBRANCH   2   5
BRANCH   3   8
ATOM      8  C5  NON d   1     -42.615  19.682  -4.834  0.00  0.00     0.141 C 
BRANCH   8   9
ATOM      9  C6  NON d   1     -43.606  18.566  -5.101  0.00  0.00    -0.047 A 
ATOM     10  C7  NON d   1     -43.147  17.240  -4.818  0.00  0.00     0.010 A 
ATOM     11  C8  NON d   1     -43.987  16.131  -4.917  0.00  0.00     0.040 A 
ATOM     12  C9  NON d   1     -45.286  16.368  -5.286  0.00  0.00     0.105 A 
ATOM     13  C10 NON d   1     -45.746  17.642  -5.551  0.00  0.00     0.105 A 
ATOM     14  O3  NON d   1     -46.249  15.419  -5.423  0.00  0.00    -0.323 OA
ATOM     15  C11 NON d   1     -44.943  18.759  -5.461  0.00  0.00     0.047 A 
ATOM     16  O2  NON d   1     -47.069  17.643  -5.875  0.00  0.00    -0.323 OA
ATOM     17  C12 NON d   1     -47.373  16.234  -5.810  0.00  0.00     0.352 A 
ENDBRANCH   8   9
ENDBRANCH   3   8
ENDBRANCH   1   2
BRANCH   1  18
ATOM     18  C14 NON d   1     -37.335  21.367  -4.649  0.00  0.00     0.225 C 
ATOM     19  O4  NON d   1     -36.957  22.434  -5.154  0.00  0.00    -0.277 OA
ATOM     20  N2  NON d   1     -36.771  20.991  -3.365  0.00  0.00    -0.252 NA
ATOM     21  H16 NON d   1     -36.701  19.987  -3.461  0.00  0.00     0.131 HD
BRANCH  20  22
ATOM     22  C15 NON d   1     -37.262  21.271  -1.742  0.00  0.00     0.011 C 
ATOM     23  C16 NON d   1     -36.598  19.949  -1.315  0.00  0.00     0.032 C 
ATOM     24  C17 NON d   1     -37.926  22.594  -2.169  0.00  0.00     0.032 C 
BRANCH  22  25
ATOM     25  C18 NON d   1     -38.325  21.092  -0.644  0.00  0.00     0.033 C 
BRANCH  25  26
ATOM     26  C19 NON d   1     -38.581  22.221   0.371  0.00  0.00    -0.050 C 
ATOM     27  C20 NON d   1     -38.839  23.350   1.387  0.00  0.00     0.014 C 
ATOM     28  C21 NON d   1     -37.091  22.211   0.760  0.00  0.00     0.014 C 
ATOM     29  C22 NON d   1     -40.072  22.231  -0.015  0.00  0.00     0.014 C 
ENDBRANCH  25  26
ENDBRANCH  22  25
ENDBRANCH  20  22
ENDBRANCH   1  18
BRANCH   1  30
ATOM     30  C23 NON d   1     -38.805  21.140  -6.821  0.00  0.00     0.040 A 
ATOM     31  C24 NON d   1     -38.655  20.568  -8.092  0.00  0.00     0.080 A 
ATOM     32  C25 NON d   1     -38.868  21.294  -9.267  0.00  0.00     0.073 A 
ATOM     33  C26 NON d   1     -39.320  22.600  -9.189  0.00  0.00     0.071 A 
ATOM     34  C27 NON d   1     -39.525  23.200  -7.955  0.00  0.00     0.073 A 
ATOM     35  C28 NON d   1     -39.249  22.473  -6.790  0.00  0.00     0.080 A 
BRANCH  31  36
ATOM     36  O5  NON d   1     -38.278  19.263  -8.248  0.00  0.00    -0.360 OA
ATOM     37  H34 NON d   1     -39.074  18.746  -8.026  0.00  0.00     0.217 HD
ENDBRANCH  31  36
BRANCH  33  38
ATOM     38  O6  NON d   1     -39.574  23.254 -10.359  0.00  0.00    -0.361 OA
ATOM     39  H36 NON d   1     -40.384  22.899 -10.758  0.00  0.00     0.217 HD
ENDBRANCH  33  38
BRANCH  35  40
ATOM     40  O7  NON d   1     -39.494  23.048  -5.570  0.00  0.00    -0.360 OA
ATOM     41  H38 NON d   1     -38.640  23.235  -5.142  0.00  0.00     0.217 HD
ENDBRANCH  35  40
ENDBRANCH   1  30
TORSDOF 13
ENDMDL
MODEL 7
REMARK VINA RESULT:    -9.770      2.090      3.038
REMARK INTER + INTRA:         -16.531
REMARK INTER:                 -13.648
REMARK INTRA:                  -2.883
REMARK CONF_INDEPENDENT:        3.878
REMARK UNBOUND:                -2.883
REMARK  13 active torsions:
REMARK  status: ('A' for Active; 'I' for Inactive)
REMARK    1  A    between atoms: C2_2  and  C3_3 
REMARK    2  A    between atoms: C3_3  and  N1_4 
REMARK       I    between atoms: N1_4  and  C4_5 
REMARK    3  A    between atoms: C13_17  and  N1_4 
REMARK    4  A    between atoms: C4_5  and  C5_7 
REMARK    5  A    between atoms: C5_7  and  C6_8 
REMARK    6  A    between atoms: C13_17  and  C14_18 
REMARK    7  A    between atoms: C13_17  and  C23_29 
REMARK       I    between atoms: C14_18  and  N2_20 
REMARK    8  A    between atoms: N2_20  and  C15_21 
REMARK    9  A    between atoms: C15_21  and  C18_24 
REMARK   10  A    between atoms: C18_24  and  C19_25 
REMARK   11  A    between atoms: C24_30  and  O5_31 
REMARK   12  A    between atoms: C26_33  and  O6_34 
REMARK   13  A    between atoms: C28_36  and  O7_37 
ROOT
ATOM      1  C13 NON d   1     -38.691  20.777  -5.377  0.00  0.00     0.212 C 
ENDROOT
BRANCH   1   2
ATOM      2  N1  NON d   1     -40.231  20.519  -4.652  0.00  0.00    -0.335 N 
ATOM      3  C4  NON d   1     -41.230  19.829  -5.392  0.00  0.00     0.225 C 
ATOM      4  O1  NON d   1     -41.019  19.308  -6.487  0.00  0.00    -0.273 OA
BRANCH   2   5
ATOM      5  C3  NON d   1     -40.427  20.662  -3.048  0.00  0.00     0.127 C 
BRANCH   5   6
ATOM      6  C2  NON d   1     -40.426  19.291  -2.211  0.00  0.00     0.015 C 
ATOM      7  C1  NON d   1     -40.375  17.839  -2.722  0.00  0.00     0.006 C 
ENDBRANCH   5   6
ENDBRANCH   2   5
BRANCH   3   8
ATOM      8  C5  NON d   1     -42.594  19.698  -4.718  0.00  0.00     0.141 C 
BRANCH   8   9
ATOM      9  C6  NON d   1     -43.567  18.578  -5.028  0.00  0.00    -0.047 A 
ATOM     10  C7  NON d   1     -43.082  17.249  -4.811  0.00  0.00     0.010 A 
ATOM     11  C8  NON d   1     -43.904  16.130  -4.955  0.00  0.00     0.040 A 
ATOM     12  C9  NON d   1     -45.211  16.361  -5.299  0.00  0.00     0.105 A 
ATOM     13  C10 NON d   1     -45.695  17.638  -5.501  0.00  0.00     0.105 A 
ATOM     14  O3  NON d   1     -46.158  15.402  -5.471  0.00  0.00    -0.323 OA
ATOM     15  C11 NON d   1     -44.911  18.764  -5.366  0.00  0.00     0.047 A 
ATOM     16  O2  NON d   1     -47.022  17.630  -5.812  0.00  0.00    -0.323 OA
ATOM     17  C12 NON d   1     -47.300  16.214  -5.810  0.00  0.00     0.352 A 
ENDBRANCH   8   9
ENDBRANCH   3   8
ENDBRANCH   1   2
BRANCH   1  18
ATOM     18  C14 NON d   1     -37.620  22.128  -4.805  0.00  0.00     0.225 C 
ATOM     19  O4  NON d   1     -36.499  22.268  -5.316  0.00  0.00    -0.277 OA
ATOM     20  N2  NON d   1     -38.046  23.113  -3.829  0.00  0.00    -0.252 NA
ATOM     21  H16 NON d   1     -38.567  22.541  -3.178  0.00  0.00     0.131 HD
BRANCH  20  22
ATOM     22  C15 NON d   1     -38.919  24.588  -3.955  0.00  0.00     0.011 C 
ATOM     23  C16 NON d   1     -37.665  25.281  -4.521  0.00  0.00     0.032 C 
ATOM     24  C17 NON d   1     -40.173  23.895  -3.389  0.00  0.00     0.032 C 
BRANCH  22  25
ATOM     25  C18 NON d   1     -39.358  25.913  -3.305  0.00  0.00     0.033 C 
BRANCH  25  26
ATOM     26  C19 NON d   1     -40.761  26.481  -3.588  0.00  0.00    -0.050 C 
ATOM     27  C20 NON d   1     -42.164  27.050  -3.871  0.00  0.00     0.014 C 
ATOM     28  C21 NON d   1     -41.066  26.479  -2.078  0.00  0.00     0.014 C 
ATOM     29  C22 NON d   1     -40.457  26.483  -5.097  0.00  0.00     0.014 C 
ENDBRANCH  25  26
ENDBRANCH  22  25
ENDBRANCH  20  22
ENDBRANCH   1  18
BRANCH   1  30
ATOM     30  C23 NON d   1     -38.871  21.086  -6.875  0.00  0.00     0.040 A 
ATOM     31  C24 NON d   1     -39.174  22.343  -7.416  0.00  0.00     0.080 A 
ATOM     32  C25 NON d   1     -39.286  22.555  -8.793  0.00  0.00     0.073 A 
ATOM     33  C26 NON d   1     -39.016  21.517  -9.668  0.00  0.00     0.071 A 
ATOM     34  C27 NON d   1     -38.670  20.264  -9.184  0.00  0.00     0.073 A 
ATOM     35  C28 NON d   1     -38.619  20.058  -7.799  0.00  0.00     0.080 A 
BRANCH  31  36
ATOM     36  O5  NON d   1     -39.387  23.432  -6.617  0.00  0.00    -0.360 OA
ATOM     37  H34 NON d   1     -39.050  23.169  -5.741  0.00  0.00     0.217 HD
ENDBRANCH  31  36
BRANCH  33  38
ATOM     38  O6  NON d   1     -39.077  21.782 -11.004  0.00  0.00    -0.361 OA
ATOM     39  H36 NON d   1     -39.992  21.686 -11.311  0.00  0.00     0.217 HD
ENDBRANCH  33  38
BRANCH  35  40
ATOM     40  O7  NON d   1     -38.235  18.833  -7.320  0.00  0.00    -0.360 OA
ATOM     41  H38 NON d   1     -38.930  18.505  -6.723  0.00  0.00     0.217 HD
ENDBRANCH  35  40
ENDBRANCH   1  30
TORSDOF 13
ENDMDL
MODEL 8
REMARK VINA RESULT:    -9.408      1.721      3.471
REMARK INTER + INTRA:         -16.379
REMARK INTER:                 -13.286
REMARK INTRA:                  -3.093
REMARK CONF_INDEPENDENT:        3.878
REMARK UNBOUND:                -3.093
REMARK  13 active torsions:
REMARK  status: ('A' for Active; 'I' for Inactive)
REMARK    1  A    between atoms: C2_2  and  C3_3 
REMARK    2  A    between atoms: C3_3  and  N1_4 
REMARK       I    between atoms: N1_4  and  C4_5 
REMARK    3  A    between atoms: C13_17  and  N1_4 
REMARK    4  A    between atoms: C4_5  and  C5_7 
REMARK    5  A    between atoms: C5_7  and  C6_8 
REMARK    6  A    between atoms: C13_17  and  C14_18 
REMARK    7  A    between atoms: C13_17  and  C23_29 
REMARK       I    between atoms: C14_18  and  N2_20 
REMARK    8  A    between atoms: N2_20  and  C15_21 
REMARK    9  A    between atoms: C15_21  and  C18_24 
REMARK   10  A    between atoms: C18_24  and  C19_25 
REMARK   11  A    between atoms: C24_30  and  O5_31 
REMARK   12  A    between atoms: C26_33  and  O6_34 
REMARK   13  A    between atoms: C28_36  and  O7_37 
ROOT
ATOM      1  C13 NON d   1     -38.838  19.762  -4.389  0.00  0.00     0.212 C 
ENDROOT
BRANCH   1   2
ATOM      2  N1  NON d   1     -40.232  19.071  -3.649  0.00  0.00    -0.335 N 
ATOM      3  C4  NON d   1     -40.973  18.091  -4.365  0.00  0.00     0.225 C 
ATOM      4  O1  NON d   1     -40.610  17.628  -5.446  0.00  0.00    -0.273 OA
BRANCH   2   5
ATOM      5  C3  NON d   1     -40.467  19.192  -2.049  0.00  0.00     0.127 C 
BRANCH   5   6
ATOM      6  C2  NON d   1     -40.078  20.600  -1.382  0.00  0.00     0.015 C 
ATOM      7  C1  NON d   1     -40.081  21.009   0.103  0.00  0.00     0.006 C 
ENDBRANCH   5   6
ENDBRANCH   2   5
BRANCH   3   8
ATOM      8  C5  NON d   1     -42.235  17.572  -3.681  0.00  0.00     0.141 C 
BRANCH   8   9
ATOM      9  C6  NON d   1     -43.602  17.595  -4.335  0.00  0.00    -0.047 A 
ATOM     10  C7  NON d   1     -43.929  18.784  -5.061  0.00  0.00     0.010 A 
ATOM     11  C8  NON d   1     -45.109  18.900  -5.798  0.00  0.00     0.040 A 
ATOM     12  C9  NON d   1     -45.941  17.810  -5.810  0.00  0.00     0.105 A 
ATOM     13  C10 NON d   1     -45.633  16.652  -5.124  0.00  0.00     0.105 A 
ATOM     14  O3  NON d   1     -47.121  17.731  -6.479  0.00  0.00    -0.323 OA
ATOM     15  C11 NON d   1     -44.477  16.505  -4.389  0.00  0.00     0.047 A 
ATOM     16  O2  NON d   1     -46.588  15.695  -5.296  0.00  0.00    -0.323 OA
ATOM     17  C12 NON d   1     -47.532  16.393  -6.137  0.00  0.00     0.352 A 
ENDBRANCH   8   9
ENDBRANCH   3   8
ENDBRANCH   1   2
BRANCH   1  18
ATOM     18  C14 NON d   1     -38.177  21.347  -3.801  0.00  0.00     0.225 C 
ATOM     19  O4  NON d   1     -36.979  21.426  -3.493  0.00  0.00    -0.277 OA
ATOM     20  N2  NON d   1     -38.968  22.564  -3.751  0.00  0.00    -0.252 NA
ATOM     21  H16 NON d   1     -39.860  22.211  -3.429  0.00  0.00     0.131 HD
BRANCH  20  22
ATOM     22  C15 NON d   1     -39.337  23.771  -4.917  0.00  0.00     0.011 C 
ATOM     23  C16 NON d   1     -40.730  23.953  -4.286  0.00  0.00     0.032 C 
ATOM     24  C17 NON d   1     -37.944  23.589  -5.548  0.00  0.00     0.032 C 
BRANCH  22  25
ATOM     25  C18 NON d   1     -39.917  24.128  -6.298  0.00  0.00     0.033 C 
BRANCH  25  26
ATOM     26  C19 NON d   1     -39.413  25.376  -7.045  0.00  0.00    -0.050 C 
ATOM     27  C20 NON d   1     -38.908  26.626  -7.791  0.00  0.00     0.014 C 
ATOM     28  C21 NON d   1     -39.379  24.576  -8.360  0.00  0.00     0.014 C 
ATOM     29  C22 NON d   1     -39.445  26.177  -5.730  0.00  0.00     0.014 C 
ENDBRANCH  25  26
ENDBRANCH  22  25
ENDBRANCH  20  22
ENDBRANCH   1  18
BRANCH   1  30
ATOM     30  C23 NON d   1     -39.126  20.035  -5.877  0.00  0.00     0.040 A 
ATOM     31  C24 NON d   1     -38.380  19.539  -6.955  0.00  0.00     0.080 A 
ATOM     32  C25 NON d   1     -38.725  19.801  -8.284  0.00  0.00     0.073 A 
ATOM     33  C26 NON d   1     -39.883  20.506  -8.563  0.00  0.00     0.071 A 
ATOM     34  C27 NON d   1     -40.680  20.983  -7.531  0.00  0.00     0.073 A 
ATOM     35  C28 NON d   1     -40.285  20.759  -6.206  0.00  0.00     0.080 A 
BRANCH  31  36
ATOM     36  O5  NON d   1     -37.262  18.777  -6.760  0.00  0.00    -0.360 OA
ATOM     37  H34 NON d   1     -36.559  19.233  -7.258  0.00  0.00     0.217 HD
ENDBRANCH  31  36
BRANCH  33  38
ATOM     38  O6  NON d   1     -40.215  20.687  -9.873  0.00  0.00    -0.361 OA
ATOM     39  H36 NON d   1     -41.132  20.996  -9.934  0.00  0.00     0.217 HD
ENDBRANCH  33  38
BRANCH  35  40
ATOM     40  O7  NON d   1     -41.093  21.190  -5.187  0.00  0.00    -0.360 OA
ATOM     41  H38 NON d   1     -40.528  21.507  -4.460  0.00  0.00     0.217 HD
ENDBRANCH  35  40
ENDBRANCH   1  30
TORSDOF 13
ENDMDL
MODEL 9
REMARK VINA RESULT:    -8.923      2.716      4.990
REMARK INTER + INTRA:         -16.915
REMARK INTER:                 -12.801
REMARK INTRA:                  -4.114
REMARK CONF_INDEPENDENT:        3.878
REMARK UNBOUND:                -4.114
REMARK  13 active torsions:
REMARK  status: ('A' for Active; 'I' for Inactive)
REMARK    1  A    between atoms: C2_2  and  C3_3 
REMARK    2  A    between atoms: C3_3  and  N1_4 
REMARK       I    between atoms: N1_4  and  C4_5 
REMARK    3  A    between atoms: C13_17  and  N1_4 
REMARK    4  A    between atoms: C4_5  and  C5_7 
REMARK    5  A    between atoms: C5_7  and  C6_8 
REMARK    6  A    between atoms: C13_17  and  C14_18 
REMARK    7  A    between atoms: C13_17  and  C23_29 
REMARK       I    between atoms: C14_18  and  N2_20 
REMARK    8  A    between atoms: N2_20  and  C15_21 
REMARK    9  A    between atoms: C15_21  and  C18_24 
REMARK   10  A    between atoms: C18_24  and  C19_25 
REMARK   11  A    between atoms: C24_30  and  O5_31 
REMARK   12  A    between atoms: C26_33  and  O6_34 
REMARK   13  A    between atoms: C28_36  and  O7_37 
ROOT
ATOM      1  C13 NON d   1     -39.178  20.286  -4.375  0.00  0.00     0.212 C 
ENDROOT
BRANCH   1   2
ATOM      2  N1  NON d   1     -40.259  19.098  -3.753  0.00  0.00    -0.335 N 
ATOM      3  C4  NON d   1     -41.625  19.142  -4.144  0.00  0.00     0.225 C 
ATOM      4  O1  NON d   1     -42.058  19.922  -4.992  0.00  0.00    -0.273 OA
BRANCH   2   5
ATOM      5  C3  NON d   1     -39.694  17.727  -3.094  0.00  0.00     0.127 C 
BRANCH   5   6
ATOM      6  C2  NON d   1     -38.210  17.796  -2.484  0.00  0.00     0.015 C 
ATOM      7  C1  NON d   1     -37.498  16.808  -1.542  0.00  0.00     0.006 C 
ENDBRANCH   5   6
ENDBRANCH   2   5
BRANCH   3   8
ATOM      8  C5  NON d   1     -42.541  18.104  -3.501  0.00  0.00     0.141 C 
BRANCH   8   9
ATOM      9  C6  NON d   1     -43.927  17.784  -4.023  0.00  0.00    -0.047 A 
ATOM     10  C7  NON d   1     -44.356  18.536  -5.164  0.00  0.00     0.010 A 
ATOM     11  C8  NON d   1     -45.564  18.273  -5.811  0.00  0.00     0.040 A 
ATOM     12  C9  NON d   1     -46.322  17.244  -5.313  0.00  0.00     0.105 A 
ATOM     13  C10 NON d   1     -45.916  16.503  -4.222  0.00  0.00     0.105 A 
ATOM     14  O3  NON d   1     -47.516  16.835  -5.817  0.00  0.00    -0.323 OA
ATOM     15  C11 NON d   1     -44.729  16.736  -3.561  0.00  0.00     0.047 A 
ATOM     16  O2  NON d   1     -46.811  15.522  -3.918  0.00  0.00    -0.323 OA
ATOM     17  C12 NON d   1     -47.826  15.752  -4.919  0.00  0.00     0.352 A 
ENDBRANCH   8   9
ENDBRANCH   3   8
ENDBRANCH   1   2
BRANCH   1  18
ATOM     18  C14 NON d   1     -39.806  21.898  -4.928  0.00  0.00     0.225 C 
ATOM     19  O4  NON d   1     -39.697  22.879  -4.178  0.00  0.00    -0.277 OA
ATOM     20  N2  NON d   1     -40.360  22.118  -6.252  0.00  0.00    -0.252 NA
ATOM     21  H16 NON d   1     -40.890  21.269  -6.392  0.00  0.00     0.131 HD
BRANCH  20  22
ATOM     22  C15 NON d   1     -39.651  22.483  -7.774  0.00  0.00     0.011 C 
ATOM     23  C16 NON d   1     -40.501  21.380  -8.433  0.00  0.00     0.032 C 
ATOM     24  C17 NON d   1     -38.802  23.586  -7.116  0.00  0.00     0.032 C 
BRANCH  22  25
ATOM     25  C18 NON d   1     -38.527  22.225  -8.793  0.00  0.00     0.033 C 
BRANCH  25  26
ATOM     26  C19 NON d   1     -38.818  22.323 -10.302  0.00  0.00    -0.050 C 
ATOM     27  C20 NON d   1     -39.110  22.422 -11.812  0.00  0.00     0.014 C 
ATOM     28  C21 NON d   1     -38.055  21.006 -10.536  0.00  0.00     0.014 C 
ATOM     29  C22 NON d   1     -39.581  23.640 -10.070  0.00  0.00     0.014 C 
ENDBRANCH  25  26
ENDBRANCH  22  25
ENDBRANCH  20  22
ENDBRANCH   1  18
BRANCH   1  30
ATOM     30  C23 NON d   1     -38.475  19.737  -5.630  0.00  0.00     0.040 A 
ATOM     31  C24 NON d   1     -39.119  19.210  -6.759  0.00  0.00     0.080 A 
ATOM     32  C25 NON d   1     -38.413  18.763  -7.879  0.00  0.00     0.073 A 
ATOM     33  C26 NON d   1     -37.037  18.912  -7.923  0.00  0.00     0.071 A 
ATOM     34  C27 NON d   1     -36.356  19.467  -6.849  0.00  0.00     0.073 A 
ATOM     35  C28 NON d   1     -37.077  19.855  -5.712  0.00  0.00     0.080 A 
BRANCH  31  36
ATOM     36  O5  NON d   1     -40.480  19.096  -6.817  0.00  0.00    -0.360 OA
ATOM     37  H34 NON d   1     -40.812  20.005  -6.701  0.00  0.00     0.217 HD
ENDBRANCH  31  36
BRANCH  33  38
ATOM     38  O6  NON d   1     -36.393  18.519  -9.059  0.00  0.00    -0.361 OA
ATOM     39  H36 NON d   1     -37.042  18.368  -9.763  0.00  0.00     0.217 HD
ENDBRANCH  33  38
BRANCH  35  40
ATOM     40  O7  NON d   1     -36.413  20.443  -4.669  0.00  0.00    -0.360 OA
ATOM     41  H38 NON d   1     -36.782  21.334  -4.533  0.00  0.00     0.217 HD
ENDBRANCH  35  40
ENDBRANCH   1  30
TORSDOF 13
ENDMDL
