MODEL 1
REMARK VINA RESULT:   -11.916      0.000      0.000
REMARK INTER + INTRA:         -14.343
REMARK INTER:                 -13.408
REMARK INTRA:                  -0.936
REMARK CONF_INDEPENDENT:        1.492
REMARK UNBOUND:                -0.936
REMARK  5 active torsions:
REMARK  status: ('A' for Active; 'I' for Inactive)
REMARK    1  A    between atoms: N1_1  and  C1_2 
REMARK    2  A    between atoms: C2_3  and  C3_4 
REMARK       I    between atoms: C3_4  and  N2_6 
REMARK    3  A    between atoms: N2_6  and  C4_7 
REMARK    4  A    between atoms: C5_8  and  C4_7 
REMARK    5  A    between atoms: C10_16  and  N4_17 
ROOT
ATOM      1  C1  NON d   1     -43.623  17.448  -4.056  0.00  0.00     0.062 A 
ATOM      2  C2  NON d   1     -44.705  17.711  -4.880  0.00  0.00     0.101 A 
ATOM      3  S1  NON d   1     -44.417  19.129  -5.810  0.00  0.00    -0.062 SA
ATOM      4  C9  NON d   1     -42.853  19.327  -5.187  0.00  0.00     0.114 A 
ATOM      5  N3  NON d   1     -42.100  20.335  -5.643  0.00  0.00    -0.223 NA
ATOM      6  C10 NON d   1     -40.841  20.484  -5.197  0.00  0.00     0.133 A 
ATOM      7  C16 NON d   1     -40.342  19.572  -4.223  0.00  0.00    -0.005 A 
ATOM      8  C17 NON d   1     -41.170  18.476  -3.760  0.00  0.00    -0.033 A 
ATOM      9  C18 NON d   1     -42.504  18.371  -4.255  0.00  0.00     0.035 A 
ATOM     10  C19 NON d   1     -40.643  17.459  -2.769  0.00  0.00     0.040 C 
ATOM     11  C20 NON d   1     -39.137  17.421  -2.589  0.00  0.00     0.005 C 
ATOM     12  C21 NON d   1     -38.620  18.825  -2.431  0.00  0.00     0.005 C 
ATOM     13  C22 NON d   1     -38.921  19.636  -3.686  0.00  0.00     0.043 C 
ENDROOT
BRANCH   2  14
ATOM     14  C3  NON d   1     -45.968  17.011  -5.116  0.00  0.00     0.261 C 
ATOM     15  O1  NON d   1     -46.701  17.273  -6.073  0.00  0.00    -0.267 OA
ATOM     16  N2  NON d   1     -46.336  16.003  -4.221  0.00  0.00    -0.354 N 
ATOM     17  H3  NON d   1     -45.971  16.101  -3.279  0.00  0.00     0.162 HD
BRANCH  16  18
ATOM     18  C4  NON d   1     -47.645  15.383  -4.405  0.00  0.00     0.155 C 
BRANCH  18  19
ATOM     19  C5  NON d   1     -48.848  15.965  -3.651  0.00  0.00     0.139 C 
ATOM     20  C6  NON d   1     -50.088  15.113  -3.484  0.00  0.00     0.035 C 
ATOM     21  C7  NON d   1     -50.856  15.900  -2.435  0.00  0.00     0.029 C 
ATOM     22  C8  NON d   1     -49.780  16.660  -1.674  0.00  0.00     0.168 C 
ATOM     23  O2  NON d   1     -48.524  16.332  -2.297  0.00  0.00    -0.384 OA
ENDBRANCH  18  19
ENDBRANCH  16  18
ENDBRANCH   2  14
BRANCH   1  24
ATOM     24  N1  NON d   1     -43.620  16.402  -3.185  0.00  0.00    -0.397 N 
ATOM     25  H1  NON d   1     -43.061  15.575  -3.357  0.00  0.00     0.156 HD
ATOM     26  H2  NON d   1     -44.486  16.158  -2.705  0.00  0.00     0.156 HD
ENDBRANCH   1  24
BRANCH   6  27
ATOM     27  N4  NON d   1     -40.131  21.541  -5.828  0.00  0.00    -0.365 N 
ATOM     28  C11 NON d   1     -40.142  22.900  -5.293  0.00  0.00     0.124 C 
ATOM     29  C12 NON d   1     -39.514  23.976  -6.174  0.00  0.00     0.020 C 
ATOM     30  C13 NON d   1     -38.523  23.438  -7.175  0.00  0.00     0.003 C 
ATOM     31  C14 NON d   1     -39.183  22.388  -8.041  0.00  0.00     0.020 C 
ATOM     32  C15 NON d   1     -40.087  21.398  -7.301  0.00  0.00     0.124 C 
ENDBRANCH   6  27
TORSDOF 5
ENDMDL
MODEL 2
REMARK VINA RESULT:   -10.977      2.828      4.562
REMARK INTER + INTRA:         -13.314
REMARK INTER:                 -12.468
REMARK INTRA:                  -0.846
REMARK CONF_INDEPENDENT:        1.492
REMARK UNBOUND:                -0.846
REMARK  5 active torsions:
REMARK  status: ('A' for Active; 'I' for Inactive)
REMARK    1  A    between atoms: N1_1  and  C1_2 
REMARK    2  A    between atoms: C2_3  and  C3_4 
REMARK       I    between atoms: C3_4  and  N2_6 
REMARK    3  A    between atoms: N2_6  and  C4_7 
REMARK    4  A    between atoms: C5_8  and  C4_7 
REMARK    5  A    between atoms: C10_16  and  N4_17 
ROOT
ATOM      1  C1  NON d   1     -41.178  18.224  -5.109  0.00  0.00     0.062 A 
ATOM      2  C2  NON d   1     -42.397  17.901  -4.536  0.00  0.00     0.101 A 
ATOM      3  S1  NON d   1     -42.427  18.380  -2.884  0.00  0.00    -0.062 SA
ATOM      4  C9  NON d   1     -40.885  19.077  -2.967  0.00  0.00     0.114 A 
ATOM      5  N3  NON d   1     -40.394  19.687  -1.881  0.00  0.00    -0.223 NA
ATOM      6  C10 NON d   1     -39.193  20.287  -1.936  0.00  0.00     0.133 A 
ATOM      7  C16 NON d   1     -38.453  20.238  -3.153  0.00  0.00    -0.005 A 
ATOM      8  C17 NON d   1     -39.015  19.589  -4.321  0.00  0.00    -0.033 A 
ATOM      9  C18 NON d   1     -40.289  18.956  -4.206  0.00  0.00     0.035 A 
ATOM     10  C19 NON d   1     -38.275  19.574  -5.643  0.00  0.00     0.040 C 
ATOM     11  C20 NON d   1     -37.137  20.568  -5.782  0.00  0.00     0.005 C 
ATOM     12  C21 NON d   1     -36.281  20.520  -4.546  0.00  0.00     0.005 C 
ATOM     13  C22 NON d   1     -37.104  20.917  -3.326  0.00  0.00     0.043 C 
ENDROOT
BRANCH   2  14
ATOM     14  C3  NON d   1     -43.615  17.291  -5.070  0.00  0.00     0.261 C 
ATOM     15  O1  NON d   1     -43.663  16.111  -5.427  0.00  0.00    -0.267 OA
ATOM     16  N2  NON d   1     -44.761  18.085  -5.161  0.00  0.00    -0.354 N 
ATOM     17  H3  NON d   1     -44.595  19.080  -5.270  0.00  0.00     0.162 HD
BRANCH  16  18
ATOM     18  C4  NON d   1     -45.940  17.498  -5.792  0.00  0.00     0.155 C 
BRANCH  18  19
ATOM     19  C5  NON d   1     -46.694  16.385  -5.052  0.00  0.00     0.139 C 
ATOM     20  C6  NON d   1     -47.313  16.692  -3.705  0.00  0.00     0.035 C 
ATOM     21  C7  NON d   1     -48.210  15.482  -3.502  0.00  0.00     0.029 C 
ATOM     22  C8  NON d   1     -48.520  15.004  -4.914  0.00  0.00     0.168 C 
ATOM     23  O2  NON d   1     -47.808  15.876  -5.810  0.00  0.00    -0.384 OA
ENDBRANCH  18  19
ENDBRANCH  16  18
ENDBRANCH   2  14
BRANCH   1  24
ATOM     24  N1  NON d   1     -40.884  17.909  -6.399  0.00  0.00    -0.397 N 
ATOM     25  H1  NON d   1     -40.919  16.952  -6.730  0.00  0.00     0.156 HD
ATOM     26  H2  NON d   1     -40.148  18.428  -6.878  0.00  0.00     0.156 HD
ENDBRANCH   1  24
BRANCH   6  27
ATOM     27  N4  NON d   1     -38.836  20.966  -0.741  0.00  0.00    -0.365 N 
ATOM     28  C11 NON d   1     -37.575  20.699  -0.054  0.00  0.00     0.124 C 
ATOM     29  C12 NON d   1     -37.408  21.340   1.321  0.00  0.00     0.020 C 
ATOM     30  C13 NON d   1     -38.282  22.550   1.537  0.00  0.00     0.003 C 
ATOM     31  C14 NON d   1     -39.733  22.183   1.315  0.00  0.00     0.020 C 
ATOM     32  C15 NON d   1     -40.008  21.287   0.104  0.00  0.00     0.124 C 
ENDBRANCH   6  27
TORSDOF 5
ENDMDL
MODEL 3
REMARK VINA RESULT:   -10.267      2.354      3.593
REMARK INTER + INTRA:         -13.457
REMARK INTER:                 -11.758
REMARK INTRA:                  -1.699
REMARK CONF_INDEPENDENT:        1.492
REMARK UNBOUND:                -1.699
REMARK  5 active torsions:
REMARK  status: ('A' for Active; 'I' for Inactive)
REMARK    1  A    between atoms: N1_1  and  C1_2 
REMARK    2  A    between atoms: C2_3  and  C3_4 
REMARK       I    between atoms: C3_4  and  N2_6 
REMARK    3  A    between atoms: N2_6  and  C4_7 
REMARK    4  A    between atoms: C5_8  and  C4_7 
REMARK    5  A    between atoms: C10_16  and  N4_17 
ROOT
ATOM      1  C1  NON d   1     -40.818  18.468  -4.528  0.00  0.00     0.062 A 
ATOM      2  C2  NON d   1     -42.203  18.459  -4.545  0.00  0.00     0.101 A 
ATOM      3  S1  NON d   1     -42.793  19.531  -5.755  0.00  0.00    -0.062 SA
ATOM      4  C9  NON d   1     -41.234  19.923  -6.293  0.00  0.00     0.114 A 
ATOM      5  N3  NON d   1     -41.102  20.751  -7.335  0.00  0.00    -0.223 NA
ATOM      6  C10 NON d   1     -39.878  21.040  -7.809  0.00  0.00     0.133 A 
ATOM      7  C16 NON d   1     -38.739  20.471  -7.168  0.00  0.00    -0.005 A 
ATOM      8  C17 NON d   1     -38.909  19.560  -6.054  0.00  0.00    -0.033 A 
ATOM      9  C18 NON d   1     -40.230  19.297  -5.582  0.00  0.00     0.035 A 
ATOM     10  C19 NON d   1     -37.719  18.896  -5.393  0.00  0.00     0.040 C 
ATOM     11  C20 NON d   1     -36.419  18.928  -6.175  0.00  0.00     0.005 C 
ATOM     12  C21 NON d   1     -36.190  20.318  -6.702  0.00  0.00     0.005 C 
ATOM     13  C22 NON d   1     -37.317  20.708  -7.652  0.00  0.00     0.043 C 
ENDROOT
BRANCH   2  14
ATOM     14  C3  NON d   1     -43.201  17.709  -3.782  0.00  0.00     0.261 C 
ATOM     15  O1  NON d   1     -42.891  16.873  -2.929  0.00  0.00    -0.267 OA
ATOM     16  N2  NON d   1     -44.551  17.970  -4.032  0.00  0.00    -0.354 N 
ATOM     17  H3  NON d   1     -44.765  18.306  -4.966  0.00  0.00     0.162 HD
BRANCH  16  18
ATOM     18  C4  NON d   1     -45.537  17.143  -3.342  0.00  0.00     0.155 C 
BRANCH  18  19
ATOM     19  C5  NON d   1     -46.505  16.298  -4.180  0.00  0.00     0.139 C 
ATOM     20  C6  NON d   1     -47.900  16.044  -3.649  0.00  0.00     0.035 C 
ATOM     21  C7  NON d   1     -48.596  15.493  -4.883  0.00  0.00     0.029 C 
ATOM     22  C8  NON d   1     -47.816  16.084  -6.049  0.00  0.00     0.168 C 
ATOM     23  O2  NON d   1     -46.752  16.867  -5.479  0.00  0.00    -0.384 OA
ENDBRANCH  18  19
ENDBRANCH  16  18
ENDBRANCH   2  14
BRANCH   1  24
ATOM     24  N1  NON d   1     -40.105  17.736  -3.630  0.00  0.00    -0.397 N 
ATOM     25  H1  NON d   1     -39.220  17.310  -3.880  0.00  0.00     0.156 HD
ATOM     26  H2  NON d   1     -40.607  17.154  -2.959  0.00  0.00     0.156 HD
ENDBRANCH   1  24
BRANCH   6  27
ATOM     27  N4  NON d   1     -39.890  21.862  -8.968  0.00  0.00    -0.365 N 
ATOM     28  C11 NON d   1     -39.304  21.418 -10.230  0.00  0.00     0.124 C 
ATOM     29  C12 NON d   1     -39.200  22.469 -11.330  0.00  0.00     0.020 C 
ATOM     30  C13 NON d   1     -40.169  23.613 -11.171  0.00  0.00     0.003 C 
ATOM     31  C14 NON d   1     -39.979  24.266  -9.820  0.00  0.00     0.020 C 
ATOM     32  C15 NON d   1     -39.783  23.303  -8.646  0.00  0.00     0.124 C 
ENDBRANCH   6  27
TORSDOF 5
ENDMDL
MODEL 4
REMARK VINA RESULT:   -10.208      3.252      5.259
REMARK INTER + INTRA:         -12.553
REMARK INTER:                 -11.699
REMARK INTRA:                  -0.854
REMARK CONF_INDEPENDENT:        1.492
REMARK UNBOUND:                -0.854
REMARK  5 active torsions:
REMARK  status: ('A' for Active; 'I' for Inactive)
REMARK    1  A    between atoms: N1_1  and  C1_2 
REMARK    2  A    between atoms: C2_3  and  C3_4 
REMARK       I    between atoms: C3_4  and  N2_6 
REMARK    3  A    between atoms: N2_6  and  C4_7 
REMARK    4  A    between atoms: C5_8  and  C4_7 
REMARK    5  A    between atoms: C10_16  and  N4_17 
ROOT
ATOM      1  C1  NON d   1     -41.311  19.957  -4.990  0.00  0.00     0.062 A 
ATOM      2  C2  NON d   1     -41.814  18.801  -4.415  0.00  0.00     0.101 A 
ATOM      3  S1  NON d   1     -41.429  18.751  -2.739  0.00  0.00    -0.062 SA
ATOM      4  C9  NON d   1     -40.690  20.276  -2.773  0.00  0.00     0.114 A 
ATOM      5  N3  NON d   1     -40.217  20.788  -1.631  0.00  0.00    -0.223 NA
ATOM      6  C10 NON d   1     -39.668  22.015  -1.625  0.00  0.00     0.133 A 
ATOM      7  C16 NON d   1     -39.581  22.737  -2.850  0.00  0.00    -0.005 A 
ATOM      8  C17 NON d   1     -40.120  22.170  -4.070  0.00  0.00    -0.033 A 
ATOM      9  C18 NON d   1     -40.680  20.858  -4.025  0.00  0.00     0.035 A 
ATOM     10  C19 NON d   1     -40.094  22.941  -5.373  0.00  0.00     0.040 C 
ATOM     11  C20 NON d   1     -39.837  24.432  -5.261  0.00  0.00     0.005 C 
ATOM     12  C21 NON d   1     -38.679  24.669  -4.331  0.00  0.00     0.005 C 
ATOM     13  C22 NON d   1     -39.012  24.145  -2.939  0.00  0.00     0.043 C 
ENDROOT
BRANCH   2  14
ATOM     14  C3  NON d   1     -42.607  17.691  -4.945  0.00  0.00     0.261 C 
ATOM     15  O1  NON d   1     -42.151  16.881  -5.756  0.00  0.00    -0.267 OA
ATOM     16  N2  NON d   1     -43.922  17.551  -4.496  0.00  0.00    -0.354 N 
ATOM     17  H3  NON d   1     -44.376  18.409  -4.197  0.00  0.00     0.162 HD
BRANCH  16  18
ATOM     18  C4  NON d   1     -44.736  16.505  -5.109  0.00  0.00     0.155 C 
BRANCH  18  19
ATOM     19  C5  NON d   1     -46.098  16.171  -4.487  0.00  0.00     0.139 C 
ATOM     20  C6  NON d   1     -46.593  17.003  -3.323  0.00  0.00     0.035 C 
ATOM     21  C7  NON d   1     -48.051  16.580  -3.249  0.00  0.00     0.029 C 
ATOM     22  C8  NON d   1     -48.384  16.131  -4.665  0.00  0.00     0.168 C 
ATOM     23  O2  NON d   1     -47.176  16.269  -5.435  0.00  0.00    -0.384 OA
ENDBRANCH  18  19
ENDBRANCH  16  18
ENDBRANCH   2  14
BRANCH   1  24
ATOM     24  N1  NON d   1     -41.444  20.215  -6.319  0.00  0.00    -0.397 N 
ATOM     25  H1  NON d   1     -41.811  21.099  -6.651  0.00  0.00     0.156 HD
ATOM     26  H2  NON d   1     -41.716  19.456  -6.944  0.00  0.00     0.156 HD
ENDBRANCH   1  24
BRANCH   6  27
ATOM     27  N4  NON d   1     -39.286  22.466  -0.333  0.00  0.00    -0.365 N 
ATOM     28  C11 NON d   1     -38.151  21.883   0.379  0.00  0.00     0.124 C 
ATOM     29  C12 NON d   1     -37.977  22.311   1.833  0.00  0.00     0.020 C 
ATOM     30  C13 NON d   1     -38.630  23.631   2.160  0.00  0.00     0.003 C 
ATOM     31  C14 NON d   1     -40.102  23.577   1.815  0.00  0.00     0.020 C 
ATOM     32  C15 NON d   1     -40.441  22.901   0.484  0.00  0.00     0.124 C 
ENDBRANCH   6  27
TORSDOF 5
ENDMDL
MODEL 5
REMARK VINA RESULT:   -10.098      2.149      3.009
REMARK INTER + INTRA:         -12.380
REMARK INTER:                 -11.590
REMARK INTRA:                  -0.790
REMARK CONF_INDEPENDENT:        1.492
REMARK UNBOUND:                -0.790
REMARK  5 active torsions:
REMARK  status: ('A' for Active; 'I' for Inactive)
REMARK    1  A    between atoms: N1_1  and  C1_2 
REMARK    2  A    between atoms: C2_3  and  C3_4 
REMARK       I    between atoms: C3_4  and  N2_6 
REMARK    3  A    between atoms: N2_6  and  C4_7 
REMARK    4  A    between atoms: C5_8  and  C4_7 
REMARK    5  A    between atoms: C10_16  and  N4_17 
ROOT
ATOM      1  C1  NON d   1     -41.650  18.401  -4.176  0.00  0.00     0.062 A 
ATOM      2  C2  NON d   1     -42.819  18.656  -4.875  0.00  0.00     0.101 A 
ATOM      3  S1  NON d   1     -42.471  19.504  -6.331  0.00  0.00    -0.062 SA
ATOM      4  C9  NON d   1     -40.798  19.449  -6.067  0.00  0.00     0.114 A 
ATOM      5  N3  NON d   1     -39.982  19.966  -6.994  0.00  0.00    -0.223 NA
ATOM      6  C10 NON d   1     -38.651  19.893  -6.829  0.00  0.00     0.133 A 
ATOM      7  C16 NON d   1     -38.135  19.283  -5.649  0.00  0.00    -0.005 A 
ATOM      8  C17 NON d   1     -39.038  18.712  -4.670  0.00  0.00    -0.033 A 
ATOM      9  C18 NON d   1     -40.444  18.828  -4.887  0.00  0.00     0.035 A 
ATOM     10  C19 NON d   1     -38.515  18.005  -3.436  0.00  0.00     0.040 C 
ATOM     11  C20 NON d   1     -37.053  17.601  -3.470  0.00  0.00     0.005 C 
ATOM     12  C21 NON d   1     -36.228  18.755  -3.969  0.00  0.00     0.005 C 
ATOM     13  C22 NON d   1     -36.645  19.120  -5.389  0.00  0.00     0.043 C 
ENDROOT
BRANCH   2  14
ATOM     14  C3  NON d   1     -44.219  18.314  -4.627  0.00  0.00     0.261 C 
ATOM     15  O1  NON d   1     -45.136  18.707  -5.354  0.00  0.00    -0.267 OA
ATOM     16  N2  NON d   1     -44.512  17.503  -3.528  0.00  0.00    -0.354 N 
ATOM     17  H3  NON d   1     -43.852  17.555  -2.758  0.00  0.00     0.162 HD
BRANCH  16  18
ATOM     18  C4  NON d   1     -45.919  17.255  -3.228  0.00  0.00     0.155 C 
BRANCH  18  19
ATOM     19  C5  NON d   1     -46.688  16.242  -4.086  0.00  0.00     0.139 C 
ATOM     20  C6  NON d   1     -48.080  15.828  -3.658  0.00  0.00     0.035 C 
ATOM     21  C7  NON d   1     -48.583  15.122  -4.907  0.00  0.00     0.029 C 
ATOM     22  C8  NON d   1     -47.784  15.751  -6.040  0.00  0.00     0.168 C 
ATOM     23  O2  NON d   1     -46.889  16.702  -5.435  0.00  0.00    -0.384 OA
ENDBRANCH  18  19
ENDBRANCH  16  18
ENDBRANCH   2  14
BRANCH   1  24
ATOM     24  N1  NON d   1     -41.657  17.779  -2.966  0.00  0.00    -0.397 N 
ATOM     25  H1  NON d   1     -41.378  18.264  -2.121  0.00  0.00     0.156 HD
ATOM     26  H2  NON d   1     -41.397  16.793  -2.917  0.00  0.00     0.156 HD
ENDBRANCH   1  24
BRANCH   6  27
ATOM     27  N4  NON d   1     -37.908  20.404  -7.927  0.00  0.00    -0.365 N 
ATOM     28  C11 NON d   1     -38.273  21.655  -8.585  0.00  0.00     0.124 C 
ATOM     29  C12 NON d   1     -37.524  21.983  -9.873  0.00  0.00     0.020 C 
ATOM     30  C13 NON d   1     -36.190  21.290  -9.992  0.00  0.00     0.003 C 
ATOM     31  C14 NON d   1     -36.375  19.793  -9.873  0.00  0.00     0.020 C 
ATOM     32  C15 NON d   1     -37.344  19.334  -8.781  0.00  0.00     0.124 C 
ENDBRANCH   6  27
TORSDOF 5
ENDMDL
MODEL 6
REMARK VINA RESULT:    -9.917      2.494      4.730
REMARK INTER + INTRA:         -12.672
REMARK INTER:                 -11.409
REMARK INTRA:                  -1.263
REMARK CONF_INDEPENDENT:        1.492
REMARK UNBOUND:                -1.263
REMARK  5 active torsions:
REMARK  status: ('A' for Active; 'I' for Inactive)
REMARK    1  A    between atoms: N1_1  and  C1_2 
REMARK    2  A    between atoms: C2_3  and  C3_4 
REMARK       I    between atoms: C3_4  and  N2_6 
REMARK    3  A    between atoms: N2_6  and  C4_7 
REMARK    4  A    between atoms: C5_8  and  C4_7 
REMARK    5  A    between atoms: C10_16  and  N4_17 
ROOT
ATOM      1  C1  NON d   1     -40.680  20.565  -4.797  0.00  0.00     0.062 A 
ATOM      2  C2  NON d   1     -41.502  19.539  -5.234  0.00  0.00     0.101 A 
ATOM      3  S1  NON d   1     -41.775  19.673  -6.927  0.00  0.00    -0.062 SA
ATOM      4  C9  NON d   1     -40.749  21.014  -7.076  0.00  0.00     0.114 A 
ATOM      5  N3  NON d   1     -40.544  21.536  -8.291  0.00  0.00    -0.223 NA
ATOM      6  C10 NON d   1     -39.699  22.571  -8.440  0.00  0.00     0.133 A 
ATOM      7  C16 NON d   1     -39.054  23.105  -7.288  0.00  0.00    -0.005 A 
ATOM      8  C17 NON d   1     -39.276  22.509  -5.986  0.00  0.00    -0.033 A 
ATOM      9  C18 NON d   1     -40.194  21.420  -5.880  0.00  0.00     0.035 A 
ATOM     10  C19 NON d   1     -38.558  23.020  -4.754  0.00  0.00     0.040 C 
ATOM     11  C20 NON d   1     -37.349  23.902  -5.006  0.00  0.00     0.005 C 
ATOM     12  C21 NON d   1     -37.692  24.933  -6.045  0.00  0.00     0.005 C 
ATOM     13  C22 NON d   1     -38.055  24.249  -7.359  0.00  0.00     0.043 C 
ENDROOT
BRANCH   2  14
ATOM     14  C3  NON d   1     -42.115  18.398  -4.553  0.00  0.00     0.261 C 
ATOM     15  O1  NON d   1     -41.507  17.717  -3.723  0.00  0.00    -0.267 OA
ATOM     16  N2  NON d   1     -43.444  18.090  -4.856  0.00  0.00    -0.354 N 
ATOM     17  H3  NON d   1     -43.754  18.362  -5.783  0.00  0.00     0.162 HD
BRANCH  16  18
ATOM     18  C4  NON d   1     -44.012  16.889  -4.250  0.00  0.00     0.155 C 
BRANCH  18  19
ATOM     19  C5  NON d   1     -45.457  16.504  -4.593  0.00  0.00     0.139 C 
ATOM     20  C6  NON d   1     -46.540  16.741  -3.562  0.00  0.00     0.035 C 
ATOM     21  C7  NON d   1     -47.797  16.556  -4.397  0.00  0.00     0.029 C 
ATOM     22  C8  NON d   1     -47.358  16.894  -5.815  0.00  0.00     0.168 C 
ATOM     23  O2  NON d   1     -45.954  17.203  -5.749  0.00  0.00    -0.384 OA
ENDBRANCH  18  19
ENDBRANCH  16  18
ENDBRANCH   2  14
BRANCH   1  24
ATOM     24  N1  NON d   1     -40.346  20.709  -3.485  0.00  0.00    -0.397 N 
ATOM     25  H1  NON d   1     -39.612  20.153  -3.063  0.00  0.00     0.156 HD
ATOM     26  H2  NON d   1     -41.083  20.905  -2.808  0.00  0.00     0.156 HD
ENDBRANCH   1  24
BRANCH   6  27
ATOM     27  N4  NON d   1     -39.513  22.968  -9.791  0.00  0.00    -0.365 N 
ATOM     28  C11 NON d   1     -40.254  24.085 -10.372  0.00  0.00     0.124 C 
ATOM     29  C12 NON d   1     -40.114  24.274 -11.879  0.00  0.00     0.020 C 
ATOM     30  C13 NON d   1     -38.860  23.663 -12.454  0.00  0.00     0.003 C 
ATOM     31  C14 NON d   1     -38.804  22.190 -12.116  0.00  0.00     0.020 C 
ATOM     32  C15 NON d   1     -39.205  21.827 -10.683  0.00  0.00     0.124 C 
ENDBRANCH   6  27
TORSDOF 5
ENDMDL
MODEL 7
REMARK VINA RESULT:    -9.882      1.876      4.050
REMARK INTER + INTRA:         -12.659
REMARK INTER:                 -11.373
REMARK INTRA:                  -1.285
REMARK CONF_INDEPENDENT:        1.492
REMARK UNBOUND:                -1.285
REMARK  5 active torsions:
REMARK  status: ('A' for Active; 'I' for Inactive)
REMARK    1  A    between atoms: N1_1  and  C1_2 
REMARK    2  A    between atoms: C2_3  and  C3_4 
REMARK       I    between atoms: C3_4  and  N2_6 
REMARK    3  A    between atoms: N2_6  and  C4_7 
REMARK    4  A    between atoms: C5_8  and  C4_7 
REMARK    5  A    between atoms: C10_16  and  N4_17 
ROOT
ATOM      1  C1  NON d   1     -43.242  18.703  -5.201  0.00  0.00     0.062 A 
ATOM      2  C2  NON d   1     -43.874  17.593  -4.663  0.00  0.00     0.101 A 
ATOM      3  S1  NON d   1     -42.814  16.765  -3.590  0.00  0.00    -0.062 SA
ATOM      4  C9  NON d   1     -41.583  17.913  -3.778  0.00  0.00     0.114 A 
ATOM      5  N3  NON d   1     -40.455  17.770  -3.073  0.00  0.00    -0.223 NA
ATOM      6  C10 NON d   1     -39.482  18.692  -3.170  0.00  0.00     0.133 A 
ATOM      7  C16 NON d   1     -39.668  19.799  -4.048  0.00  0.00    -0.005 A 
ATOM      8  C17 NON d   1     -40.907  19.944  -4.785  0.00  0.00    -0.033 A 
ATOM      9  C18 NON d   1     -41.903  18.929  -4.656  0.00  0.00     0.035 A 
ATOM     10  C19 NON d   1     -41.154  21.141  -5.680  0.00  0.00     0.040 C 
ATOM     11  C20 NON d   1     -40.234  22.329  -5.472  0.00  0.00     0.005 C 
ATOM     12  C21 NON d   1     -38.811  21.849  -5.391  0.00  0.00     0.005 C 
ATOM     13  C22 NON d   1     -38.644  20.913  -4.199  0.00  0.00     0.043 C 
ENDROOT
BRANCH   2  14
ATOM     14  C3  NON d   1     -45.225  17.051  -4.809  0.00  0.00     0.261 C 
ATOM     15  O1  NON d   1     -45.914  17.254  -5.812  0.00  0.00    -0.267 OA
ATOM     16  N2  NON d   1     -45.733  16.267  -3.771  0.00  0.00    -0.354 N 
ATOM     17  H3  NON d   1     -45.356  16.466  -2.849  0.00  0.00     0.162 HD
BRANCH  16  18
ATOM     18  C4  NON d   1     -47.118  15.819  -3.880  0.00  0.00     0.155 C 
BRANCH  18  19
ATOM     19  C5  NON d   1     -48.185  16.505  -3.017  0.00  0.00     0.139 C 
ATOM     20  C6  NON d   1     -49.573  15.903  -2.953  0.00  0.00     0.035 C 
ATOM     21  C7  NON d   1     -50.174  16.656  -1.778  0.00  0.00     0.029 C 
ATOM     22  C8  NON d   1     -48.972  17.059  -0.935  0.00  0.00     0.168 C 
ATOM     23  O2  NON d   1     -47.804  16.586  -1.631  0.00  0.00    -0.384 OA
ENDBRANCH  18  19
ENDBRANCH  16  18
ENDBRANCH   2  14
BRANCH   1  24
ATOM     24  N1  NON d   1     -43.853  19.505  -6.115  0.00  0.00    -0.397 N 
ATOM     25  H1  NON d   1     -44.752  19.262  -6.512  0.00  0.00     0.156 HD
ATOM     26  H2  NON d   1     -43.279  19.999  -6.799  0.00  0.00     0.156 HD
ENDBRANCH   1  24
BRANCH   6  27
ATOM     27  N4  NON d   1     -38.380  18.458  -2.304  0.00  0.00    -0.365 N 
ATOM     28  C11 NON d   1     -37.641  19.557  -1.689  0.00  0.00     0.124 C 
ATOM     29  C12 NON d   1     -36.361  19.178  -0.952  0.00  0.00     0.020 C 
ATOM     30  C13 NON d   1     -36.322  17.738  -0.503  0.00  0.00     0.003 C 
ATOM     31  C14 NON d   1     -36.520  16.823  -1.691  0.00  0.00     0.020 C 
ATOM     32  C15 NON d   1     -37.607  17.253  -2.680  0.00  0.00     0.124 C 
ENDBRANCH   6  27
TORSDOF 5
ENDMDL
MODEL 8
REMARK VINA RESULT:    -9.342      1.876      2.719
REMARK INTER + INTRA:         -11.971
REMARK INTER:                 -10.834
REMARK INTRA:                  -1.138
REMARK CONF_INDEPENDENT:        1.492
REMARK UNBOUND:                -1.138
REMARK  5 active torsions:
REMARK  status: ('A' for Active; 'I' for Inactive)
REMARK    1  A    between atoms: N1_1  and  C1_2 
REMARK    2  A    between atoms: C2_3  and  C3_4 
REMARK       I    between atoms: C3_4  and  N2_6 
REMARK    3  A    between atoms: N2_6  and  C4_7 
REMARK    4  A    between atoms: C5_8  and  C4_7 
REMARK    5  A    between atoms: C10_16  and  N4_17 
ROOT
ATOM      1  C1  NON d   1     -41.440  18.019  -3.697  0.00  0.00     0.062 A 
ATOM      2  C2  NON d   1     -42.444  18.338  -4.598  0.00  0.00     0.101 A 
ATOM      3  S1  NON d   1     -42.128  19.863  -5.328  0.00  0.00    -0.062 SA
ATOM      4  C9  NON d   1     -40.647  20.041  -4.523  0.00  0.00     0.114 A 
ATOM      5  N3  NON d   1     -39.899  21.120  -4.781  0.00  0.00    -0.223 NA
ATOM      6  C10 NON d   1     -38.701  21.261  -4.190  0.00  0.00     0.133 A 
ATOM      7  C16 NON d   1     -38.262  20.260  -3.275  0.00  0.00    -0.005 A 
ATOM      8  C17 NON d   1     -39.081  19.090  -3.028  0.00  0.00    -0.033 A 
ATOM      9  C18 NON d   1     -40.352  18.996  -3.671  0.00  0.00     0.035 A 
ATOM     10  C19 NON d   1     -38.612  17.983  -2.106  0.00  0.00     0.040 C 
ATOM     11  C20 NON d   1     -37.133  17.977  -1.770  0.00  0.00     0.005 C 
ATOM     12  C21 NON d   1     -36.700  19.370  -1.403  0.00  0.00     0.005 C 
ATOM     13  C22 NON d   1     -36.908  20.310  -2.585  0.00  0.00     0.043 C 
ENDROOT
BRANCH   2  14
ATOM     14  C3  NON d   1     -43.642  17.626  -5.044  0.00  0.00     0.261 C 
ATOM     15  O1  NON d   1     -43.661  16.404  -5.215  0.00  0.00    -0.267 OA
ATOM     16  N2  NON d   1     -44.802  18.371  -5.268  0.00  0.00    -0.354 N 
ATOM     17  H3  NON d   1     -44.655  19.341  -5.529  0.00  0.00     0.162 HD
BRANCH  16  18
ATOM     18  C4  NON d   1     -45.960  17.668  -5.813  0.00  0.00     0.155 C 
BRANCH  18  19
ATOM     19  C5  NON d   1     -46.560  16.505  -5.012  0.00  0.00     0.139 C 
ATOM     20  C6  NON d   1     -47.053  16.765  -3.604  0.00  0.00     0.035 C 
ATOM     21  C7  NON d   1     -47.844  15.497  -3.323  0.00  0.00     0.029 C 
ATOM     22  C8  NON d   1     -48.268  15.006  -4.700  0.00  0.00     0.168 C 
ATOM     23  O2  NON d   1     -47.710  15.927  -5.656  0.00  0.00    -0.384 OA
ENDBRANCH  18  19
ENDBRANCH  16  18
ENDBRANCH   2  14
BRANCH   1  24
ATOM     24  N1  NON d   1     -41.478  16.880  -2.953  0.00  0.00    -0.397 N 
ATOM     25  H1  NON d   1     -40.642  16.503  -2.523  0.00  0.00     0.156 HD
ATOM     26  H2  NON d   1     -42.108  16.128  -3.234  0.00  0.00     0.156 HD
ENDBRANCH   1  24
BRANCH   6  27
ATOM     27  N4  NON d   1     -37.980  22.407  -4.619  0.00  0.00    -0.365 N 
ATOM     28  C11 NON d   1     -37.967  23.642  -3.840  0.00  0.00     0.124 C 
ATOM     29  C12 NON d   1     -37.330  24.855  -4.511  0.00  0.00     0.020 C 
ATOM     30  C13 NON d   1     -36.353  24.501  -5.604  0.00  0.00     0.003 C 
ATOM     31  C14 NON d   1     -37.035  23.639  -6.644  0.00  0.00     0.020 C 
ATOM     32  C15 NON d   1     -37.948  22.540  -6.093  0.00  0.00     0.124 C 
ENDBRANCH   6  27
TORSDOF 5
ENDMDL
MODEL 9
REMARK VINA RESULT:    -9.234      2.429      3.532
REMARK INTER + INTRA:         -12.029
REMARK INTER:                 -10.725
REMARK INTRA:                  -1.304
REMARK CONF_INDEPENDENT:        1.492
REMARK UNBOUND:                -1.304
REMARK  5 active torsions:
REMARK  status: ('A' for Active; 'I' for Inactive)
REMARK    1  A    between atoms: N1_1  and  C1_2 
REMARK    2  A    between atoms: C2_3  and  C3_4 
REMARK       I    between atoms: C3_4  and  N2_6 
REMARK    3  A    between atoms: N2_6  and  C4_7 
REMARK    4  A    between atoms: C5_8  and  C4_7 
REMARK    5  A    between atoms: C10_16  and  N4_17 
ROOT
ATOM      1  C1  NON d   1     -40.939  19.194  -2.741  0.00  0.00     0.062 A 
ATOM      2  C2  NON d   1     -41.900  18.861  -3.683  0.00  0.00     0.101 A 
ATOM      3  S1  NON d   1     -42.131  20.162  -4.785  0.00  0.00    -0.062 SA
ATOM      4  C9  NON d   1     -40.915  21.101  -4.070  0.00  0.00     0.114 A 
ATOM      5  N3  NON d   1     -40.620  22.291  -4.606  0.00  0.00    -0.223 NA
ATOM      6  C10 NON d   1     -39.629  23.033  -4.084  0.00  0.00     0.133 A 
ATOM      7  C16 NON d   1     -38.925  22.541  -2.947  0.00  0.00    -0.005 A 
ATOM      8  C17 NON d   1     -39.248  21.239  -2.398  0.00  0.00    -0.033 A 
ATOM      9  C18 NON d   1     -40.319  20.497  -2.981  0.00  0.00     0.035 A 
ATOM     10  C19 NON d   1     -38.476  20.667  -1.227  0.00  0.00     0.040 C 
ATOM     11  C20 NON d   1     -37.146  21.330  -0.918  0.00  0.00     0.005 C 
ATOM     12  C21 NON d   1     -37.320  22.823  -0.927  0.00  0.00     0.005 C 
ATOM     13  C22 NON d   1     -37.765  23.289  -2.309  0.00  0.00     0.043 C 
ENDROOT
BRANCH   2  14
ATOM     14  C3  NON d   1     -42.684  17.649  -3.916  0.00  0.00     0.261 C 
ATOM     15  O1  NON d   1     -42.397  16.565  -3.400  0.00  0.00    -0.267 OA
ATOM     16  N2  NON d   1     -43.803  17.741  -4.747  0.00  0.00    -0.354 N 
ATOM     17  H3  NON d   1     -43.766  18.471  -5.452  0.00  0.00     0.162 HD
BRANCH  16  18
ATOM     18  C4  NON d   1     -44.517  16.505  -5.057  0.00  0.00     0.155 C 
BRANCH  18  19
ATOM     19  C5  NON d   1     -45.917  16.295  -4.468  0.00  0.00     0.139 C 
ATOM     20  C6  NON d   1     -46.355  17.152  -3.299  0.00  0.00     0.035 C 
ATOM     21  C7  NON d   1     -47.848  16.872  -3.262  0.00  0.00     0.029 C 
ATOM     22  C8  NON d   1     -48.192  16.480  -4.692  0.00  0.00     0.168 C 
ATOM     23  O2  NON d   1     -46.960  16.512  -5.436  0.00  0.00    -0.384 OA
ENDBRANCH  18  19
ENDBRANCH  16  18
ENDBRANCH   2  14
BRANCH   1  24
ATOM     24  N1  NON d   1     -40.603  18.350  -1.728  0.00  0.00    -0.397 N 
ATOM     25  H1  NON d   1     -39.680  18.368  -1.310  0.00  0.00     0.156 HD
ATOM     26  H2  NON d   1     -40.976  17.400  -1.733  0.00  0.00     0.156 HD
ENDBRANCH   1  24
BRANCH   6  27
ATOM     27  N4  NON d   1     -39.370  24.231  -4.803  0.00  0.00    -0.365 N 
ATOM     28  C11 NON d   1     -39.087  25.490  -4.119  0.00  0.00     0.124 C 
ATOM     29  C12 NON d   1     -39.032  26.736  -4.999  0.00  0.00     0.020 C 
ATOM     30  C13 NON d   1     -38.739  26.443  -6.449  0.00  0.00     0.003 C 
ATOM     31  C14 NON d   1     -39.764  25.474  -6.996  0.00  0.00     0.020 C 
ATOM     32  C15 NON d   1     -40.128  24.309  -6.072  0.00  0.00     0.124 C 
ENDBRANCH   6  27
TORSDOF 5
ENDMDL
