MODEL 1
REMARK VINA RESULT:   -11.294      0.000      0.000
REMARK INTER + INTRA:         -16.749
REMARK INTER:                 -14.874
REMARK INTRA:                  -1.875
REMARK CONF_INDEPENDENT:        3.580
REMARK UNBOUND:                -1.875
REMARK  12 active torsions:
REMARK  status: ('A' for Active; 'I' for Inactive)
REMARK    1  A    between atoms: C2_2  and  N1_3 
REMARK    2  A    between atoms: C4_5  and  C5_6 
REMARK    3  A    between atoms: C6_7  and  N2_8 
REMARK    4  A    between atoms: C6_7  and  C17_23 
REMARK       I    between atoms: N2_8  and  C7_9 
REMARK    5  A    between atoms: C7_9  and  C8_11 
REMARK    6  A    between atoms: C10_13  and  O2_14 
REMARK    7  A    between atoms: C12_16  and  O3_17 
REMARK    8  A    between atoms: C14_19  and  O4_20 
REMARK       I    between atoms: C17_23  and  N3_25 
REMARK    9  A    between atoms: N3_25  and  C18_26 
REMARK   10  A    between atoms: C18_26  and  C19_27 
REMARK   11  A    between atoms: C19_27  and  C20_28 
REMARK   12  A    between atoms: C20_28  and  O6_29 
ROOT
ATOM      1  C5  NON d   1     -41.413  19.015  -6.259  0.00  0.00     0.049 C 
ATOM      2  C6  NON d   1     -41.931  19.287  -5.036  0.00  0.00     0.104 C 
ENDROOT
BRANCH   2   3
ATOM      3  N2  NON d   1     -41.726  20.483  -4.348  0.00  0.00    -0.318 N 
ATOM      4  C7  NON d   1     -40.543  21.211  -4.218  0.00  0.00     0.256 C 
ATOM      5  O1  NON d   1     -39.446  20.823  -4.605  0.00  0.00    -0.267 OA
ATOM      6  H8  NON d   1     -42.555  20.881  -3.948  0.00  0.00     0.169 HD
BRANCH   4   7
ATOM      7  C8  NON d   1     -40.617  22.535  -3.478  0.00  0.00     0.037 A 
ATOM      8  C9  NON d   1     -41.042  23.708  -4.109  0.00  0.00     0.057 A 
ATOM      9  C10 NON d   1     -41.119  24.933  -3.415  0.00  0.00     0.105 A 
ATOM     10  C12 NON d   1     -40.793  25.040  -2.042  0.00  0.00     0.135 A 
ATOM     11  C14 NON d   1     -40.431  23.778  -1.334  0.00  0.00     0.105 A 
ATOM     12  C16 NON d   1     -40.345  22.577  -2.091  0.00  0.00     0.057 A 
BRANCH   9  13
ATOM     13  O2  NON d   1     -41.693  25.990  -4.087  0.00  0.00    -0.353 OA
ATOM     14  C11 NON d   1     -40.744  26.994  -4.438  0.00  0.00     0.210 C 
ENDBRANCH   9  13
BRANCH  10  15
ATOM     15  O3  NON d   1     -40.822  26.307  -1.433  0.00  0.00    -0.351 OA
ATOM     16  C13 NON d   1     -41.359  26.576  -0.015  0.00  0.00     0.210 C 
ENDBRANCH  10  15
BRANCH  11  17
ATOM     17  O4  NON d   1     -40.191  23.685   0.053  0.00  0.00    -0.353 OA
ATOM     18  C15 NON d   1     -40.674  22.526   0.945  0.00  0.00     0.210 C 
ENDBRANCH  11  17
ENDBRANCH   4   7
ENDBRANCH   2   3
BRANCH   2  19
ATOM     19  C17 NON d   1     -42.556  18.094  -4.318  0.00  0.00     0.268 C 
ATOM     20  O5  NON d   1     -41.846  17.312  -3.690  0.00  0.00    -0.266 OA
ATOM     21  N3  NON d   1     -43.924  17.904  -4.491  0.00  0.00    -0.356 N 
ATOM     22  H20 NON d   1     -44.462  18.652  -4.907  0.00  0.00     0.162 HD
BRANCH  21  23
ATOM     23  C18 NON d   1     -44.632  16.880  -3.732  0.00  0.00     0.125 C 
BRANCH  23  24
ATOM     24  C19 NON d   1     -46.105  16.690  -4.105  0.00  0.00     0.046 C 
BRANCH  24  25
ATOM     25  C20 NON d   1     -46.374  16.679  -5.603  0.00  0.00     0.165 C 
BRANCH  25  26
ATOM     26  O6  NON d   1     -46.828  15.380  -5.978  0.00  0.00    -0.401 OA
ATOM     27  H27 NON d   1     -46.998  15.396  -6.935  0.00  0.00     0.209 HD
ENDBRANCH  25  26
ENDBRANCH  24  25
ENDBRANCH  23  24
ENDBRANCH  21  23
ENDBRANCH   2  19
BRANCH   1  28
ATOM     28  C4  NON d   1     -40.684  19.816  -7.210  0.00  0.00    -0.006 A 
ATOM     29  C3  NON d   1     -41.047  21.015  -7.770  0.00  0.00     0.103 A 
ATOM     30  N1  NON d   1     -40.010  21.496  -8.551  0.00  0.00    -0.356 N 
ATOM     31  C26 NON d   1     -38.998  20.563  -8.599  0.00  0.00     0.045 A 
ATOM     32  C25 NON d   1     -37.762  20.534  -9.276  0.00  0.00     0.030 A 
ATOM     33  C21 NON d   1     -39.395  19.493  -7.773  0.00  0.00     0.002 A 
ATOM     34  C24 NON d   1     -36.930  19.420  -9.137  0.00  0.00     0.002 A 
ATOM     35  C23 NON d   1     -37.306  18.352  -8.339  0.00  0.00     0.001 A 
ATOM     36  C22 NON d   1     -38.524  18.380  -7.653  0.00  0.00     0.014 A 
BRANCH  30  37
ATOM     37  C2  NON d   1     -40.110  22.830  -9.123  0.00  0.00     0.124 C 
ATOM     38  C1  NON d   1     -39.938  24.053  -8.244  0.00  0.00     0.027 C 
ENDBRANCH  30  37
ENDBRANCH   1  28
TORSDOF 12
ENDMDL
MODEL 2
REMARK VINA RESULT:   -10.910      2.912      6.467
REMARK INTER + INTRA:         -16.338
REMARK INTER:                 -14.490
REMARK INTRA:                  -1.848
REMARK CONF_INDEPENDENT:        3.580
REMARK UNBOUND:                -1.848
REMARK  12 active torsions:
REMARK  status: ('A' for Active; 'I' for Inactive)
REMARK    1  A    between atoms: C2_2  and  N1_3 
REMARK    2  A    between atoms: C4_5  and  C5_6 
REMARK    3  A    between atoms: C6_7  and  N2_8 
REMARK    4  A    between atoms: C6_7  and  C17_23 
REMARK       I    between atoms: N2_8  and  C7_9 
REMARK    5  A    between atoms: C7_9  and  C8_11 
REMARK    6  A    between atoms: C10_13  and  O2_14 
REMARK    7  A    between atoms: C12_16  and  O3_17 
REMARK    8  A    between atoms: C14_19  and  O4_20 
REMARK       I    between atoms: C17_23  and  N3_25 
REMARK    9  A    between atoms: N3_25  and  C18_26 
REMARK   10  A    between atoms: C18_26  and  C19_27 
REMARK   11  A    between atoms: C19_27  and  C20_28 
REMARK   12  A    between atoms: C20_28  and  O6_29 
ROOT
ATOM      1  C5  NON d   1     -41.305  18.550  -3.288  0.00  0.00     0.049 C 
ATOM      2  C6  NON d   1     -41.558  18.106  -4.543  0.00  0.00     0.104 C 
ENDROOT
BRANCH   2   3
ATOM      3  N2  NON d   1     -40.847  18.510  -5.674  0.00  0.00    -0.318 N 
ATOM      4  C7  NON d   1     -40.749  19.790  -6.219  0.00  0.00     0.256 C 
ATOM      5  O1  NON d   1     -41.398  20.757  -5.833  0.00  0.00    -0.267 OA
ATOM      6  H8  NON d   1     -40.302  17.786  -6.104  0.00  0.00     0.169 HD
BRANCH   4   7
ATOM      7  C8  NON d   1     -39.834  19.970  -7.416  0.00  0.00     0.037 A 
ATOM      8  C9  NON d   1     -40.042  20.987  -8.355  0.00  0.00     0.057 A 
ATOM      9  C10 NON d   1     -39.183  21.157  -9.460  0.00  0.00     0.105 A 
ATOM     10  C12 NON d   1     -38.056  20.328  -9.670  0.00  0.00     0.135 A 
ATOM     11  C14 NON d   1     -37.768  19.303  -8.625  0.00  0.00     0.105 A 
ATOM     12  C16 NON d   1     -38.683  19.159  -7.546  0.00  0.00     0.057 A 
BRANCH   9  13
ATOM     13  O2  NON d   1     -39.388  22.277 -10.236  0.00  0.00    -0.353 OA
ATOM     14  C11 NON d   1     -39.833  23.396  -9.472  0.00  0.00     0.210 C 
ENDBRANCH   9  13
BRANCH  10  15
ATOM     15  O3  NON d   1     -37.286  20.509 -10.833  0.00  0.00    -0.351 OA
ATOM     16  C13 NON d   1     -36.259  21.640 -11.026  0.00  0.00     0.210 C 
ENDBRANCH  10  15
BRANCH  11  17
ATOM     17  O4  NON d   1     -36.626  18.474  -8.618  0.00  0.00    -0.353 OA
ATOM     18  C15 NON d   1     -36.190  17.602  -7.425  0.00  0.00     0.210 C 
ENDBRANCH  11  17
ENDBRANCH   4   7
ENDBRANCH   2   3
BRANCH   2  19
ATOM     19  C17 NON d   1     -42.853  17.314  -4.703  0.00  0.00     0.268 C 
ATOM     20  O5  NON d   1     -42.926  16.415  -5.537  0.00  0.00    -0.266 OA
ATOM     21  N3  NON d   1     -43.937  17.723  -3.933  0.00  0.00    -0.356 N 
ATOM     22  H20 NON d   1     -43.770  18.377  -3.181  0.00  0.00     0.162 HD
BRANCH  21  23
ATOM     23  C18 NON d   1     -45.169  16.941  -3.911  0.00  0.00     0.125 C 
BRANCH  23  24
ATOM     24  C19 NON d   1     -45.929  16.881  -5.238  0.00  0.00     0.046 C 
BRANCH  24  25
ATOM     25  C20 NON d   1     -47.205  16.051  -5.192  0.00  0.00     0.165 C 
BRANCH  25  26
ATOM     26  O6  NON d   1     -47.117  15.020  -6.172  0.00  0.00    -0.401 OA
ATOM     27  H27 NON d   1     -46.909  15.444  -7.023  0.00  0.00     0.209 HD
ENDBRANCH  25  26
ENDBRANCH  24  25
ENDBRANCH  23  24
ENDBRANCH  21  23
ENDBRANCH   2  19
BRANCH   1  28
ATOM     28  C4  NON d   1     -40.263  19.379  -2.737  0.00  0.00    -0.006 A 
ATOM     29  C3  NON d   1     -40.319  20.708  -2.402  0.00  0.00     0.103 A 
ATOM     30  N1  NON d   1     -39.130  21.087  -1.805  0.00  0.00    -0.356 N 
ATOM     31  C26 NON d   1     -38.239  20.036  -1.840  0.00  0.00     0.045 A 
ATOM     32  C25 NON d   1     -36.901  19.907  -1.417  0.00  0.00     0.030 A 
ATOM     33  C21 NON d   1     -38.920  18.951  -2.426  0.00  0.00     0.002 A 
ATOM     34  C24 NON d   1     -36.238  18.691  -1.599  0.00  0.00     0.002 A 
ATOM     35  C23 NON d   1     -36.885  17.614  -2.184  0.00  0.00     0.001 A 
ATOM     36  C22 NON d   1     -38.217  17.730  -2.593  0.00  0.00     0.014 A 
BRANCH  30  37
ATOM     37  C2  NON d   1     -39.015  22.418  -1.227  0.00  0.00     0.124 C 
ATOM     38  C1  NON d   1     -40.255  23.161  -0.770  0.00  0.00     0.027 C 
ENDBRANCH  30  37
ENDBRANCH   1  28
TORSDOF 12
ENDMDL
MODEL 3
REMARK VINA RESULT:   -10.693      3.007      6.562
REMARK INTER + INTRA:         -16.086
REMARK INTER:                 -14.273
REMARK INTRA:                  -1.813
REMARK CONF_INDEPENDENT:        3.580
REMARK UNBOUND:                -1.813
REMARK  12 active torsions:
REMARK  status: ('A' for Active; 'I' for Inactive)
REMARK    1  A    between atoms: C2_2  and  N1_3 
REMARK    2  A    between atoms: C4_5  and  C5_6 
REMARK    3  A    between atoms: C6_7  and  N2_8 
REMARK    4  A    between atoms: C6_7  and  C17_23 
REMARK       I    between atoms: N2_8  and  C7_9 
REMARK    5  A    between atoms: C7_9  and  C8_11 
REMARK    6  A    between atoms: C10_13  and  O2_14 
REMARK    7  A    between atoms: C12_16  and  O3_17 
REMARK    8  A    between atoms: C14_19  and  O4_20 
REMARK       I    between atoms: C17_23  and  N3_25 
REMARK    9  A    between atoms: N3_25  and  C18_26 
REMARK   10  A    between atoms: C18_26  and  C19_27 
REMARK   11  A    between atoms: C19_27  and  C20_28 
REMARK   12  A    between atoms: C20_28  and  O6_29 
ROOT
ATOM      1  C5  NON d   1     -41.376  18.401  -3.266  0.00  0.00     0.049 C 
ATOM      2  C6  NON d   1     -41.961  18.523  -4.482  0.00  0.00     0.104 C 
ENDROOT
BRANCH   2   3
ATOM      3  N2  NON d   1     -41.325  19.051  -5.607  0.00  0.00    -0.318 N 
ATOM      4  C7  NON d   1     -40.860  20.351  -5.804  0.00  0.00     0.256 C 
ATOM      5  O1  NON d   1     -41.063  21.282  -5.030  0.00  0.00    -0.267 OA
ATOM      6  H8  NON d   1     -41.140  18.383  -6.332  0.00  0.00     0.169 HD
BRANCH   4   7
ATOM      7  C8  NON d   1     -40.124  20.640  -7.099  0.00  0.00     0.037 A 
ATOM      8  C9  NON d   1     -40.445  21.744  -7.897  0.00  0.00     0.057 A 
ATOM      9  C10 NON d   1     -39.751  22.014  -9.095  0.00  0.00     0.105 A 
ATOM     10  C12 NON d   1     -38.683  21.202  -9.544  0.00  0.00     0.135 A 
ATOM     11  C14 NON d   1     -38.269  20.078  -8.654  0.00  0.00     0.105 A 
ATOM     12  C16 NON d   1     -39.021  19.837  -7.472  0.00  0.00     0.057 A 
BRANCH   9  13
ATOM     13  O2  NON d   1     -40.042  23.205  -9.723  0.00  0.00    -0.353 OA
ATOM     14  C11 NON d   1     -39.228  24.279  -9.259  0.00  0.00     0.210 C 
ENDBRANCH   9  13
BRANCH  10  15
ATOM     15  O3  NON d   1     -38.086  21.489 -10.785  0.00  0.00    -0.351 OA
ATOM     16  C13 NON d   1     -38.872  21.790 -12.075  0.00  0.00     0.210 C 
ENDBRANCH  10  15
BRANCH  11  17
ATOM     17  O4  NON d   1     -37.155  19.245  -8.892  0.00  0.00    -0.353 OA
ATOM     18  C15 NON d   1     -36.774  18.032  -8.022  0.00  0.00     0.210 C 
ENDBRANCH  11  17
ENDBRANCH   4   7
ENDBRANCH   2   3
BRANCH   2  19
ATOM     19  C17 NON d   1     -43.468  18.284  -4.504  0.00  0.00     0.268 C 
ATOM     20  O5  NON d   1     -44.180  18.913  -5.283  0.00  0.00    -0.266 OA
ATOM     21  N3  NON d   1     -43.979  17.406  -3.553  0.00  0.00    -0.356 N 
ATOM     22  H20 NON d   1     -43.328  16.831  -3.035  0.00  0.00     0.162 HD
BRANCH  21  23
ATOM     23  C18 NON d   1     -45.381  17.007  -3.588  0.00  0.00     0.125 C 
BRANCH  23  24
ATOM     24  C19 NON d   1     -45.987  16.867  -4.986  0.00  0.00     0.046 C 
BRANCH  24  25
ATOM     25  C20 NON d   1     -47.141  15.878  -5.072  0.00  0.00     0.165 C 
BRANCH  25  26
ATOM     26  O6  NON d   1     -46.923  15.015  -6.186  0.00  0.00    -0.401 OA
ATOM     27  H27 NON d   1     -47.473  15.342  -6.919  0.00  0.00     0.209 HD
ENDBRANCH  25  26
ENDBRANCH  24  25
ENDBRANCH  23  24
ENDBRANCH  21  23
ENDBRANCH   2  19
BRANCH   1  28
ATOM     28  C4  NON d   1     -40.027  18.614  -2.805  0.00  0.00    -0.006 A 
ATOM     29  C3  NON d   1     -39.037  17.685  -2.610  0.00  0.00     0.103 A 
ATOM     30  N1  NON d   1     -37.860  18.326  -2.264  0.00  0.00    -0.356 N 
ATOM     31  C26 NON d   1     -38.094  19.676  -2.121  0.00  0.00     0.045 A 
ATOM     32  C25 NON d   1     -37.265  20.752  -1.745  0.00  0.00     0.030 A 
ATOM     33  C21 NON d   1     -39.449  19.887  -2.448  0.00  0.00     0.002 A 
ATOM     34  C24 NON d   1     -37.801  22.040  -1.678  0.00  0.00     0.002 A 
ATOM     35  C23 NON d   1     -39.134  22.268  -1.983  0.00  0.00     0.001 A 
ATOM     36  C22 NON d   1     -39.958  21.208  -2.372  0.00  0.00     0.014 A 
BRANCH  30  37
ATOM     37  C2  NON d   1     -36.633  17.552  -2.156  0.00  0.00     0.124 C 
ATOM     38  C1  NON d   1     -36.266  16.879  -0.848  0.00  0.00     0.027 C 
ENDBRANCH  30  37
ENDBRANCH   1  28
TORSDOF 12
ENDMDL
MODEL 4
REMARK VINA RESULT:   -10.514      2.813      6.590
REMARK INTER + INTRA:         -16.703
REMARK INTER:                 -14.093
REMARK INTRA:                  -2.610
REMARK CONF_INDEPENDENT:        3.580
REMARK UNBOUND:                -2.610
REMARK  12 active torsions:
REMARK  status: ('A' for Active; 'I' for Inactive)
REMARK    1  A    between atoms: C2_2  and  N1_3 
REMARK    2  A    between atoms: C4_5  and  C5_6 
REMARK    3  A    between atoms: C6_7  and  N2_8 
REMARK    4  A    between atoms: C6_7  and  C17_23 
REMARK       I    between atoms: N2_8  and  C7_9 
REMARK    5  A    between atoms: C7_9  and  C8_11 
REMARK    6  A    between atoms: C10_13  and  O2_14 
REMARK    7  A    between atoms: C12_16  and  O3_17 
REMARK    8  A    between atoms: C14_19  and  O4_20 
REMARK       I    between atoms: C17_23  and  N3_25 
REMARK    9  A    between atoms: N3_25  and  C18_26 
REMARK   10  A    between atoms: C18_26  and  C19_27 
REMARK   11  A    between atoms: C19_27  and  C20_28 
REMARK   12  A    between atoms: C20_28  and  O6_29 
ROOT
ATOM      1  C5  NON d   1     -41.073  19.377  -2.681  0.00  0.00     0.049 C 
ATOM      2  C6  NON d   1     -41.213  18.669  -3.828  0.00  0.00     0.104 C 
ENDROOT
BRANCH   2   3
ATOM      3  N2  NON d   1     -40.621  19.021  -5.042  0.00  0.00    -0.318 N 
ATOM      4  C7  NON d   1     -41.226  19.590  -6.163  0.00  0.00     0.256 C 
ATOM      5  O1  NON d   1     -42.435  19.754  -6.287  0.00  0.00    -0.267 OA
ATOM      6  H8  NON d   1     -39.627  18.891  -5.073  0.00  0.00     0.169 HD
BRANCH   4   7
ATOM      7  C8  NON d   1     -40.327  19.953  -7.331  0.00  0.00     0.037 A 
ATOM      8  C9  NON d   1     -40.559  21.090  -8.112  0.00  0.00     0.057 A 
ATOM      9  C10 NON d   1     -39.716  21.429  -9.191  0.00  0.00     0.105 A 
ATOM     10  C12 NON d   1     -38.580  20.655  -9.527  0.00  0.00     0.135 A 
ATOM     11  C14 NON d   1     -38.267  19.495  -8.643  0.00  0.00     0.105 A 
ATOM     12  C16 NON d   1     -39.167  19.185  -7.587  0.00  0.00     0.057 A 
BRANCH   9  13
ATOM     13  O2  NON d   1     -39.944  22.646  -9.796  0.00  0.00    -0.353 OA
ATOM     14  C11 NON d   1     -39.884  23.732  -8.875  0.00  0.00     0.210 C 
ENDBRANCH   9  13
BRANCH  10  15
ATOM     15  O3  NON d   1     -37.827  21.011 -10.660  0.00  0.00    -0.351 OA
ATOM     16  C13 NON d   1     -36.371  20.573 -10.906  0.00  0.00     0.210 C 
ENDBRANCH  10  15
BRANCH  11  17
ATOM     17  O4  NON d   1     -37.114  18.690  -8.766  0.00  0.00    -0.353 OA
ATOM     18  C15 NON d   1     -36.511  17.854  -7.622  0.00  0.00     0.210 C 
ENDBRANCH  11  17
ENDBRANCH   4   7
ENDBRANCH   2   3
BRANCH   2  19
ATOM     19  C17 NON d   1     -42.280  17.578  -3.791  0.00  0.00     0.268 C 
ATOM     20  O5  NON d   1     -42.162  16.628  -3.022  0.00  0.00    -0.266 OA
ATOM     21  N3  NON d   1     -43.312  17.678  -4.720  0.00  0.00    -0.356 N 
ATOM     22  H20 NON d   1     -43.415  18.545  -5.229  0.00  0.00     0.162 HD
BRANCH  21  23
ATOM     23  C18 NON d   1     -44.448  16.766  -4.667  0.00  0.00     0.125 C 
BRANCH  23  24
ATOM     24  C19 NON d   1     -45.712  17.253  -5.381  0.00  0.00     0.046 C 
BRANCH  24  25
ATOM     25  C20 NON d   1     -46.935  16.375  -5.157  0.00  0.00     0.165 C 
BRANCH  25  26
ATOM     26  O6  NON d   1     -46.969  15.369  -6.167  0.00  0.00    -0.401 OA
ATOM     27  H27 NON d   1     -47.899  15.248  -6.426  0.00  0.00     0.209 HD
ENDBRANCH  25  26
ENDBRANCH  24  25
ENDBRANCH  23  24
ENDBRANCH  21  23
ENDBRANCH   2  19
BRANCH   1  28
ATOM     28  C4  NON d   1     -40.259  20.513  -2.327  0.00  0.00    -0.006 A 
ATOM     29  C3  NON d   1     -39.315  20.608  -1.336  0.00  0.00     0.103 A 
ATOM     30  N1  NON d   1     -38.690  21.841  -1.407  0.00  0.00    -0.356 N 
ATOM     31  C26 NON d   1     -39.295  22.610  -2.378  0.00  0.00     0.045 A 
ATOM     32  C25 NON d   1     -39.080  23.932  -2.815  0.00  0.00     0.030 A 
ATOM     33  C21 NON d   1     -40.289  21.805  -2.968  0.00  0.00     0.002 A 
ATOM     34  C24 NON d   1     -39.877  24.455  -3.837  0.00  0.00     0.002 A 
ATOM     35  C23 NON d   1     -40.869  23.685  -4.424  0.00  0.00     0.001 A 
ATOM     36  C22 NON d   1     -41.078  22.367  -4.004  0.00  0.00     0.014 A 
BRANCH  30  37
ATOM     37  C2  NON d   1     -37.546  22.109  -0.550  0.00  0.00     0.124 C 
ATOM     38  C1  NON d   1     -37.617  21.813   0.935  0.00  0.00     0.027 C 
ENDBRANCH  30  37
ENDBRANCH   1  28
TORSDOF 12
ENDMDL
MODEL 5
REMARK VINA RESULT:   -10.501      0.617      2.276
REMARK INTER + INTRA:         -16.428
REMARK INTER:                 -14.081
REMARK INTRA:                  -2.347
REMARK CONF_INDEPENDENT:        3.580
REMARK UNBOUND:                -2.347
REMARK  12 active torsions:
REMARK  status: ('A' for Active; 'I' for Inactive)
REMARK    1  A    between atoms: C2_2  and  N1_3 
REMARK    2  A    between atoms: C4_5  and  C5_6 
REMARK    3  A    between atoms: C6_7  and  N2_8 
REMARK    4  A    between atoms: C6_7  and  C17_23 
REMARK       I    between atoms: N2_8  and  C7_9 
REMARK    5  A    between atoms: C7_9  and  C8_11 
REMARK    6  A    between atoms: C10_13  and  O2_14 
REMARK    7  A    between atoms: C12_16  and  O3_17 
REMARK    8  A    between atoms: C14_19  and  O4_20 
REMARK       I    between atoms: C17_23  and  N3_25 
REMARK    9  A    between atoms: N3_25  and  C18_26 
REMARK   10  A    between atoms: C18_26  and  C19_27 
REMARK   11  A    between atoms: C19_27  and  C20_28 
REMARK   12  A    between atoms: C20_28  and  O6_29 
ROOT
ATOM      1  C5  NON d   1     -41.380  19.053  -6.193  0.00  0.00     0.049 C 
ATOM      2  C6  NON d   1     -41.932  19.373  -4.997  0.00  0.00     0.104 C 
ENDROOT
BRANCH   2   3
ATOM      3  N2  NON d   1     -41.775  20.610  -4.369  0.00  0.00    -0.318 N 
ATOM      4  C7  NON d   1     -40.615  21.374  -4.249  0.00  0.00     0.256 C 
ATOM      5  O1  NON d   1     -39.498  20.995  -4.589  0.00  0.00    -0.267 OA
ATOM      6  H8  NON d   1     -42.624  21.006  -4.012  0.00  0.00     0.169 HD
BRANCH   4   7
ATOM      7  C8  NON d   1     -40.740  22.733  -3.583  0.00  0.00     0.037 A 
ATOM      8  C9  NON d   1     -40.694  22.877  -2.192  0.00  0.00     0.057 A 
ATOM      9  C10 NON d   1     -40.801  24.142  -1.578  0.00  0.00     0.105 A 
ATOM     10  C12 NON d   1     -40.937  25.332  -2.330  0.00  0.00     0.135 A 
ATOM     11  C14 NON d   1     -40.891  25.202  -3.815  0.00  0.00     0.105 A 
ATOM     12  C16 NON d   1     -40.808  23.899  -4.379  0.00  0.00     0.057 A 
BRANCH   9  13
ATOM     13  O2  NON d   1     -40.590  24.188  -0.217  0.00  0.00    -0.353 OA
ATOM     14  C11 NON d   1     -40.653  22.900   0.389  0.00  0.00     0.210 C 
ENDBRANCH   9  13
BRANCH  10  15
ATOM     15  O3  NON d   1     -41.112  26.550  -1.648  0.00  0.00    -0.351 OA
ATOM     16  C13 NON d   1     -40.387  26.924  -0.342  0.00  0.00     0.210 C 
ENDBRANCH  10  15
BRANCH  11  17
ATOM     17  O4  NON d   1     -40.897  26.294  -4.710  0.00  0.00    -0.353 OA
ATOM     18  C15 NON d   1     -42.163  27.055  -5.145  0.00  0.00     0.210 C 
ENDBRANCH  11  17
ENDBRANCH   4   7
ENDBRANCH   2   3
BRANCH   2  19
ATOM     19  C17 NON d   1     -42.542  18.204  -4.230  0.00  0.00     0.268 C 
ATOM     20  O5  NON d   1     -41.866  17.582  -3.415  0.00  0.00    -0.266 OA
ATOM     21  N3  NON d   1     -43.842  17.839  -4.570  0.00  0.00    -0.356 N 
ATOM     22  H20 NON d   1     -44.379  18.470  -5.150  0.00  0.00     0.162 HD
BRANCH  21  23
ATOM     23  C18 NON d   1     -44.557  16.831  -3.797  0.00  0.00     0.125 C 
BRANCH  23  24
ATOM     24  C19 NON d   1     -46.083  16.877  -3.912  0.00  0.00     0.046 C 
BRANCH  24  25
ATOM     25  C20 NON d   1     -46.614  16.586  -5.309  0.00  0.00     0.165 C 
BRANCH  25  26
ATOM     26  O6  NON d   1     -46.198  17.632  -6.184  0.00  0.00    -0.401 OA
ATOM     27  H27 NON d   1     -46.809  17.638  -6.941  0.00  0.00     0.209 HD
ENDBRANCH  25  26
ENDBRANCH  24  25
ENDBRANCH  23  24
ENDBRANCH  21  23
ENDBRANCH   2  19
BRANCH   1  28
ATOM     28  C4  NON d   1     -40.650  19.823  -7.169  0.00  0.00    -0.006 A 
ATOM     29  C3  NON d   1     -41.015  21.000  -7.771  0.00  0.00     0.103 A 
ATOM     30  N1  NON d   1     -39.978  21.457  -8.565  0.00  0.00    -0.356 N 
ATOM     31  C26 NON d   1     -38.962  20.527  -8.577  0.00  0.00     0.045 A 
ATOM     32  C25 NON d   1     -37.723  20.478  -9.249  0.00  0.00     0.030 A 
ATOM     33  C21 NON d   1     -39.358  19.485  -7.715  0.00  0.00     0.002 A 
ATOM     34  C24 NON d   1     -36.888  19.373  -9.068  0.00  0.00     0.002 A 
ATOM     35  C23 NON d   1     -37.263  18.332  -8.234  0.00  0.00     0.001 A 
ATOM     36  C22 NON d   1     -38.484  18.380  -7.554  0.00  0.00     0.014 A 
BRANCH  30  37
ATOM     37  C2  NON d   1     -40.080  22.770  -9.183  0.00  0.00     0.124 C 
ATOM     38  C1  NON d   1     -39.780  24.019  -8.379  0.00  0.00     0.027 C 
ENDBRANCH  30  37
ENDBRANCH   1  28
TORSDOF 12
ENDMDL
MODEL 6
REMARK VINA RESULT:   -10.482      3.266      6.964
REMARK INTER + INTRA:         -16.025
REMARK INTER:                 -14.061
REMARK INTRA:                  -1.964
REMARK CONF_INDEPENDENT:        3.580
REMARK UNBOUND:                -1.964
REMARK  12 active torsions:
REMARK  status: ('A' for Active; 'I' for Inactive)
REMARK    1  A    between atoms: C2_2  and  N1_3 
REMARK    2  A    between atoms: C4_5  and  C5_6 
REMARK    3  A    between atoms: C6_7  and  N2_8 
REMARK    4  A    between atoms: C6_7  and  C17_23 
REMARK       I    between atoms: N2_8  and  C7_9 
REMARK    5  A    between atoms: C7_9  and  C8_11 
REMARK    6  A    between atoms: C10_13  and  O2_14 
REMARK    7  A    between atoms: C12_16  and  O3_17 
REMARK    8  A    between atoms: C14_19  and  O4_20 
REMARK       I    between atoms: C17_23  and  N3_25 
REMARK    9  A    between atoms: N3_25  and  C18_26 
REMARK   10  A    between atoms: C18_26  and  C19_27 
REMARK   11  A    between atoms: C19_27  and  C20_28 
REMARK   12  A    between atoms: C20_28  and  O6_29 
ROOT
ATOM      1  C5  NON d   1     -41.033  18.143  -3.170  0.00  0.00     0.049 C 
ATOM      2  C6  NON d   1     -41.598  18.295  -4.393  0.00  0.00     0.104 C 
ENDROOT
BRANCH   2   3
ATOM      3  N2  NON d   1     -40.909  18.733  -5.525  0.00  0.00    -0.318 N 
ATOM      4  C7  NON d   1     -40.677  20.044  -5.939  0.00  0.00     0.256 C 
ATOM      5  O1  NON d   1     -41.171  21.035  -5.409  0.00  0.00    -0.267 OA
ATOM      6  H8  NON d   1     -40.490  18.000  -6.066  0.00  0.00     0.169 HD
BRANCH   4   7
ATOM      7  C8  NON d   1     -39.819  20.243  -7.175  0.00  0.00     0.037 A 
ATOM      8  C9  NON d   1     -38.720  19.422  -7.448  0.00  0.00     0.057 A 
ATOM      9  C10 NON d   1     -37.932  19.604  -8.603  0.00  0.00     0.105 A 
ATOM     10  C12 NON d   1     -38.219  20.608  -9.558  0.00  0.00     0.135 A 
ATOM     11  C14 NON d   1     -39.445  21.428  -9.328  0.00  0.00     0.105 A 
ATOM     12  C16 NON d   1     -40.186  21.217  -8.132  0.00  0.00     0.057 A 
BRANCH   9  13
ATOM     13  O2  NON d   1     -36.970  18.649  -8.854  0.00  0.00    -0.353 OA
ATOM     14  C11 NON d   1     -36.529  17.995  -7.666  0.00  0.00     0.210 C 
ENDBRANCH   9  13
BRANCH  10  15
ATOM     15  O3  NON d   1     -37.347  20.780 -10.648  0.00  0.00    -0.351 OA
ATOM     16  C13 NON d   1     -36.801  22.142 -11.115  0.00  0.00     0.210 C 
ENDBRANCH  10  15
BRANCH  11  17
ATOM     17  O4  NON d   1     -39.940  22.389 -10.234  0.00  0.00    -0.353 OA
ATOM     18  C15 NON d   1     -39.673  23.903 -10.130  0.00  0.00     0.210 C 
ENDBRANCH  11  17
ENDBRANCH   4   7
ENDBRANCH   2   3
BRANCH   2  19
ATOM     19  C17 NON d   1     -43.122  18.205  -4.419  0.00  0.00     0.268 C 
ATOM     20  O5  NON d   1     -43.776  19.022  -5.062  0.00  0.00    -0.266 OA
ATOM     21  N3  NON d   1     -43.706  17.226  -3.620  0.00  0.00    -0.356 N 
ATOM     22  H20 NON d   1     -43.109  16.513  -3.224  0.00  0.00     0.162 HD
BRANCH  21  23
ATOM     23  C18 NON d   1     -45.140  16.971  -3.689  0.00  0.00     0.125 C 
BRANCH  23  24
ATOM     24  C19 NON d   1     -45.681  16.649  -5.084  0.00  0.00     0.046 C 
BRANCH  24  25
ATOM     25  C20 NON d   1     -47.162  16.295  -5.115  0.00  0.00     0.165 C 
BRANCH  25  26
ATOM     26  O6  NON d   1     -47.392  15.380  -6.183  0.00  0.00    -0.401 OA
ATOM     27  H27 NON d   1     -47.778  15.884  -6.920  0.00  0.00     0.209 HD
ENDBRANCH  25  26
ENDBRANCH  24  25
ENDBRANCH  23  24
ENDBRANCH  21  23
ENDBRANCH   2  19
BRANCH   1  28
ATOM     28  C4  NON d   1     -39.672  18.234  -2.706  0.00  0.00    -0.006 A 
ATOM     29  C3  NON d   1     -38.901  17.255  -2.130  0.00  0.00     0.103 A 
ATOM     30  N1  NON d   1     -37.617  17.731  -1.932  0.00  0.00    -0.356 N 
ATOM     31  C26 NON d   1     -37.561  19.064  -2.276  0.00  0.00     0.045 A 
ATOM     32  C25 NON d   1     -36.524  20.018  -2.224  0.00  0.00     0.030 A 
ATOM     33  C21 NON d   1     -38.838  19.410  -2.759  0.00  0.00     0.002 A 
ATOM     34  C24 NON d   1     -36.775  21.328  -2.641  0.00  0.00     0.002 A 
ATOM     35  C23 NON d   1     -38.028  21.692  -3.109  0.00  0.00     0.001 A 
ATOM     36  C22 NON d   1     -39.057  20.748  -3.177  0.00  0.00     0.014 A 
BRANCH  30  37
ATOM     37  C2  NON d   1     -36.582  16.818  -1.472  0.00  0.00     0.124 C 
ATOM     38  C1  NON d   1     -36.950  15.599  -0.649  0.00  0.00     0.027 C 
ENDBRANCH  30  37
ENDBRANCH   1  28
TORSDOF 12
ENDMDL
MODEL 7
REMARK VINA RESULT:   -10.433      2.899      6.825
REMARK INTER + INTRA:         -16.637
REMARK INTER:                 -14.013
REMARK INTRA:                  -2.624
REMARK CONF_INDEPENDENT:        3.580
REMARK UNBOUND:                -2.624
REMARK  12 active torsions:
REMARK  status: ('A' for Active; 'I' for Inactive)
REMARK    1  A    between atoms: C2_2  and  N1_3 
REMARK    2  A    between atoms: C4_5  and  C5_6 
REMARK    3  A    between atoms: C6_7  and  N2_8 
REMARK    4  A    between atoms: C6_7  and  C17_23 
REMARK       I    between atoms: N2_8  and  C7_9 
REMARK    5  A    between atoms: C7_9  and  C8_11 
REMARK    6  A    between atoms: C10_13  and  O2_14 
REMARK    7  A    between atoms: C12_16  and  O3_17 
REMARK    8  A    between atoms: C14_19  and  O4_20 
REMARK       I    between atoms: C17_23  and  N3_25 
REMARK    9  A    between atoms: N3_25  and  C18_26 
REMARK   10  A    between atoms: C18_26  and  C19_27 
REMARK   11  A    between atoms: C19_27  and  C20_28 
REMARK   12  A    between atoms: C20_28  and  O6_29 
ROOT
ATOM      1  C5  NON d   1     -41.059  19.380  -2.627  0.00  0.00     0.049 C 
ATOM      2  C6  NON d   1     -41.128  18.662  -3.774  0.00  0.00     0.104 C 
ENDROOT
BRANCH   2   3
ATOM      3  N2  NON d   1     -40.455  18.999  -4.950  0.00  0.00    -0.318 N 
ATOM      4  C7  NON d   1     -40.990  19.510  -6.132  0.00  0.00     0.256 C 
ATOM      5  O1  NON d   1     -42.191  19.627  -6.354  0.00  0.00    -0.267 OA
ATOM      6  H8  NON d   1     -39.458  18.904  -4.900  0.00  0.00     0.169 HD
BRANCH   4   7
ATOM      7  C8  NON d   1     -40.016  19.871  -7.239  0.00  0.00     0.037 A 
ATOM      8  C9  NON d   1     -38.945  19.036  -7.577  0.00  0.00     0.057 A 
ATOM      9  C10 NON d   1     -38.048  19.371  -8.613  0.00  0.00     0.105 A 
ATOM     10  C12 NON d   1     -38.194  20.550  -9.381  0.00  0.00     0.135 A 
ATOM     11  C14 NON d   1     -39.387  21.399  -9.095  0.00  0.00     0.105 A 
ATOM     12  C16 NON d   1     -40.242  21.027  -8.021  0.00  0.00     0.057 A 
BRANCH   9  13
ATOM     13  O2  NON d   1     -37.124  18.411  -8.964  0.00  0.00    -0.353 OA
ATOM     14  C11 NON d   1     -36.314  18.004  -7.863  0.00  0.00     0.210 C 
ENDBRANCH   9  13
BRANCH  10  15
ATOM     15  O3  NON d   1     -37.220  20.855 -10.349  0.00  0.00    -0.351 OA
ATOM     16  C13 NON d   1     -37.537  21.388 -11.759  0.00  0.00     0.210 C 
ENDBRANCH  10  15
BRANCH  11  17
ATOM     17  O4  NON d   1     -39.745  22.543  -9.839  0.00  0.00    -0.353 OA
ATOM     18  C15 NON d   1     -40.158  23.891  -9.219  0.00  0.00     0.210 C 
ENDBRANCH  11  17
ENDBRANCH   4   7
ENDBRANCH   2   3
BRANCH   2  19
ATOM     19  C17 NON d   1     -42.203  17.578  -3.797  0.00  0.00     0.268 C 
ATOM     20  O5  NON d   1     -42.079  16.574  -3.101  0.00  0.00    -0.266 OA
ATOM     21  N3  NON d   1     -43.250  17.752  -4.698  0.00  0.00    -0.356 N 
ATOM     22  H20 NON d   1     -43.355  18.655  -5.140  0.00  0.00     0.162 HD
BRANCH  21  23
ATOM     23  C18 NON d   1     -44.392  16.846  -4.691  0.00  0.00     0.125 C 
BRANCH  23  24
ATOM     24  C19 NON d   1     -45.657  17.383  -5.366  0.00  0.00     0.046 C 
BRANCH  24  25
ATOM     25  C20 NON d   1     -46.861  16.456  -5.266  0.00  0.00     0.165 C 
BRANCH  25  26
ATOM     26  O6  NON d   1     -46.688  15.380  -6.185  0.00  0.00    -0.401 OA
ATOM     27  H27 NON d   1     -47.383  15.461  -6.862  0.00  0.00     0.209 HD
ENDBRANCH  25  26
ENDBRANCH  24  25
ENDBRANCH  23  24
ENDBRANCH  21  23
ENDBRANCH   2  19
BRANCH   1  28
ATOM     28  C4  NON d   1     -40.261  20.513  -2.231  0.00  0.00    -0.006 A 
ATOM     29  C3  NON d   1     -39.668  20.756  -1.017  0.00  0.00     0.103 A 
ATOM     30  N1  NON d   1     -38.906  21.907  -1.094  0.00  0.00    -0.356 N 
ATOM     31  C26 NON d   1     -39.077  22.493  -2.330  0.00  0.00     0.045 A 
ATOM     32  C25 NON d   1     -38.574  23.680  -2.898  0.00  0.00     0.030 A 
ATOM     33  C21 NON d   1     -39.929  21.644  -3.063  0.00  0.00     0.002 A 
ATOM     34  C24 NON d   1     -38.942  24.026  -4.201  0.00  0.00     0.002 A 
ATOM     35  C23 NON d   1     -39.788  23.212  -4.936  0.00  0.00     0.001 A 
ATOM     36  C22 NON d   1     -40.280  22.025  -4.384  0.00  0.00     0.014 A 
BRANCH  30  37
ATOM     37  C2  NON d   1     -38.061  22.278   0.031  0.00  0.00     0.124 C 
ATOM     38  C1  NON d   1     -38.681  22.813   1.307  0.00  0.00     0.027 C 
ENDBRANCH  30  37
ENDBRANCH   1  28
TORSDOF 12
ENDMDL
MODEL 8
REMARK VINA RESULT:   -10.179      3.124      6.833
REMARK INTER + INTRA:         -16.044
REMARK INTER:                 -13.758
REMARK INTRA:                  -2.286
REMARK CONF_INDEPENDENT:        3.580
REMARK UNBOUND:                -2.286
REMARK  12 active torsions:
REMARK  status: ('A' for Active; 'I' for Inactive)
REMARK    1  A    between atoms: C2_2  and  N1_3 
REMARK    2  A    between atoms: C4_5  and  C5_6 
REMARK    3  A    between atoms: C6_7  and  N2_8 
REMARK    4  A    between atoms: C6_7  and  C17_23 
REMARK       I    between atoms: N2_8  and  C7_9 
REMARK    5  A    between atoms: C7_9  and  C8_11 
REMARK    6  A    between atoms: C10_13  and  O2_14 
REMARK    7  A    between atoms: C12_16  and  O3_17 
REMARK    8  A    between atoms: C14_19  and  O4_20 
REMARK       I    between atoms: C17_23  and  N3_25 
REMARK    9  A    between atoms: N3_25  and  C18_26 
REMARK   10  A    between atoms: C18_26  and  C19_27 
REMARK   11  A    between atoms: C19_27  and  C20_28 
REMARK   12  A    between atoms: C20_28  and  O6_29 
ROOT
ATOM      1  C5  NON d   1     -40.559  19.521  -2.449  0.00  0.00     0.049 C 
ATOM      2  C6  NON d   1     -40.894  18.891  -3.602  0.00  0.00     0.104 C 
ENDROOT
BRANCH   2   3
ATOM      3  N2  NON d   1     -40.345  19.196  -4.848  0.00  0.00    -0.318 N 
ATOM      4  C7  NON d   1     -41.009  19.598  -6.007  0.00  0.00     0.256 C 
ATOM      5  O1  NON d   1     -42.230  19.624  -6.131  0.00  0.00    -0.267 OA
ATOM      6  H8  NON d   1     -39.343  19.169  -4.880  0.00  0.00     0.169 HD
BRANCH   4   7
ATOM      7  C8  NON d   1     -40.156  19.950  -7.213  0.00  0.00     0.037 A 
ATOM      8  C9  NON d   1     -40.393  21.102  -7.970  0.00  0.00     0.057 A 
ATOM      9  C10 NON d   1     -39.592  21.430  -9.084  0.00  0.00     0.105 A 
ATOM     10  C12 NON d   1     -38.496  20.629  -9.482  0.00  0.00     0.135 A 
ATOM     11  C14 NON d   1     -38.174  19.451  -8.625  0.00  0.00     0.105 A 
ATOM     12  C16 NON d   1     -39.032  19.154  -7.531  0.00  0.00     0.057 A 
BRANCH   9  13
ATOM     13  O2  NON d   1     -39.814  22.660  -9.665  0.00  0.00    -0.353 OA
ATOM     14  C11 NON d   1     -40.315  23.619  -8.737  0.00  0.00     0.210 C 
ENDBRANCH   9  13
BRANCH  10  15
ATOM     15  O3  NON d   1     -37.786  20.978 -10.645  0.00  0.00    -0.351 OA
ATOM     16  C13 NON d   1     -36.298  21.372 -10.668  0.00  0.00     0.210 C 
ENDBRANCH  10  15
BRANCH  11  17
ATOM     17  O4  NON d   1     -37.051  18.617  -8.810  0.00  0.00    -0.353 OA
ATOM     18  C15 NON d   1     -36.228  17.997  -7.665  0.00  0.00     0.210 C 
ENDBRANCH  11  17
ENDBRANCH   4   7
ENDBRANCH   2   3
BRANCH   2  19
ATOM     19  C17 NON d   1     -42.115  17.980  -3.511  0.00  0.00     0.268 C 
ATOM     20  O5  NON d   1     -42.689  17.826  -2.437  0.00  0.00    -0.266 OA
ATOM     21  N3  NON d   1     -42.466  17.286  -4.665  0.00  0.00    -0.356 N 
ATOM     22  H20 NON d   1     -42.034  17.558  -5.537  0.00  0.00     0.162 HD
BRANCH  21  23
ATOM     23  C18 NON d   1     -43.697  16.505  -4.715  0.00  0.00     0.125 C 
BRANCH  23  24
ATOM     24  C19 NON d   1     -44.948  17.221  -4.198  0.00  0.00     0.046 C 
BRANCH  24  25
ATOM     25  C20 NON d   1     -46.259  16.583  -4.636  0.00  0.00     0.165 C 
BRANCH  25  26
ATOM     26  O6  NON d   1     -46.722  17.246  -5.811  0.00  0.00    -0.401 OA
ATOM     27  H27 NON d   1     -46.449  18.177  -5.746  0.00  0.00     0.209 HD
ENDBRANCH  25  26
ENDBRANCH  24  25
ENDBRANCH  23  24
ENDBRANCH  21  23
ENDBRANCH   2  19
BRANCH   1  28
ATOM     28  C4  NON d   1     -39.551  20.500  -2.129  0.00  0.00    -0.006 A 
ATOM     29  C3  NON d   1     -38.448  20.859  -2.863  0.00  0.00     0.103 A 
ATOM     30  N1  NON d   1     -37.802  21.914  -2.244  0.00  0.00    -0.356 N 
ATOM     31  C26 NON d   1     -38.413  22.189  -1.040  0.00  0.00     0.045 A 
ATOM     32  C25 NON d   1     -38.130  23.118  -0.019  0.00  0.00     0.030 A 
ATOM     33  C21 NON d   1     -39.511  21.312  -0.937  0.00  0.00     0.002 A 
ATOM     34  C24 NON d   1     -38.942  23.156   1.118  0.00  0.00     0.002 A 
ATOM     35  C23 NON d   1     -40.020  22.295   1.245  0.00  0.00     0.001 A 
ATOM     36  C22 NON d   1     -40.315  21.380   0.230  0.00  0.00     0.014 A 
BRANCH  30  37
ATOM     37  C2  NON d   1     -36.689  22.563  -2.921  0.00  0.00     0.124 C 
ATOM     38  C1  NON d   1     -36.548  22.462  -4.428  0.00  0.00     0.027 C 
ENDBRANCH  30  37
ENDBRANCH   1  28
TORSDOF 12
ENDMDL
MODEL 9
REMARK VINA RESULT:    -9.830      2.487      3.148
REMARK INTER + INTRA:         -16.361
REMARK INTER:                 -13.410
REMARK INTRA:                  -2.952
REMARK CONF_INDEPENDENT:        3.580
REMARK UNBOUND:                -2.952
REMARK  12 active torsions:
REMARK  status: ('A' for Active; 'I' for Inactive)
REMARK    1  A    between atoms: C2_2  and  N1_3 
REMARK    2  A    between atoms: C4_5  and  C5_6 
REMARK    3  A    between atoms: C6_7  and  N2_8 
REMARK    4  A    between atoms: C6_7  and  C17_23 
REMARK       I    between atoms: N2_8  and  C7_9 
REMARK    5  A    between atoms: C7_9  and  C8_11 
REMARK    6  A    between atoms: C10_13  and  O2_14 
REMARK    7  A    between atoms: C12_16  and  O3_17 
REMARK    8  A    between atoms: C14_19  and  O4_20 
REMARK       I    between atoms: C17_23  and  N3_25 
REMARK    9  A    between atoms: N3_25  and  C18_26 
REMARK   10  A    between atoms: C18_26  and  C19_27 
REMARK   11  A    between atoms: C19_27  and  C20_28 
REMARK   12  A    between atoms: C20_28  and  O6_29 
ROOT
ATOM      1  C5  NON d   1     -41.463  19.795  -6.760  0.00  0.00     0.049 C 
ATOM      2  C6  NON d   1     -41.879  19.743  -5.471  0.00  0.00     0.104 C 
ENDROOT
BRANCH   2   3
ATOM      3  N2  NON d   1     -41.196  20.331  -4.405  0.00  0.00    -0.318 N 
ATOM      4  C7  NON d   1     -40.556  19.699  -3.339  0.00  0.00     0.256 C 
ATOM      5  O1  NON d   1     -40.609  18.493  -3.116  0.00  0.00    -0.267 OA
ATOM      6  H8  NON d   1     -41.123  21.329  -4.458  0.00  0.00     0.169 HD
BRANCH   4   7
ATOM      7  C8  NON d   1     -39.813  20.580  -2.351  0.00  0.00     0.037 A 
ATOM      8  C9  NON d   1     -40.315  20.836  -1.071  0.00  0.00     0.057 A 
ATOM      9  C10 NON d   1     -39.616  21.648  -0.153  0.00  0.00     0.105 A 
ATOM     10  C12 NON d   1     -38.363  22.226  -0.465  0.00  0.00     0.135 A 
ATOM     11  C14 NON d   1     -37.771  21.882  -1.790  0.00  0.00     0.105 A 
ATOM     12  C16 NON d   1     -38.533  21.081  -2.685  0.00  0.00     0.057 A 
BRANCH   9  13
ATOM     13  O2  NON d   1     -40.122  21.710   1.127  0.00  0.00    -0.353 OA
ATOM     14  C11 NON d   1     -40.850  22.912   1.367  0.00  0.00     0.210 C 
ENDBRANCH   9  13
BRANCH  10  15
ATOM     15  O3  NON d   1     -37.758  23.083   0.472  0.00  0.00    -0.351 OA
ATOM     16  C13 NON d   1     -36.858  22.607   1.628  0.00  0.00     0.210 C 
ENDBRANCH  10  15
BRANCH  11  17
ATOM     17  O4  NON d   1     -36.484  22.277  -2.214  0.00  0.00    -0.353 OA
ATOM     18  C15 NON d   1     -36.190  23.014  -3.533  0.00  0.00     0.210 C 
ENDBRANCH  11  17
ENDBRANCH   4   7
ENDBRANCH   2   3
BRANCH   2  19
ATOM     19  C17 NON d   1     -43.024  18.772  -5.198  0.00  0.00     0.268 C 
ATOM     20  O5  NON d   1     -44.183  19.106  -5.431  0.00  0.00    -0.266 OA
ATOM     21  N3  NON d   1     -42.690  17.560  -4.602  0.00  0.00    -0.356 N 
ATOM     22  H20 NON d   1     -41.715  17.300  -4.559  0.00  0.00     0.162 HD
BRANCH  21  23
ATOM     23  C18 NON d   1     -43.693  16.514  -4.434  0.00  0.00     0.125 C 
BRANCH  23  24
ATOM     24  C19 NON d   1     -45.007  16.965  -3.790  0.00  0.00     0.046 C 
BRANCH  24  25
ATOM     25  C20 NON d   1     -46.255  16.562  -4.564  0.00  0.00     0.165 C 
BRANCH  25  26
ATOM     26  O6  NON d   1     -46.265  17.255  -5.810  0.00  0.00    -0.401 OA
ATOM     27  H27 NON d   1     -46.136  18.200  -5.618  0.00  0.00     0.209 HD
ENDBRANCH  25  26
ENDBRANCH  24  25
ENDBRANCH  23  24
ENDBRANCH  21  23
ENDBRANCH   2  19
BRANCH   1  28
ATOM     28  C4  NON d   1     -40.389  20.501  -7.412  0.00  0.00    -0.006 A 
ATOM     29  C3  NON d   1     -40.315  21.834  -7.731  0.00  0.00     0.103 A 
ATOM     30  N1  NON d   1     -39.065  22.119  -8.251  0.00  0.00    -0.356 N 
ATOM     31  C26 NON d   1     -38.342  20.953  -8.381  0.00  0.00     0.045 A 
ATOM     32  C25 NON d   1     -37.056  20.682  -8.890  0.00  0.00     0.030 A 
ATOM     33  C21 NON d   1     -39.150  19.919  -7.869  0.00  0.00     0.002 A 
ATOM     34  C24 NON d   1     -36.586  19.366  -8.901  0.00  0.00     0.002 A 
ATOM     35  C23 NON d   1     -37.369  18.332  -8.412  0.00  0.00     0.001 A 
ATOM     36  C22 NON d   1     -38.640  18.595  -7.893  0.00  0.00     0.014 A 
BRANCH  30  37
ATOM     37  C2  NON d   1     -38.704  23.502  -8.520  0.00  0.00     0.124 C 
ATOM     38  C1  NON d   1     -39.783  24.542  -8.755  0.00  0.00     0.027 C 
ENDBRANCH  30  37
ENDBRANCH   1  28
TORSDOF 12
ENDMDL
