MODEL 1
REMARK VINA RESULT:   -14.195      0.000      0.000
REMARK INTER + INTRA:         -16.461
REMARK INTER:                 -15.388
REMARK INTRA:                  -1.073
REMARK CONF_INDEPENDENT:        1.193
REMARK UNBOUND:                -1.073
REMARK  4 active torsions:
REMARK  status: ('A' for Active; 'I' for Inactive)
REMARK    1  A    between atoms: C5_5  and  C6_6 
REMARK    2  A    between atoms: C7_8  and  N2_9 
REMARK    3  A    between atoms: C10_13  and  C11_14 
REMARK    4  A    between atoms: C14_17  and  C15_18 
REMARK       I    between atoms: C15_18  and  N4_19 
ROOT
ATOM      1  C6  NON d   1     -43.604  17.765  -4.100  0.00  0.00     0.082 C 
ATOM      2  N1  NON d   1     -42.864  17.212  -3.110  0.00  0.00    -0.234 NA
ATOM      3  C7  NON d   1     -41.558  17.511  -3.032  0.00  0.00     0.123 C 
ATOM      4  C8  NON d   1     -40.906  18.313  -3.973  0.00  0.00     0.096 C 
ATOM      5  C9  NON d   1     -39.482  18.474  -3.883  0.00  0.00     0.103 C 
ATOM      6  N3  NON d   1     -38.336  18.648  -3.792  0.00  0.00    -0.191 NA
ATOM      7  C10 NON d   1     -41.667  18.943  -4.989  0.00  0.00     0.006 C 
ATOM      8  C18 NON d   1     -43.075  18.717  -4.993  0.00  0.00    -0.019 C 
ATOM      9  C19 NON d   1     -43.975  19.505  -5.917  0.00  0.00     0.052 C 
ENDROOT
BRANCH   3  10
ATOM     10  N2  NON d   1     -40.901  16.904  -1.962  0.00  0.00    -0.286 NA
ATOM     11  H6  NON d   1     -40.305  16.131  -2.241  0.00  0.00     0.125 HD
ATOM     12  H7  NON d   1     -40.372  17.625  -1.472  0.00  0.00     0.125 HD
ENDBRANCH   3  10
BRANCH   7  13
ATOM     13  C11 NON d   1     -41.014  19.779  -6.041  0.00  0.00    -0.024 A 
ATOM     14  C12 NON d   1     -40.741  21.147  -5.855  0.00  0.00     0.013 A 
ATOM     15  C13 NON d   1     -40.103  21.911  -6.847  0.00  0.00     0.018 A 
ATOM     16  C14 NON d   1     -39.748  21.328  -8.066  0.00  0.00     0.031 A 
ATOM     17  C16 NON d   1     -40.035  19.978  -8.282  0.00  0.00     0.018 A 
ATOM     18  C17 NON d   1     -40.637  19.211  -7.275  0.00  0.00     0.013 A 
BRANCH  16  19
ATOM     19  C15 NON d   1     -39.098  22.100  -9.163  0.00  0.00     0.249 C 
ATOM     20  N4  NON d   1     -39.558  21.895 -10.436  0.00  0.00    -0.366 N 
ATOM     21  H10 NON d   1     -39.189  22.513 -11.148  0.00  0.00     0.159 HD
ATOM     22  H11 NON d   1     -40.444  21.447 -10.622  0.00  0.00     0.159 HD
ATOM     23  O1  NON d   1     -38.212  22.915  -8.941  0.00  0.00    -0.268 OA
ENDBRANCH  16  19
ENDBRANCH   7  13
BRANCH   1  24
ATOM     24  C5  NON d   1     -44.986  17.231  -4.112  0.00  0.00     0.034 C 
ATOM     25  C4  NON d   1     -45.941  17.255  -3.106  0.00  0.00     0.022 C 
ATOM     26  C3  NON d   1     -47.196  16.680  -3.497  0.00  0.00     0.015 C 
ATOM     27  C2  NON d   1     -47.153  16.211  -4.790  0.00  0.00    -0.021 C 
ATOM     28  C1  NON d   1     -48.246  15.755  -5.775  0.00  0.00     0.056 C 
ATOM     29  S1  NON d   1     -45.565  16.301  -5.435  0.00  0.00    -0.093 SA
ENDBRANCH   1  24
TORSDOF 4
ENDMDL
MODEL 2
REMARK VINA RESULT:   -11.979      3.589      7.454
REMARK INTER + INTRA:         -13.886
REMARK INTER:                 -13.172
REMARK INTRA:                  -0.714
REMARK CONF_INDEPENDENT:        1.193
REMARK UNBOUND:                -0.714
REMARK  4 active torsions:
REMARK  status: ('A' for Active; 'I' for Inactive)
REMARK    1  A    between atoms: C5_5  and  C6_6 
REMARK    2  A    between atoms: C7_8  and  N2_9 
REMARK    3  A    between atoms: C10_13  and  C11_14 
REMARK    4  A    between atoms: C14_17  and  C15_18 
REMARK       I    between atoms: C15_18  and  N4_19 
ROOT
ATOM      1  C6  NON d   1     -38.871  19.482  -5.198  0.00  0.00     0.082 C 
ATOM      2  N1  NON d   1     -38.281  19.655  -3.992  0.00  0.00    -0.234 NA
ATOM      3  C7  NON d   1     -38.954  19.306  -2.884  0.00  0.00     0.123 C 
ATOM      4  C8  NON d   1     -40.271  18.838  -2.913  0.00  0.00     0.096 C 
ATOM      5  C9  NON d   1     -40.957  18.612  -1.672  0.00  0.00     0.103 C 
ATOM      6  N3  NON d   1     -41.505  18.382  -0.673  0.00  0.00    -0.191 NA
ATOM      7  C10 NON d   1     -40.893  18.601  -4.165  0.00  0.00     0.006 C 
ATOM      8  C18 NON d   1     -40.127  18.860  -5.339  0.00  0.00    -0.019 C 
ATOM      9  C19 NON d   1     -40.646  18.448  -6.698  0.00  0.00     0.052 C 
ENDROOT
BRANCH   3  10
ATOM     10  N2  NON d   1     -38.242  19.506  -1.702  0.00  0.00    -0.286 NA
ATOM     11  H6  NON d   1     -38.789  19.956  -0.974  0.00  0.00     0.125 HD
ATOM     12  H7  NON d   1     -37.886  18.602  -1.397  0.00  0.00     0.125 HD
ENDBRANCH   3  10
BRANCH   7  13
ATOM     13  C11 NON d   1     -42.311  18.138  -4.250  0.00  0.00    -0.024 A 
ATOM     14  C12 NON d   1     -43.291  18.844  -4.972  0.00  0.00     0.013 A 
ATOM     15  C13 NON d   1     -44.615  18.379  -5.062  0.00  0.00     0.018 A 
ATOM     16  C14 NON d   1     -44.996  17.207  -4.403  0.00  0.00     0.031 A 
ATOM     17  C16 NON d   1     -44.045  16.507  -3.658  0.00  0.00     0.018 A 
ATOM     18  C17 NON d   1     -42.718  16.954  -3.603  0.00  0.00     0.013 A 
BRANCH  16  19
ATOM     19  C15 NON d   1     -46.393  16.687  -4.440  0.00  0.00     0.249 C 
ATOM     20  N4  NON d   1     -47.014  16.466  -3.241  0.00  0.00    -0.366 N 
ATOM     21  H10 NON d   1     -47.998  16.228  -3.285  0.00  0.00     0.159 HD
ATOM     22  H11 NON d   1     -46.668  16.856  -2.376  0.00  0.00     0.159 HD
ATOM     23  O1  NON d   1     -46.983  16.497  -5.496  0.00  0.00    -0.268 OA
ENDBRANCH  16  19
ENDBRANCH   7  13
BRANCH   1  24
ATOM     24  C5  NON d   1     -38.043  20.033  -6.296  0.00  0.00     0.034 C 
ATOM     25  C4  NON d   1     -37.260  21.178  -6.310  0.00  0.00     0.022 C 
ATOM     26  C3  NON d   1     -36.554  21.371  -7.544  0.00  0.00     0.015 C 
ATOM     27  C2  NON d   1     -36.839  20.374  -8.448  0.00  0.00    -0.021 C 
ATOM     28  C1  NON d   1     -36.190  19.951  -9.779  0.00  0.00     0.056 C 
ATOM     29  S1  NON d   1     -38.082  19.342  -7.868  0.00  0.00    -0.093 SA
ENDBRANCH   1  24
TORSDOF 4
ENDMDL
MODEL 3
REMARK VINA RESULT:   -11.943      3.077      4.984
REMARK INTER + INTRA:         -14.092
REMARK INTER:                 -13.137
REMARK INTRA:                  -0.955
REMARK CONF_INDEPENDENT:        1.193
REMARK UNBOUND:                -0.955
REMARK  4 active torsions:
REMARK  status: ('A' for Active; 'I' for Inactive)
REMARK    1  A    between atoms: C5_5  and  C6_6 
REMARK    2  A    between atoms: C7_8  and  N2_9 
REMARK    3  A    between atoms: C10_13  and  C11_14 
REMARK    4  A    between atoms: C14_17  and  C15_18 
REMARK       I    between atoms: C15_18  and  N4_19 
ROOT
ATOM      1  C6  NON d   1     -43.272  18.438  -4.754  0.00  0.00     0.082 C 
ATOM      2  N1  NON d   1     -43.242  18.982  -5.994  0.00  0.00    -0.234 NA
ATOM      3  C7  NON d   1     -42.209  19.769  -6.331  0.00  0.00     0.123 C 
ATOM      4  C8  NON d   1     -41.194  20.115  -5.434  0.00  0.00     0.096 C 
ATOM      5  C9  NON d   1     -40.198  21.065  -5.843  0.00  0.00     0.103 C 
ATOM      6  N3  NON d   1     -39.361  21.799  -6.180  0.00  0.00    -0.191 NA
ATOM      7  C10 NON d   1     -41.176  19.519  -4.148  0.00  0.00     0.006 C 
ATOM      8  C18 NON d   1     -42.212  18.589  -3.839  0.00  0.00    -0.019 C 
ATOM      9  C19 NON d   1     -42.152  17.769  -2.571  0.00  0.00     0.052 C 
ENDROOT
BRANCH   3  10
ATOM     10  N2  NON d   1     -42.270  20.255  -7.637  0.00  0.00    -0.286 NA
ATOM     11  H6  NON d   1     -43.215  20.305  -8.004  0.00  0.00     0.125 HD
ATOM     12  H7  NON d   1     -41.816  21.168  -7.651  0.00  0.00     0.125 HD
ENDBRANCH   3  10
BRANCH   7  13
ATOM     13  C11 NON d   1     -40.136  19.884  -3.140  0.00  0.00    -0.024 A 
ATOM     14  C12 NON d   1     -38.960  19.131  -2.965  0.00  0.00     0.013 A 
ATOM     15  C13 NON d   1     -37.980  19.504  -2.028  0.00  0.00     0.018 A 
ATOM     16  C14 NON d   1     -38.171  20.627  -1.219  0.00  0.00     0.031 A 
ATOM     17  C16 NON d   1     -39.344  21.372  -1.357  0.00  0.00     0.018 A 
ATOM     18  C17 NON d   1     -40.300  21.018  -2.319  0.00  0.00     0.013 A 
BRANCH  16  19
ATOM     19  C15 NON d   1     -37.179  21.049  -0.189  0.00  0.00     0.249 C 
ATOM     20  N4  NON d   1     -37.390  20.630   1.097  0.00  0.00    -0.366 N 
ATOM     21  H10 NON d   1     -36.647  20.824   1.757  0.00  0.00     0.159 HD
ATOM     22  H11 NON d   1     -38.026  19.878   1.320  0.00  0.00     0.159 HD
ATOM     23  O1  NON d   1     -36.191  21.712  -0.478  0.00  0.00    -0.268 OA
ENDBRANCH  16  19
ENDBRANCH   7  13
BRANCH   1  24
ATOM     24  C5  NON d   1     -44.536  17.705  -4.510  0.00  0.00     0.034 C 
ATOM     25  C4  NON d   1     -45.022  17.170  -3.325  0.00  0.00     0.022 C 
ATOM     26  C3  NON d   1     -46.317  16.566  -3.460  0.00  0.00     0.015 C 
ATOM     27  C2  NON d   1     -46.772  16.638  -4.757  0.00  0.00    -0.021 C 
ATOM     28  C1  NON d   1     -48.152  16.397  -5.396  0.00  0.00     0.056 C 
ATOM     29  S1  NON d   1     -45.565  17.255  -5.810  0.00  0.00    -0.093 SA
ENDBRANCH   1  24
TORSDOF 4
ENDMDL
MODEL 4
REMARK VINA RESULT:   -11.463      3.504      7.439
REMARK INTER + INTRA:         -13.616
REMARK INTER:                 -12.656
REMARK INTRA:                  -0.960
REMARK CONF_INDEPENDENT:        1.193
REMARK UNBOUND:                -0.960
REMARK  4 active torsions:
REMARK  status: ('A' for Active; 'I' for Inactive)
REMARK    1  A    between atoms: C5_5  and  C6_6 
REMARK    2  A    between atoms: C7_8  and  N2_9 
REMARK    3  A    between atoms: C10_13  and  C11_14 
REMARK    4  A    between atoms: C14_17  and  C15_18 
REMARK       I    between atoms: C15_18  and  N4_19 
ROOT
ATOM      1  C6  NON d   1     -38.862  19.762  -5.222  0.00  0.00     0.082 C 
ATOM      2  N1  NON d   1     -38.298  19.916  -4.000  0.00  0.00    -0.234 NA
ATOM      3  C7  NON d   1     -38.972  19.498  -2.917  0.00  0.00     0.123 C 
ATOM      4  C8  NON d   1     -40.266  18.974  -2.985  0.00  0.00     0.096 C 
ATOM      5  C9  NON d   1     -40.959  18.671  -1.765  0.00  0.00     0.103 C 
ATOM      6  N3  NON d   1     -41.511  18.381  -0.784  0.00  0.00    -0.191 NA
ATOM      7  C10 NON d   1     -40.857  18.756  -4.255  0.00  0.00     0.006 C 
ATOM      8  C18 NON d   1     -40.086  19.091  -5.406  0.00  0.00    -0.019 C 
ATOM      9  C19 NON d   1     -40.565  18.707  -6.788  0.00  0.00     0.052 C 
ENDROOT
BRANCH   3  10
ATOM     10  N2  NON d   1     -38.287  19.686  -1.717  0.00  0.00    -0.286 NA
ATOM     11  H6  NON d   1     -38.816  20.215  -1.031  0.00  0.00     0.125 HD
ATOM     12  H7  NON d   1     -38.027  18.767  -1.360  0.00  0.00     0.125 HD
ENDBRANCH   3  10
BRANCH   7  13
ATOM     13  C11 NON d   1     -42.251  18.234  -4.381  0.00  0.00    -0.024 A 
ATOM     14  C12 NON d   1     -42.629  16.969  -3.893  0.00  0.00     0.013 A 
ATOM     15  C13 NON d   1     -43.952  16.505  -3.998  0.00  0.00     0.018 A 
ATOM     16  C14 NON d   1     -44.925  17.288  -4.625  0.00  0.00     0.031 A 
ATOM     17  C16 NON d   1     -44.564  18.535  -5.141  0.00  0.00     0.018 A 
ATOM     18  C17 NON d   1     -43.253  19.009  -4.999  0.00  0.00     0.013 A 
BRANCH  16  19
ATOM     19  C15 NON d   1     -46.334  16.831  -4.791  0.00  0.00     0.249 C 
ATOM     20  N4  NON d   1     -46.911  16.171  -3.739  0.00  0.00    -0.366 N 
ATOM     21  H10 NON d   1     -47.901  15.976  -3.824  0.00  0.00     0.159 HD
ATOM     22  H11 NON d   1     -46.520  16.198  -2.808  0.00  0.00     0.159 HD
ATOM     23  O1  NON d   1     -46.973  17.065  -5.810  0.00  0.00    -0.268 OA
ENDBRANCH  16  19
ENDBRANCH   7  13
BRANCH   1  24
ATOM     24  C5  NON d   1     -38.042  20.389  -6.285  0.00  0.00     0.034 C 
ATOM     25  C4  NON d   1     -36.661  20.428  -6.415  0.00  0.00     0.022 C 
ATOM     26  C3  NON d   1     -36.220  21.089  -7.610  0.00  0.00     0.015 C 
ATOM     27  C2  NON d   1     -37.283  21.557  -8.348  0.00  0.00    -0.021 C 
ATOM     28  C1  NON d   1     -37.403  22.088  -9.788  0.00  0.00     0.056 C 
ATOM     29  S1  NON d   1     -38.764  21.360  -7.504  0.00  0.00    -0.093 SA
ENDBRANCH   1  24
TORSDOF 4
ENDMDL
