MODEL 1
REMARK VINA RESULT:   -14.295      0.000      0.000
REMARK INTER + INTRA:         -18.223
REMARK INTER:                 -16.383
REMARK INTRA:                  -1.840
REMARK CONF_INDEPENDENT:        2.088
REMARK UNBOUND:                -1.840
REMARK  7 active torsions:
REMARK  status: ('A' for Active; 'I' for Inactive)
REMARK    1  A    between atoms: C2_2  and  N1_3 
REMARK    2  A    between atoms: N1_3  and  C3_4 
REMARK       I    between atoms: N1_3  and  C5_6 
REMARK    3  A    between atoms: C5_6  and  C6_8 
REMARK    4  A    between atoms: C9_11  and  N2_12 
REMARK       I    between atoms: N2_12  and  C10_13 
REMARK    5  A    between atoms: C10_13  and  C11_15 
REMARK    6  A    between atoms: C16_20  and  N3_21 
REMARK       I    between atoms: N3_21  and  C17_22 
REMARK    7  A    between atoms: C17_22  and  C18_24 
ROOT
ATOM      1  N2  NON d   1     -40.504  22.247  -2.553  0.00  0.00    -0.323 N 
ATOM      2  C10 NON d   1     -40.437  20.921  -2.980  0.00  0.00     0.258 C 
ATOM      3  O2  NON d   1     -40.310  19.956  -2.230  0.00  0.00    -0.267 OA
ATOM      4  H13 NON d   1     -40.210  22.953  -3.216  0.00  0.00     0.169 HD
ENDROOT
BRANCH   2   5
ATOM      5  C11 NON d   1     -40.488  20.671  -4.466  0.00  0.00     0.059 A 
ATOM      6  C12 NON d   1     -40.108  21.713  -5.332  0.00  0.00     0.019 A 
ATOM      7  C13 NON d   1     -40.287  21.594  -6.711  0.00  0.00     0.001 A 
ATOM      8  C14 NON d   1     -40.899  20.459  -7.229  0.00  0.00     0.002 A 
ATOM      9  C15 NON d   1     -41.286  19.418  -6.380  0.00  0.00     0.030 A 
ATOM     10  C16 NON d   1     -41.032  19.466  -5.007  0.00  0.00     0.050 A 
BRANCH  10  11
ATOM     11  N3  NON d   1     -41.319  18.386  -4.142  0.00  0.00    -0.322 N 
ATOM     12  C17 NON d   1     -42.422  17.627  -3.804  0.00  0.00     0.256 C 
ATOM     13  O3  NON d   1     -42.280  16.868  -2.840  0.00  0.00    -0.267 OA
ATOM     14  H18 NON d   1     -40.539  18.122  -3.538  0.00  0.00     0.169 HD
BRANCH  12  15
ATOM     15  C18 NON d   1     -43.705  17.654  -4.505  0.00  0.00     0.039 A 
ATOM     16  C19 NON d   1     -44.306  18.691  -5.302  0.00  0.00     0.024 A 
ATOM     17  C20 NON d   1     -45.538  18.333  -5.810  0.00  0.00     0.050 A 
ATOM     18  S1  NON d   1     -45.943  16.718  -5.435  0.00  0.00    -0.113 SA
ATOM     19  C21 NON d   1     -44.480  16.505  -4.579  0.00  0.00     0.066 A 
ENDBRANCH  12  15
ENDBRANCH  10  11
ENDBRANCH   2   5
BRANCH   1  20
ATOM     20  C9  NON d   1     -40.653  22.676  -1.207  0.00  0.00     0.035 C 
ATOM     21  C8  NON d   1     -41.400  23.833  -0.958  0.00  0.00     0.030 C 
ATOM     22  C7  NON d   1     -41.442  24.395   0.330  0.00  0.00     0.019 C 
ATOM     23  C6  NON d   1     -40.763  23.787   1.394  0.00  0.00     0.032 C 
ATOM     24  C23 NON d   1     -40.166  22.539   1.189  0.00  0.00     0.019 C 
ATOM     25  C22 NON d   1     -40.088  22.003  -0.115  0.00  0.00     0.030 C 
BRANCH  23  26
ATOM     26  C5  NON d   1     -40.673  24.526   2.690  0.00  0.00     0.253 C 
ATOM     27  N1  NON d   1     -39.430  24.993   3.204  0.00  0.00    -0.349 N 
ATOM     28  O1  NON d   1     -41.745  24.767   3.241  0.00  0.00    -0.267 OA
BRANCH  27  29
ATOM     29  C2  NON d   1     -39.548  25.897   4.470  0.00  0.00     0.121 C 
ATOM     30  C1  NON d   1     -39.908  25.221   5.807  0.00  0.00     0.026 C 
ENDBRANCH  27  29
BRANCH  27  31
ATOM     31  C3  NON d   1     -38.097  24.813   2.512  0.00  0.00     0.121 C 
ATOM     32  C4  NON d   1     -37.437  23.423   2.441  0.00  0.00     0.026 C 
ENDBRANCH  27  31
ENDBRANCH  23  26
ENDBRANCH   1  20
TORSDOF 7
ENDMDL
MODEL 2
REMARK VINA RESULT:   -13.843      0.856      1.391
REMARK INTER + INTRA:         -17.818
REMARK INTER:                 -15.931
REMARK INTRA:                  -1.887
REMARK CONF_INDEPENDENT:        2.088
REMARK UNBOUND:                -1.887
REMARK  7 active torsions:
REMARK  status: ('A' for Active; 'I' for Inactive)
REMARK    1  A    between atoms: C2_2  and  N1_3 
REMARK    2  A    between atoms: N1_3  and  C3_4 
REMARK       I    between atoms: N1_3  and  C5_6 
REMARK    3  A    between atoms: C5_6  and  C6_8 
REMARK    4  A    between atoms: C9_11  and  N2_12 
REMARK       I    between atoms: N2_12  and  C10_13 
REMARK    5  A    between atoms: C10_13  and  C11_15 
REMARK    6  A    between atoms: C16_20  and  N3_21 
REMARK       I    between atoms: N3_21  and  C17_22 
REMARK    7  A    between atoms: C17_22  and  C18_24 
ROOT
ATOM      1  N2  NON d   1     -40.217  22.386  -2.835  0.00  0.00    -0.323 N 
ATOM      2  C10 NON d   1     -40.421  21.050  -3.180  0.00  0.00     0.258 C 
ATOM      3  O2  NON d   1     -40.529  20.133  -2.369  0.00  0.00    -0.267 OA
ATOM      4  H13 NON d   1     -39.756  22.968  -3.523  0.00  0.00     0.169 HD
ENDROOT
BRANCH   2   5
ATOM      5  C11 NON d   1     -40.472  20.716  -4.650  0.00  0.00     0.059 A 
ATOM      6  C12 NON d   1     -40.085  21.705  -5.573  0.00  0.00     0.019 A 
ATOM      7  C13 NON d   1     -40.264  21.510  -6.943  0.00  0.00     0.001 A 
ATOM      8  C14 NON d   1     -40.883  20.352  -7.397  0.00  0.00     0.002 A 
ATOM      9  C15 NON d   1     -41.278  19.363  -6.491  0.00  0.00     0.030 A 
ATOM     10  C16 NON d   1     -41.025  19.487  -5.122  0.00  0.00     0.050 A 
BRANCH  10  11
ATOM     11  N3  NON d   1     -41.320  18.460  -4.197  0.00  0.00    -0.322 N 
ATOM     12  C17 NON d   1     -42.430  17.733  -3.814  0.00  0.00     0.256 C 
ATOM     13  O3  NON d   1     -42.292  17.027  -2.810  0.00  0.00    -0.267 OA
ATOM     14  H18 NON d   1     -40.541  18.221  -3.583  0.00  0.00     0.169 HD
BRANCH  12  15
ATOM     15  C18 NON d   1     -43.715  17.736  -4.511  0.00  0.00     0.039 A 
ATOM     16  C19 NON d   1     -44.338  18.761  -5.306  0.00  0.00     0.024 A 
ATOM     17  C20 NON d   1     -45.565  18.380  -5.810  0.00  0.00     0.050 A 
ATOM     18  S1  NON d   1     -45.938  16.757  -5.435  0.00  0.00    -0.113 SA
ATOM     19  C21 NON d   1     -44.469  16.572  -4.584  0.00  0.00     0.066 A 
ENDBRANCH  12  15
ENDBRANCH  10  11
ENDBRANCH   2   5
BRANCH   1  20
ATOM     20  C9  NON d   1     -40.318  22.926  -1.525  0.00  0.00     0.035 C 
ATOM     21  C8  NON d   1     -39.599  22.307  -0.495  0.00  0.00     0.030 C 
ATOM     22  C7  NON d   1     -39.790  22.693   0.844  0.00  0.00     0.019 C 
ATOM     23  C6  NON d   1     -40.678  23.727   1.166  0.00  0.00     0.032 C 
ATOM     24  C23 NON d   1     -41.261  24.465   0.130  0.00  0.00     0.019 C 
ATOM     25  C22 NON d   1     -41.102  24.044  -1.208  0.00  0.00     0.030 C 
BRANCH  23  26
ATOM     26  C5  NON d   1     -40.995  23.964   2.608  0.00  0.00     0.253 C 
ATOM     27  N1  NON d   1     -40.447  25.063   3.327  0.00  0.00    -0.349 N 
ATOM     28  O1  NON d   1     -41.815  23.194   3.105  0.00  0.00    -0.267 OA
BRANCH  27  29
ATOM     29  C2  NON d   1     -41.027  25.256   4.762  0.00  0.00     0.121 C 
ATOM     30  C1  NON d   1     -40.434  24.404   5.900  0.00  0.00     0.026 C 
ENDBRANCH  27  29
BRANCH  27  31
ATOM     31  C3  NON d   1     -39.517  26.097   2.731  0.00  0.00     0.121 C 
ATOM     32  C4  NON d   1     -40.069  27.209   1.819  0.00  0.00     0.026 C 
ENDBRANCH  27  31
ENDBRANCH  23  26
ENDBRANCH   1  20
TORSDOF 7
ENDMDL
MODEL 3
REMARK VINA RESULT:   -13.515      5.591      9.200
REMARK INTER + INTRA:         -16.793
REMARK INTER:                 -15.603
REMARK INTRA:                  -1.190
REMARK CONF_INDEPENDENT:        2.088
REMARK UNBOUND:                -1.190
REMARK  7 active torsions:
REMARK  status: ('A' for Active; 'I' for Inactive)
REMARK    1  A    between atoms: C2_2  and  N1_3 
REMARK    2  A    between atoms: N1_3  and  C3_4 
REMARK       I    between atoms: N1_3  and  C5_6 
REMARK    3  A    between atoms: C5_6  and  C6_8 
REMARK    4  A    between atoms: C9_11  and  N2_12 
REMARK       I    between atoms: N2_12  and  C10_13 
REMARK    5  A    between atoms: C10_13  and  C11_15 
REMARK    6  A    between atoms: C16_20  and  N3_21 
REMARK       I    between atoms: N3_21  and  C17_22 
REMARK    7  A    between atoms: C17_22  and  C18_24 
ROOT
ATOM      1  N2  NON d   1     -41.727  18.896  -4.202  0.00  0.00    -0.323 N 
ATOM      2  C10 NON d   1     -40.636  18.276  -3.592  0.00  0.00     0.258 C 
ATOM      3  O2  NON d   1     -40.709  17.255  -2.913  0.00  0.00    -0.267 OA
ATOM      4  H13 NON d   1     -41.643  19.889  -4.380  0.00  0.00     0.169 HD
ENDROOT
BRANCH   2   5
ATOM      5  C11 NON d   1     -39.288  18.934  -3.753  0.00  0.00     0.059 A 
ATOM      6  C12 NON d   1     -38.405  18.923  -2.658  0.00  0.00     0.019 A 
ATOM      7  C13 NON d   1     -37.215  19.652  -2.695  0.00  0.00     0.001 A 
ATOM      8  C14 NON d   1     -36.928  20.442  -3.802  0.00  0.00     0.002 A 
ATOM      9  C15 NON d   1     -37.800  20.467  -4.895  0.00  0.00     0.030 A 
ATOM     10  C16 NON d   1     -38.949  19.673  -4.927  0.00  0.00     0.050 A 
BRANCH  10  11
ATOM     11  N3  NON d   1     -39.793  19.601  -6.059  0.00  0.00    -0.322 N 
ATOM     12  C17 NON d   1     -39.644  19.589  -7.432  0.00  0.00     0.256 C 
ATOM     13  O3  NON d   1     -40.685  19.697  -8.088  0.00  0.00    -0.267 OA
ATOM     14  H18 NON d   1     -40.788  19.640  -5.835  0.00  0.00     0.169 HD
BRANCH  12  15
ATOM     15  C18 NON d   1     -38.370  19.447  -8.136  0.00  0.00     0.039 A 
ATOM     16  C19 NON d   1     -37.308  18.494  -7.950  0.00  0.00     0.024 A 
ATOM     17  C20 NON d   1     -36.258  18.681  -8.825  0.00  0.00     0.050 A 
ATOM     18  S1  NON d   1     -36.573  19.925  -9.950  0.00  0.00    -0.113 SA
ATOM     19  C21 NON d   1     -38.105  20.224  -9.255  0.00  0.00     0.066 A 
ENDBRANCH  12  15
ENDBRANCH  10  11
ENDBRANCH   2   5
BRANCH   1  20
ATOM     20  C9  NON d   1     -43.031  18.346  -4.320  0.00  0.00     0.035 C 
ATOM     21  C8  NON d   1     -43.408  17.336  -3.428  0.00  0.00     0.030 C 
ATOM     22  C7  NON d   1     -44.618  16.642  -3.601  0.00  0.00     0.019 C 
ATOM     23  C6  NON d   1     -45.484  16.973  -4.652  0.00  0.00     0.032 C 
ATOM     24  C23 NON d   1     -45.197  18.097  -5.435  0.00  0.00     0.019 C 
ATOM     25  C22 NON d   1     -43.959  18.760  -5.285  0.00  0.00     0.030 C 
BRANCH  23  26
ATOM     26  C5  NON d   1     -46.654  16.081  -4.913  0.00  0.00     0.253 C 
ATOM     27  N1  NON d   1     -47.818  16.108  -4.094  0.00  0.00    -0.349 N 
ATOM     28  O1  NON d   1     -46.574  15.380  -5.921  0.00  0.00    -0.267 OA
BRANCH  27  29
ATOM     29  C2  NON d   1     -49.004  15.243  -4.621  0.00  0.00     0.121 C 
ATOM     30  C1  NON d   1     -49.950  14.609  -3.583  0.00  0.00     0.026 C 
ENDBRANCH  27  29
BRANCH  27  31
ATOM     31  C3  NON d   1     -48.006  17.026  -2.906  0.00  0.00     0.121 C 
ATOM     32  C4  NON d   1     -48.689  16.513  -1.625  0.00  0.00     0.026 C 
ENDBRANCH  27  31
ENDBRANCH  23  26
ENDBRANCH   1  20
TORSDOF 7
ENDMDL
MODEL 4
REMARK VINA RESULT:   -13.308      5.851      9.512
REMARK INTER + INTRA:         -16.698
REMARK INTER:                 -15.396
REMARK INTRA:                  -1.302
REMARK CONF_INDEPENDENT:        2.088
REMARK UNBOUND:                -1.302
REMARK  7 active torsions:
REMARK  status: ('A' for Active; 'I' for Inactive)
REMARK    1  A    between atoms: C2_2  and  N1_3 
REMARK    2  A    between atoms: N1_3  and  C3_4 
REMARK       I    between atoms: N1_3  and  C5_6 
REMARK    3  A    between atoms: C5_6  and  C6_8 
REMARK    4  A    between atoms: C9_11  and  N2_12 
REMARK       I    between atoms: N2_12  and  C10_13 
REMARK    5  A    between atoms: C10_13  and  C11_15 
REMARK    6  A    between atoms: C16_20  and  N3_21 
REMARK       I    between atoms: N3_21  and  C17_22 
REMARK    7  A    between atoms: C17_22  and  C18_24 
ROOT
ATOM      1  N2  NON d   1     -40.372  20.261  -6.445  0.00  0.00    -0.323 N 
ATOM      2  C10 NON d   1     -40.456  18.915  -6.088  0.00  0.00     0.258 C 
ATOM      3  O2  NON d   1     -40.276  17.979  -6.863  0.00  0.00    -0.267 OA
ATOM      4  H13 NON d   1     -40.907  20.914  -5.885  0.00  0.00     0.169 HD
ENDROOT
BRANCH   2   5
ATOM      5  C11 NON d   1     -40.832  18.602  -4.661  0.00  0.00     0.059 A 
ATOM      6  C12 NON d   1     -39.850  18.048  -3.819  0.00  0.00     0.019 A 
ATOM      7  C13 NON d   1     -40.182  17.590  -2.543  0.00  0.00     0.001 A 
ATOM      8  C14 NON d   1     -41.506  17.629  -2.122  0.00  0.00     0.002 A 
ATOM      9  C15 NON d   1     -42.492  18.172  -2.951  0.00  0.00     0.030 A 
ATOM     10  C16 NON d   1     -42.175  18.726  -4.193  0.00  0.00     0.050 A 
BRANCH  10  11
ATOM     11  N3  NON d   1     -43.134  19.372  -5.006  0.00  0.00    -0.322 N 
ATOM     12  C17 NON d   1     -44.378  19.079  -5.531  0.00  0.00     0.256 C 
ATOM     13  O3  NON d   1     -44.815  19.880  -6.364  0.00  0.00    -0.267 OA
ATOM     14  H18 NON d   1     -42.821  20.269  -5.381  0.00  0.00     0.169 HD
BRANCH  12  15
ATOM     15  C18 NON d   1     -45.191  17.921  -5.161  0.00  0.00     0.039 A 
ATOM     16  C19 NON d   1     -45.261  17.193  -3.922  0.00  0.00     0.024 A 
ATOM     17  C20 NON d   1     -46.166  16.152  -3.960  0.00  0.00     0.050 A 
ATOM     18  S1  NON d   1     -47.023  16.100  -5.435  0.00  0.00    -0.113 SA
ATOM     19  C21 NON d   1     -46.171  17.456  -6.027  0.00  0.00     0.066 A 
ENDBRANCH  12  15
ENDBRANCH  10  11
ENDBRANCH   2   5
BRANCH   1  20
ATOM     20  C9  NON d   1     -39.864  20.760  -7.674  0.00  0.00     0.035 C 
ATOM     21  C8  NON d   1     -38.860  20.030  -8.322  0.00  0.00     0.030 C 
ATOM     22  C7  NON d   1     -38.205  20.558  -9.449  0.00  0.00     0.019 C 
ATOM     23  C6  NON d   1     -38.570  21.809  -9.962  0.00  0.00     0.032 C 
ATOM     24  C23 NON d   1     -39.688  22.459  -9.429  0.00  0.00     0.019 C 
ATOM     25  C22 NON d   1     -40.312  21.947  -8.270  0.00  0.00     0.030 C 
BRANCH  23  26
ATOM     26  C5  NON d   1     -37.715  22.411 -11.031  0.00  0.00     0.253 C 
ATOM     27  N1  NON d   1     -38.242  22.763 -12.306  0.00  0.00    -0.349 N 
ATOM     28  O1  NON d   1     -36.552  22.651 -10.710  0.00  0.00    -0.267 OA
BRANCH  27  29
ATOM     29  C2  NON d   1     -37.252  23.542 -13.226  0.00  0.00     0.121 C 
ATOM     30  C1  NON d   1     -36.887  22.916 -14.585  0.00  0.00     0.026 C 
ENDBRANCH  27  29
BRANCH  27  31
ATOM     31  C3  NON d   1     -39.688  22.585 -12.712  0.00  0.00     0.121 C 
ATOM     32  C4  NON d   1     -40.475  23.756 -13.330  0.00  0.00     0.026 C 
ENDBRANCH  27  31
ENDBRANCH  23  26
ENDBRANCH   1  20
TORSDOF 7
ENDMDL
MODEL 5
REMARK VINA RESULT:   -13.123      5.882      9.321
REMARK INTER + INTRA:         -16.605
REMARK INTER:                 -15.211
REMARK INTRA:                  -1.394
REMARK CONF_INDEPENDENT:        2.088
REMARK UNBOUND:                -1.394
REMARK  7 active torsions:
REMARK  status: ('A' for Active; 'I' for Inactive)
REMARK    1  A    between atoms: C2_2  and  N1_3 
REMARK    2  A    between atoms: N1_3  and  C3_4 
REMARK       I    between atoms: N1_3  and  C5_6 
REMARK    3  A    between atoms: C5_6  and  C6_8 
REMARK    4  A    between atoms: C9_11  and  N2_12 
REMARK       I    between atoms: N2_12  and  C10_13 
REMARK    5  A    between atoms: C10_13  and  C11_15 
REMARK    6  A    between atoms: C16_20  and  N3_21 
REMARK       I    between atoms: N3_21  and  C17_22 
REMARK    7  A    between atoms: C17_22  and  C18_24 
ROOT
ATOM      1  N2  NON d   1     -40.269  20.315  -6.446  0.00  0.00    -0.323 N 
ATOM      2  C10 NON d   1     -40.437  18.965  -6.135  0.00  0.00     0.258 C 
ATOM      3  O2  NON d   1     -40.326  18.048  -6.944  0.00  0.00    -0.267 OA
ATOM      4  H13 NON d   1     -40.753  20.980  -5.857  0.00  0.00     0.169 HD
ENDROOT
BRANCH   2   5
ATOM      5  C11 NON d   1     -40.817  18.627  -4.715  0.00  0.00     0.059 A 
ATOM      6  C12 NON d   1     -39.834  18.073  -3.875  0.00  0.00     0.019 A 
ATOM      7  C13 NON d   1     -40.167  17.593  -2.607  0.00  0.00     0.001 A 
ATOM      8  C14 NON d   1     -41.494  17.609  -2.194  0.00  0.00     0.002 A 
ATOM      9  C15 NON d   1     -42.483  18.151  -3.022  0.00  0.00     0.030 A 
ATOM     10  C16 NON d   1     -42.165  18.727  -4.254  0.00  0.00     0.050 A 
BRANCH  10  11
ATOM     11  N3  NON d   1     -43.127  19.373  -5.063  0.00  0.00    -0.322 N 
ATOM     12  C17 NON d   1     -44.375  19.083  -5.578  0.00  0.00     0.256 C 
ATOM     13  O3  NON d   1     -44.815  19.880  -6.412  0.00  0.00    -0.267 OA
ATOM     14  H18 NON d   1     -42.812  20.266  -5.446  0.00  0.00     0.169 HD
BRANCH  12  15
ATOM     15  C18 NON d   1     -45.191  17.930  -5.195  0.00  0.00     0.039 A 
ATOM     16  C19 NON d   1     -45.237  17.193  -3.960  0.00  0.00     0.024 A 
ATOM     17  C20 NON d   1     -46.153  16.162  -3.982  0.00  0.00     0.050 A 
ATOM     18  S1  NON d   1     -47.049  16.130  -5.435  0.00  0.00    -0.113 SA
ATOM     19  C21 NON d   1     -46.198  17.482  -6.039  0.00  0.00     0.066 A 
ENDBRANCH  12  15
ENDBRANCH  10  11
ENDBRANCH   2   5
BRANCH   1  20
ATOM     20  C9  NON d   1     -39.741  20.823  -7.664  0.00  0.00     0.035 C 
ATOM     21  C8  NON d   1     -40.299  21.994  -8.191  0.00  0.00     0.030 C 
ATOM     22  C7  NON d   1     -39.933  22.448  -9.470  0.00  0.00     0.019 C 
ATOM     23  C6  NON d   1     -38.979  21.754 -10.225  0.00  0.00     0.032 C 
ATOM     24  C23 NON d   1     -38.291  20.689  -9.632  0.00  0.00     0.019 C 
ATOM     25  C22 NON d   1     -38.695  20.210  -8.367  0.00  0.00     0.030 C 
BRANCH  23  26
ATOM     26  C5  NON d   1     -38.772  22.159 -11.649  0.00  0.00     0.253 C 
ATOM     27  N1  NON d   1     -37.623  22.890 -12.064  0.00  0.00    -0.349 N 
ATOM     28  O1  NON d   1     -39.618  21.756 -12.445  0.00  0.00    -0.267 OA
BRANCH  27  29
ATOM     29  C2  NON d   1     -37.486  23.067 -13.608  0.00  0.00     0.121 C 
ATOM     30  C1  NON d   1     -37.252  21.806 -14.460  0.00  0.00     0.026 C 
ENDBRANCH  27  29
BRANCH  27  31
ATOM     31  C3  NON d   1     -36.503  23.318 -11.141  0.00  0.00     0.121 C 
ATOM     32  C4  NON d   1     -36.734  24.426 -10.097  0.00  0.00     0.026 C 
ENDBRANCH  27  31
ENDBRANCH  23  26
ENDBRANCH   1  20
TORSDOF 7
ENDMDL
MODEL 6
REMARK VINA RESULT:   -13.073      3.744      9.015
REMARK INTER + INTRA:         -16.664
REMARK INTER:                 -15.161
REMARK INTRA:                  -1.503
REMARK CONF_INDEPENDENT:        2.088
REMARK UNBOUND:                -1.503
REMARK  7 active torsions:
REMARK  status: ('A' for Active; 'I' for Inactive)
REMARK    1  A    between atoms: C2_2  and  N1_3 
REMARK    2  A    between atoms: N1_3  and  C3_4 
REMARK       I    between atoms: N1_3  and  C5_6 
REMARK    3  A    between atoms: C5_6  and  C6_8 
REMARK    4  A    between atoms: C9_11  and  N2_12 
REMARK       I    between atoms: N2_12  and  C10_13 
REMARK    5  A    between atoms: C10_13  and  C11_15 
REMARK    6  A    between atoms: C16_20  and  N3_21 
REMARK       I    between atoms: N3_21  and  C17_22 
REMARK    7  A    between atoms: C17_22  and  C18_24 
ROOT
ATOM      1  N2  NON d   1     -41.569  18.741  -4.255  0.00  0.00    -0.323 N 
ATOM      2  C10 NON d   1     -40.786  18.846  -3.105  0.00  0.00     0.258 C 
ATOM      3  O2  NON d   1     -41.208  18.692  -1.962  0.00  0.00    -0.267 OA
ATOM      4  H13 NON d   1     -41.254  19.256  -5.067  0.00  0.00     0.169 HD
ENDROOT
BRANCH   2   5
ATOM      5  C11 NON d   1     -39.334  19.210  -3.289  0.00  0.00     0.059 A 
ATOM      6  C12 NON d   1     -38.644  18.669  -4.390  0.00  0.00     0.019 A 
ATOM      7  C13 NON d   1     -37.265  18.841  -4.521  0.00  0.00     0.001 A 
ATOM      8  C14 NON d   1     -36.558  19.503  -3.525  0.00  0.00     0.002 A 
ATOM      9  C15 NON d   1     -37.230  20.040  -2.423  0.00  0.00     0.030 A 
ATOM     10  C16 NON d   1     -38.621  19.969  -2.313  0.00  0.00     0.050 A 
BRANCH  10  11
ATOM     11  N3  NON d   1     -39.334  20.592  -1.263  0.00  0.00    -0.322 N 
ATOM     12  C17 NON d   1     -40.032  21.768  -1.073  0.00  0.00     0.256 C 
ATOM     13  O3  NON d   1     -40.366  22.016   0.090  0.00  0.00    -0.267 OA
ATOM     14  H18 NON d   1     -39.273  20.097  -0.372  0.00  0.00     0.169 HD
BRANCH  12  15
ATOM     15  C18 NON d   1     -40.402  22.704  -2.134  0.00  0.00     0.039 A 
ATOM     16  C19 NON d   1     -40.711  22.462  -3.519  0.00  0.00     0.024 A 
ATOM     17  C20 NON d   1     -41.025  23.615  -4.209  0.00  0.00     0.050 A 
ATOM     18  S1  NON d   1     -41.063  24.983  -3.190  0.00  0.00    -0.113 SA
ATOM     19  C21 NON d   1     -40.642  24.037  -1.832  0.00  0.00     0.066 A 
ENDBRANCH  12  15
ENDBRANCH  10  11
ENDBRANCH   2   5
BRANCH   1  20
ATOM     20  C9  NON d   1     -42.896  18.237  -4.309  0.00  0.00     0.035 C 
ATOM     21  C8  NON d   1     -43.232  17.164  -3.476  0.00  0.00     0.030 C 
ATOM     22  C7  NON d   1     -44.475  16.519  -3.605  0.00  0.00     0.019 C 
ATOM     23  C6  NON d   1     -45.412  16.962  -4.547  0.00  0.00     0.032 C 
ATOM     24  C23 NON d   1     -45.152  18.141  -5.255  0.00  0.00     0.019 C 
ATOM     25  C22 NON d   1     -43.885  18.757  -5.155  0.00  0.00     0.030 C 
BRANCH  23  26
ATOM     26  C5  NON d   1     -46.628  16.126  -4.783  0.00  0.00     0.253 C 
ATOM     27  N1  NON d   1     -47.757  16.181  -3.918  0.00  0.00    -0.349 N 
ATOM     28  O1  NON d   1     -46.617  15.450  -5.810  0.00  0.00    -0.267 OA
BRANCH  27  29
ATOM     29  C2  NON d   1     -48.999  15.380  -4.418  0.00  0.00     0.121 C 
ATOM     30  C1  NON d   1     -49.842  14.630  -3.370  0.00  0.00     0.026 C 
ENDBRANCH  27  29
BRANCH  27  31
ATOM     31  C3  NON d   1     -47.860  17.075  -2.702  0.00  0.00     0.121 C 
ATOM     32  C4  NON d   1     -48.686  16.636  -1.479  0.00  0.00     0.026 C 
ENDBRANCH  27  31
ENDBRANCH  23  26
ENDBRANCH   1  20
TORSDOF 7
ENDMDL
MODEL 7
REMARK VINA RESULT:   -12.921      4.967      8.721
REMARK INTER + INTRA:         -16.840
REMARK INTER:                 -15.009
REMARK INTRA:                  -1.831
REMARK CONF_INDEPENDENT:        2.088
REMARK UNBOUND:                -1.831
REMARK  7 active torsions:
REMARK  status: ('A' for Active; 'I' for Inactive)
REMARK    1  A    between atoms: C2_2  and  N1_3 
REMARK    2  A    between atoms: N1_3  and  C3_4 
REMARK       I    between atoms: N1_3  and  C5_6 
REMARK    3  A    between atoms: C5_6  and  C6_8 
REMARK    4  A    between atoms: C9_11  and  N2_12 
REMARK       I    between atoms: N2_12  and  C10_13 
REMARK    5  A    between atoms: C10_13  and  C11_15 
REMARK    6  A    between atoms: C16_20  and  N3_21 
REMARK       I    between atoms: N3_21  and  C17_22 
REMARK    7  A    between atoms: C17_22  and  C18_24 
ROOT
ATOM      1  N2  NON d   1     -41.210  18.667  -4.038  0.00  0.00    -0.323 N 
ATOM      2  C10 NON d   1     -40.454  18.735  -2.868  0.00  0.00     0.258 C 
ATOM      3  O2  NON d   1     -40.914  18.602  -1.736  0.00  0.00    -0.267 OA
ATOM      4  H13 NON d   1     -40.849  19.166  -4.841  0.00  0.00     0.169 HD
ENDROOT
BRANCH   2   5
ATOM      5  C11 NON d   1     -38.982  19.029  -3.013  0.00  0.00     0.059 A 
ATOM      6  C12 NON d   1     -38.061  18.058  -2.580  0.00  0.00     0.019 A 
ATOM      7  C13 NON d   1     -36.694  18.338  -2.541  0.00  0.00     0.001 A 
ATOM      8  C14 NON d   1     -36.244  19.610  -2.876  0.00  0.00     0.002 A 
ATOM      9  C15 NON d   1     -37.149  20.587  -3.303  0.00  0.00     0.030 A 
ATOM     10  C16 NON d   1     -38.510  20.306  -3.445  0.00  0.00     0.050 A 
BRANCH  10  11
ATOM     11  N3  NON d   1     -39.430  21.242  -3.970  0.00  0.00    -0.322 N 
ATOM     12  C17 NON d   1     -40.005  21.518  -5.195  0.00  0.00     0.256 C 
ATOM     13  O3  NON d   1     -40.646  22.571  -5.267  0.00  0.00    -0.267 OA
ATOM     14  H18 NON d   1     -39.704  21.968  -3.307  0.00  0.00     0.169 HD
BRANCH  12  15
ATOM     15  C18 NON d   1     -39.917  20.657  -6.375  0.00  0.00     0.039 A 
ATOM     16  C19 NON d   1     -39.316  19.359  -6.534  0.00  0.00     0.024 A 
ATOM     17  C20 NON d   1     -39.446  18.860  -7.814  0.00  0.00     0.050 A 
ATOM     18  S1  NON d   1     -40.383  19.881  -8.810  0.00  0.00    -0.113 SA
ATOM     19  C21 NON d   1     -40.596  20.998  -7.536  0.00  0.00     0.066 A 
ENDBRANCH  12  15
ENDBRANCH  10  11
ENDBRANCH   2   5
BRANCH   1  20
ATOM     20  C9  NON d   1     -42.558  18.228  -4.128  0.00  0.00     0.035 C 
ATOM     21  C8  NON d   1     -42.941  17.107  -3.381  0.00  0.00     0.030 C 
ATOM     22  C7  NON d   1     -44.211  16.530  -3.557  0.00  0.00     0.019 C 
ATOM     23  C6  NON d   1     -45.127  17.087  -4.459  0.00  0.00     0.032 C 
ATOM     24  C23 NON d   1     -44.815  18.305  -5.072  0.00  0.00     0.019 C 
ATOM     25  C22 NON d   1     -43.523  18.855  -4.927  0.00  0.00     0.030 C 
BRANCH  23  26
ATOM     26  C5  NON d   1     -46.378  16.326  -4.757  0.00  0.00     0.253 C 
ATOM     27  N1  NON d   1     -47.524  16.406  -3.916  0.00  0.00    -0.349 N 
ATOM     28  O1  NON d   1     -46.377  15.691  -5.810  0.00  0.00    -0.267 OA
BRANCH  27  29
ATOM     29  C2  NON d   1     -48.793  15.691  -4.477  0.00  0.00     0.121 C 
ATOM     30  C1  NON d   1     -49.511  14.677  -3.567  0.00  0.00     0.026 C 
ENDBRANCH  27  29
BRANCH  27  31
ATOM     31  C3  NON d   1     -47.611  17.255  -2.667  0.00  0.00     0.121 C 
ATOM     32  C4  NON d   1     -48.512  16.827  -1.494  0.00  0.00     0.026 C 
ENDBRANCH  27  31
ENDBRANCH  23  26
ENDBRANCH   1  20
TORSDOF 7
ENDMDL
MODEL 8
REMARK VINA RESULT:   -12.827      3.642      9.000
REMARK INTER + INTRA:         -16.504
REMARK INTER:                 -14.915
REMARK INTRA:                  -1.589
REMARK CONF_INDEPENDENT:        2.088
REMARK UNBOUND:                -1.589
REMARK  7 active torsions:
REMARK  status: ('A' for Active; 'I' for Inactive)
REMARK    1  A    between atoms: C2_2  and  N1_3 
REMARK    2  A    between atoms: N1_3  and  C3_4 
REMARK       I    between atoms: N1_3  and  C5_6 
REMARK    3  A    between atoms: C5_6  and  C6_8 
REMARK    4  A    between atoms: C9_11  and  N2_12 
REMARK       I    between atoms: N2_12  and  C10_13 
REMARK    5  A    between atoms: C10_13  and  C11_15 
REMARK    6  A    between atoms: C16_20  and  N3_21 
REMARK       I    between atoms: N3_21  and  C17_22 
REMARK    7  A    between atoms: C17_22  and  C18_24 
ROOT
ATOM      1  N2  NON d   1     -41.202  18.843  -4.116  0.00  0.00    -0.323 N 
ATOM      2  C10 NON d   1     -40.370  18.760  -2.999  0.00  0.00     0.258 C 
ATOM      3  O2  NON d   1     -40.748  18.440  -1.875  0.00  0.00    -0.267 OA
ATOM      4  H13 NON d   1     -40.910  19.472  -4.854  0.00  0.00     0.169 HD
ENDROOT
BRANCH   2   5
ATOM      5  C11 NON d   1     -38.920  19.127  -3.190  0.00  0.00     0.059 A 
ATOM      6  C12 NON d   1     -37.951  18.116  -3.050  0.00  0.00     0.019 A 
ATOM      7  C13 NON d   1     -36.591  18.427  -3.056  0.00  0.00     0.001 A 
ATOM      8  C14 NON d   1     -36.190  19.755  -3.142  0.00  0.00     0.002 A 
ATOM      9  C15 NON d   1     -37.142  20.770  -3.276  0.00  0.00     0.030 A 
ATOM     10  C16 NON d   1     -38.506  20.482  -3.371  0.00  0.00     0.050 A 
BRANCH  10  11
ATOM     11  N3  NON d   1     -39.480  21.478  -3.609  0.00  0.00    -0.322 N 
ATOM     12  C17 NON d   1     -40.366  22.226  -2.859  0.00  0.00     0.256 C 
ATOM     13  O3  NON d   1     -41.193  22.883  -3.498  0.00  0.00    -0.267 OA
ATOM     14  H18 NON d   1     -39.647  21.663  -4.599  0.00  0.00     0.169 HD
BRANCH  12  15
ATOM     15  C18 NON d   1     -40.374  22.297  -1.398  0.00  0.00     0.039 A 
ATOM     16  C19 NON d   1     -39.705  21.476  -0.424  0.00  0.00     0.024 A 
ATOM     17  C20 NON d   1     -39.958  21.867   0.874  0.00  0.00     0.050 A 
ATOM     18  S1  NON d   1     -40.904  23.286   0.945  0.00  0.00    -0.113 SA
ATOM     19  C21 NON d   1     -40.991  23.364  -0.759  0.00  0.00     0.066 A 
ENDBRANCH  12  15
ENDBRANCH  10  11
ENDBRANCH   2   5
BRANCH   1  20
ATOM     20  C9  NON d   1     -42.541  18.373  -4.187  0.00  0.00     0.035 C 
ATOM     21  C8  NON d   1     -42.895  17.260  -3.415  0.00  0.00     0.030 C 
ATOM     22  C7  NON d   1     -44.153  16.652  -3.570  0.00  0.00     0.019 C 
ATOM     23  C6  NON d   1     -45.087  17.171  -4.477  0.00  0.00     0.032 C 
ATOM     24  C23 NON d   1     -44.806  18.383  -5.116  0.00  0.00     0.019 C 
ATOM     25  C22 NON d   1     -43.525  18.964  -4.992  0.00  0.00     0.030 C 
BRANCH  23  26
ATOM     26  C5  NON d   1     -46.324  16.377  -4.750  0.00  0.00     0.253 C 
ATOM     27  N1  NON d   1     -47.448  16.414  -3.878  0.00  0.00    -0.349 N 
ATOM     28  O1  NON d   1     -46.333  15.755  -5.810  0.00  0.00    -0.267 OA
BRANCH  27  29
ATOM     29  C2  NON d   1     -48.711  15.670  -4.412  0.00  0.00     0.121 C 
ATOM     30  C1  NON d   1     -49.406  14.665  -3.475  0.00  0.00     0.026 C 
ENDBRANCH  27  29
BRANCH  27  31
ATOM     31  C3  NON d   1     -47.525  17.246  -2.617  0.00  0.00     0.121 C 
ATOM     32  C4  NON d   1     -48.519  16.878  -1.499  0.00  0.00     0.026 C 
ENDBRANCH  27  31
ENDBRANCH  23  26
ENDBRANCH   1  20
TORSDOF 7
ENDMDL
MODEL 9
REMARK VINA RESULT:   -12.698      5.310      9.298
REMARK INTER + INTRA:         -16.595
REMARK INTER:                 -14.786
REMARK INTRA:                  -1.809
REMARK CONF_INDEPENDENT:        2.088
REMARK UNBOUND:                -1.809
REMARK  7 active torsions:
REMARK  status: ('A' for Active; 'I' for Inactive)
REMARK    1  A    between atoms: C2_2  and  N1_3 
REMARK    2  A    between atoms: N1_3  and  C3_4 
REMARK       I    between atoms: N1_3  and  C5_6 
REMARK    3  A    between atoms: C5_6  and  C6_8 
REMARK    4  A    between atoms: C9_11  and  N2_12 
REMARK       I    between atoms: N2_12  and  C10_13 
REMARK    5  A    between atoms: C10_13  and  C11_15 
REMARK    6  A    between atoms: C16_20  and  N3_21 
REMARK       I    between atoms: N3_21  and  C17_22 
REMARK    7  A    between atoms: C17_22  and  C18_24 
ROOT
ATOM      1  N2  NON d   1     -42.091  18.982  -4.107  0.00  0.00    -0.323 N 
ATOM      2  C10 NON d   1     -40.955  18.686  -4.861  0.00  0.00     0.258 C 
ATOM      3  O2  NON d   1     -40.859  17.728  -5.624  0.00  0.00    -0.267 OA
ATOM      4  H13 NON d   1     -41.946  19.509  -3.255  0.00  0.00     0.169 HD
ENDROOT
BRANCH   2   5
ATOM      5  C11 NON d   1     -39.759  19.588  -4.690  0.00  0.00     0.059 A 
ATOM      6  C12 NON d   1     -39.673  20.371  -3.524  0.00  0.00     0.019 A 
ATOM      7  C13 NON d   1     -38.677  21.338  -3.386  0.00  0.00     0.001 A 
ATOM      8  C14 NON d   1     -37.796  21.571  -4.435  0.00  0.00     0.002 A 
ATOM      9  C15 NON d   1     -37.873  20.805  -5.603  0.00  0.00     0.030 A 
ATOM     10  C16 NON d   1     -38.797  19.764  -5.731  0.00  0.00     0.050 A 
BRANCH  10  11
ATOM     11  N3  NON d   1     -38.829  18.910  -6.856  0.00  0.00    -0.322 N 
ATOM     12  C17 NON d   1     -38.898  19.046  -8.228  0.00  0.00     0.256 C 
ATOM     13  O3  NON d   1     -39.087  18.005  -8.866  0.00  0.00    -0.267 OA
ATOM     14  H18 NON d   1     -38.892  17.918  -6.619  0.00  0.00     0.169 HD
BRANCH  12  15
ATOM     15  C18 NON d   1     -38.753  20.308  -8.953  0.00  0.00     0.039 A 
ATOM     16  C19 NON d   1     -37.763  20.718  -9.915  0.00  0.00     0.024 A 
ATOM     17  C20 NON d   1     -37.970  21.997 -10.387  0.00  0.00     0.050 A 
ATOM     18  S1  NON d   1     -39.407  22.684  -9.775  0.00  0.00    -0.113 SA
ATOM     19  C21 NON d   1     -39.741  21.278  -8.865  0.00  0.00     0.066 A 
ENDBRANCH  12  15
ENDBRANCH  10  11
ENDBRANCH   2   5
BRANCH   1  20
ATOM     20  C9  NON d   1     -43.365  18.371  -4.256  0.00  0.00     0.035 C 
ATOM     21  C8  NON d   1     -43.724  17.358  -3.360  0.00  0.00     0.030 C 
ATOM     22  C7  NON d   1     -44.895  16.606  -3.560  0.00  0.00     0.019 C 
ATOM     23  C6  NON d   1     -45.741  16.882  -4.643  0.00  0.00     0.032 C 
ATOM     24  C23 NON d   1     -45.480  18.005  -5.435  0.00  0.00     0.019 C 
ATOM     25  C22 NON d   1     -44.279  18.727  -5.258  0.00  0.00     0.030 C 
BRANCH  23  26
ATOM     26  C5  NON d   1     -46.860  15.932  -4.926  0.00  0.00     0.253 C 
ATOM     27  N1  NON d   1     -48.060  15.936  -4.160  0.00  0.00    -0.349 N 
ATOM     28  O1  NON d   1     -46.705  15.205  -5.905  0.00  0.00    -0.267 OA
BRANCH  27  29
ATOM     29  C2  NON d   1     -49.185  15.005  -4.710  0.00  0.00     0.121 C 
ATOM     30  C1  NON d   1     -50.065  14.258  -3.690  0.00  0.00     0.026 C 
ENDBRANCH  27  29
BRANCH  27  31
ATOM     31  C3  NON d   1     -48.340  16.882  -3.013  0.00  0.00     0.121 C 
ATOM     32  C4  NON d   1     -49.180  16.419  -1.808  0.00  0.00     0.026 C 
ENDBRANCH  27  31
ENDBRANCH  23  26
ENDBRANCH   1  20
TORSDOF 7
ENDMDL
