MODEL 1
REMARK VINA RESULT:   -11.715      0.000      0.000
REMARK INTER + INTRA:         -15.201
REMARK INTER:                 -13.504
REMARK INTRA:                  -1.696
REMARK CONF_INDEPENDENT:        1.790
REMARK UNBOUND:                -1.696
REMARK  6 active torsions:
REMARK  status: ('A' for Active; 'I' for Inactive)
REMARK    1  A    between atoms: C2_2  and  C3_3 
REMARK    2  A    between atoms: C3_3  and  C4_4 
REMARK    3  A    between atoms: C3_3  and  C6_6 
REMARK       I    between atoms: C6_6  and  N1_8 
REMARK    4  A    between atoms: N1_8  and  N2_9 
REMARK       I    between atoms: N2_9  and  C7_10 
REMARK    5  A    between atoms: C7_10  and  C8_12 
REMARK    6  A    between atoms: C12_16  and  N3_17 
ROOT
ATOM      1  N2  NON d   1     -41.471  19.870  -6.610  0.00  0.00    -0.263 N 
ATOM      2  C7  NON d   1     -41.802  19.938  -5.272  0.00  0.00     0.270 C 
ATOM      3  O2  NON d   1     -41.396  20.839  -4.541  0.00  0.00    -0.266 OA
ATOM      4  H13 NON d   1     -41.849  19.207  -7.282  0.00  0.00     0.190 HD
ENDROOT
BRANCH   1   5
ATOM      5  N1  NON d   1     -40.526  20.773  -7.118  0.00  0.00    -0.267 N 
ATOM      6  C6  NON d   1     -40.197  20.669  -8.454  0.00  0.00     0.240 C 
ATOM      7  O1  NON d   1     -40.810  19.890  -9.187  0.00  0.00    -0.271 OA
ATOM      8  H12 NON d   1     -40.103  21.412  -6.450  0.00  0.00     0.190 HD
BRANCH   6   9
ATOM      9  C3  NON d   1     -38.948  21.448  -8.907  0.00  0.00     0.079 C 
BRANCH   9  10
ATOM     10  C2  NON d   1     -37.759  20.489  -9.137  0.00  0.00     0.010 C 
ATOM     11  C1  NON d   1     -37.889  19.162  -8.397  0.00  0.00     0.006 C 
ENDBRANCH   9  10
BRANCH   9  12
ATOM     12  C4  NON d   1     -39.185  22.348 -10.139  0.00  0.00     0.010 C 
ATOM     13  C5  NON d   1     -39.558  23.790  -9.826  0.00  0.00     0.006 C 
ENDBRANCH   9  12
ENDBRANCH   6   9
ENDBRANCH   1   5
BRANCH   2  14
ATOM     14  C8  NON d   1     -42.663  18.849  -4.720  0.00  0.00     0.036 A 
ATOM     15  C9  NON d   1     -42.398  18.226  -3.491  0.00  0.00     0.017 A 
ATOM     16  C10 NON d   1     -43.270  17.254  -2.982  0.00  0.00     0.003 A 
ATOM     17  C11 NON d   1     -44.420  16.905  -3.688  0.00  0.00     0.036 A 
ATOM     18  C12 NON d   1     -44.690  17.525  -4.915  0.00  0.00     0.103 A 
ATOM     19  C13 NON d   1     -43.819  18.497  -5.434  0.00  0.00     0.053 A 
BRANCH  18  20
ATOM     20  N3  NON d   1     -45.909  17.171  -5.650  0.00  0.00    -0.116 N 
ATOM     21  O3  NON d   1     -46.407  16.057  -5.437  0.00  0.00    -0.532 OA
ATOM     22  O4  NON d   1     -46.369  18.005  -6.445  0.00  0.00    -0.532 OA
ENDBRANCH  18  20
ENDBRANCH   2  14
TORSDOF 6
ENDMDL
MODEL 2
REMARK VINA RESULT:   -11.657      2.797      7.977
REMARK INTER + INTRA:         -15.004
REMARK INTER:                 -13.446
REMARK INTRA:                  -1.557
REMARK CONF_INDEPENDENT:        1.790
REMARK UNBOUND:                -1.557
REMARK  6 active torsions:
REMARK  status: ('A' for Active; 'I' for Inactive)
REMARK    1  A    between atoms: C2_2  and  C3_3 
REMARK    2  A    between atoms: C3_3  and  C4_4 
REMARK    3  A    between atoms: C3_3  and  C6_6 
REMARK       I    between atoms: C6_6  and  N1_8 
REMARK    4  A    between atoms: N1_8  and  N2_9 
REMARK       I    between atoms: N2_9  and  C7_10 
REMARK    5  A    between atoms: C7_10  and  C8_12 
REMARK    6  A    between atoms: C12_16  and  N3_17 
ROOT
ATOM      1  N2  NON d   1     -44.001  17.473  -4.575  0.00  0.00    -0.263 N 
ATOM      2  C7  NON d   1     -42.811  17.709  -3.918  0.00  0.00     0.270 C 
ATOM      3  O2  NON d   1     -42.569  17.236  -2.810  0.00  0.00    -0.266 OA
ATOM      4  H13 NON d   1     -44.220  17.757  -5.527  0.00  0.00     0.190 HD
ENDROOT
BRANCH   1   5
ATOM      5  N1  NON d   1     -45.023  16.793  -3.898  0.00  0.00    -0.267 N 
ATOM      6  C6  NON d   1     -46.175  16.505  -4.600  0.00  0.00     0.240 C 
ATOM      7  O1  NON d   1     -46.239  16.733  -5.810  0.00  0.00    -0.271 OA
ATOM      8  H12 NON d   1     -44.866  16.604  -2.911  0.00  0.00     0.190 HD
BRANCH   6   9
ATOM      9  C3  NON d   1     -47.384  16.049  -3.762  0.00  0.00     0.079 C 
BRANCH   9  10
ATOM     10  C2  NON d   1     -47.843  17.173  -2.807  0.00  0.00     0.010 C 
ATOM     11  C1  NON d   1     -48.581  16.667  -1.572  0.00  0.00     0.006 C 
ENDBRANCH   9  10
BRANCH   9  12
ATOM     12  C4  NON d   1     -48.563  15.516  -4.605  0.00  0.00     0.010 C 
ATOM     13  C5  NON d   1     -49.551  14.637  -3.852  0.00  0.00     0.006 C 
ENDBRANCH   9  12
ENDBRANCH   6   9
ENDBRANCH   1   5
BRANCH   2  14
ATOM     14  C8  NON d   1     -41.817  18.597  -4.593  0.00  0.00     0.036 A 
ATOM     15  C9  NON d   1     -41.181  19.659  -3.933  0.00  0.00     0.017 A 
ATOM     16  C10 NON d   1     -40.207  20.425  -4.588  0.00  0.00     0.003 A 
ATOM     17  C11 NON d   1     -39.849  20.129  -5.902  0.00  0.00     0.036 A 
ATOM     18  C12 NON d   1     -40.479  19.068  -6.565  0.00  0.00     0.103 A 
ATOM     19  C13 NON d   1     -41.459  18.299  -5.918  0.00  0.00     0.053 A 
BRANCH  18  20
ATOM     20  N3  NON d   1     -40.090  18.745  -7.943  0.00  0.00    -0.116 N 
ATOM     21  O3  NON d   1     -39.556  17.646  -8.147  0.00  0.00    -0.532 OA
ATOM     22  O4  NON d   1     -40.315  19.591  -8.821  0.00  0.00    -0.532 OA
ENDBRANCH  18  20
ENDBRANCH   2  14
TORSDOF 6
ENDMDL
MODEL 3
REMARK VINA RESULT:   -11.572      0.465      1.846
REMARK INTER + INTRA:         -15.120
REMARK INTER:                 -13.361
REMARK INTRA:                  -1.758
REMARK CONF_INDEPENDENT:        1.790
REMARK UNBOUND:                -1.758
REMARK  6 active torsions:
REMARK  status: ('A' for Active; 'I' for Inactive)
REMARK    1  A    between atoms: C2_2  and  C3_3 
REMARK    2  A    between atoms: C3_3  and  C4_4 
REMARK    3  A    between atoms: C3_3  and  C6_6 
REMARK       I    between atoms: C6_6  and  N1_8 
REMARK    4  A    between atoms: N1_8  and  N2_9 
REMARK       I    between atoms: N2_9  and  C7_10 
REMARK    5  A    between atoms: C7_10  and  C8_12 
REMARK    6  A    between atoms: C12_16  and  N3_17 
ROOT
ATOM      1  N2  NON d   1     -41.660  19.986  -6.617  0.00  0.00    -0.263 N 
ATOM      2  C7  NON d   1     -41.786  19.901  -5.245  0.00  0.00     0.270 C 
ATOM      3  O2  NON d   1     -41.184  20.653  -4.483  0.00  0.00    -0.266 OA
ATOM      4  H13 NON d   1     -42.201  19.458  -7.296  0.00  0.00     0.190 HD
ENDROOT
BRANCH   1   5
ATOM      5  N1  NON d   1     -40.705  20.861  -7.154  0.00  0.00    -0.267 N 
ATOM      6  C6  NON d   1     -40.357  20.694  -8.478  0.00  0.00     0.240 C 
ATOM      7  O1  NON d   1     -40.962  19.883  -9.182  0.00  0.00    -0.271 OA
ATOM      8  H12 NON d   1     -40.290  21.530  -6.510  0.00  0.00     0.190 HD
BRANCH   6   9
ATOM      9  C3  NON d   1     -39.099  21.447  -8.949  0.00  0.00     0.079 C 
BRANCH   9  10
ATOM     10  C2  NON d   1     -39.116  22.907  -8.445  0.00  0.00     0.010 C 
ATOM     11  C1  NON d   1     -40.277  23.733  -8.989  0.00  0.00     0.006 C 
ENDBRANCH   9  10
BRANCH   9  12
ATOM     12  C4  NON d   1     -37.775  20.745  -8.580  0.00  0.00     0.010 C 
ATOM     13  C5  NON d   1     -37.910  19.289  -8.156  0.00  0.00     0.006 C 
ENDBRANCH   9  12
ENDBRANCH   6   9
ENDBRANCH   1   5
BRANCH   2  14
ATOM     14  C8  NON d   1     -42.673  18.827  -4.702  0.00  0.00     0.036 A 
ATOM     15  C9  NON d   1     -42.441  18.210  -3.464  0.00  0.00     0.017 A 
ATOM     16  C10 NON d   1     -43.336  17.255  -2.964  0.00  0.00     0.003 A 
ATOM     17  C11 NON d   1     -44.478  16.917  -3.689  0.00  0.00     0.036 A 
ATOM     18  C12 NON d   1     -44.716  17.532  -4.925  0.00  0.00     0.103 A 
ATOM     19  C13 NON d   1     -43.822  18.487  -5.435  0.00  0.00     0.053 A 
BRANCH  18  20
ATOM     20  N3  NON d   1     -45.926  17.190  -5.681  0.00  0.00    -0.116 N 
ATOM     21  O3  NON d   1     -46.471  16.105  -5.435  0.00  0.00    -0.532 OA
ATOM     22  O4  NON d   1     -46.332  18.005  -6.524  0.00  0.00    -0.532 OA
ENDBRANCH  18  20
ENDBRANCH   2  14
TORSDOF 6
ENDMDL
MODEL 4
REMARK VINA RESULT:   -10.814      3.785      6.263
REMARK INTER + INTRA:         -14.088
REMARK INTER:                 -12.604
REMARK INTRA:                  -1.484
REMARK CONF_INDEPENDENT:        1.790
REMARK UNBOUND:                -1.484
REMARK  6 active torsions:
REMARK  status: ('A' for Active; 'I' for Inactive)
REMARK    1  A    between atoms: C2_2  and  C3_3 
REMARK    2  A    between atoms: C3_3  and  C4_4 
REMARK    3  A    between atoms: C3_3  and  C6_6 
REMARK       I    between atoms: C6_6  and  N1_8 
REMARK    4  A    between atoms: N1_8  and  N2_9 
REMARK       I    between atoms: N2_9  and  C7_10 
REMARK    5  A    between atoms: C7_10  and  C8_12 
REMARK    6  A    between atoms: C12_16  and  N3_17 
ROOT
ATOM      1  N2  NON d   1     -45.394  16.885  -4.215  0.00  0.00    -0.263 N 
ATOM      2  C7  NON d   1     -46.493  16.880  -5.049  0.00  0.00     0.270 C 
ATOM      3  O2  NON d   1     -46.457  17.349  -6.185  0.00  0.00    -0.266 OA
ATOM      4  H13 NON d   1     -45.336  16.430  -3.307  0.00  0.00     0.190 HD
ENDROOT
BRANCH   1   5
ATOM      5  N1  NON d   1     -44.243  17.576  -4.620  0.00  0.00    -0.267 N 
ATOM      6  C6  NON d   1     -43.057  17.269  -3.986  0.00  0.00     0.240 C 
ATOM      7  O1  NON d   1     -43.003  16.333  -3.185  0.00  0.00    -0.271 OA
ATOM      8  H12 NON d   1     -44.371  18.302  -5.320  0.00  0.00     0.190 HD
BRANCH   6   9
ATOM      9  C3  NON d   1     -41.890  18.246  -4.220  0.00  0.00     0.079 C 
BRANCH   9  10
ATOM     10  C2  NON d   1     -40.774  18.026  -3.175  0.00  0.00     0.010 C 
ATOM     11  C1  NON d   1     -41.192  18.368  -1.749  0.00  0.00     0.006 C 
ENDBRANCH   9  10
BRANCH   9  12
ATOM     12  C4  NON d   1     -41.323  18.211  -5.656  0.00  0.00     0.010 C 
ATOM     13  C5  NON d   1     -40.721  19.520  -6.147  0.00  0.00     0.006 C 
ENDBRANCH   9  12
ENDBRANCH   6   9
ENDBRANCH   1   5
BRANCH   2  14
ATOM     14  C8  NON d   1     -47.761  16.300  -4.512  0.00  0.00     0.036 A 
ATOM     15  C9  NON d   1     -48.381  15.179  -5.084  0.00  0.00     0.017 A 
ATOM     16  C10 NON d   1     -49.534  14.630  -4.506  0.00  0.00     0.003 A 
ATOM     17  C11 NON d   1     -50.070  15.186  -3.346  0.00  0.00     0.036 A 
ATOM     18  C12 NON d   1     -49.454  16.304  -2.770  0.00  0.00     0.103 A 
ATOM     19  C13 NON d   1     -48.301  16.863  -3.344  0.00  0.00     0.053 A 
BRANCH  18  20
ATOM     20  N3  NON d   1     -50.007  16.880  -1.539  0.00  0.00    -0.116 N 
ATOM     21  O3  NON d   1     -51.190  17.247  -1.557  0.00  0.00    -0.532 OA
ATOM     22  O4  NON d   1     -49.259  16.969  -0.554  0.00  0.00    -0.532 OA
ENDBRANCH  18  20
ENDBRANCH   2  14
TORSDOF 6
ENDMDL
MODEL 5
REMARK VINA RESULT:   -10.490      2.868      8.188
REMARK INTER + INTRA:         -13.771
REMARK INTER:                 -12.280
REMARK INTRA:                  -1.491
REMARK CONF_INDEPENDENT:        1.790
REMARK UNBOUND:                -1.491
REMARK  6 active torsions:
REMARK  status: ('A' for Active; 'I' for Inactive)
REMARK    1  A    between atoms: C2_2  and  C3_3 
REMARK    2  A    between atoms: C3_3  and  C4_4 
REMARK    3  A    between atoms: C3_3  and  C6_6 
REMARK       I    between atoms: C6_6  and  N1_8 
REMARK    4  A    between atoms: N1_8  and  N2_9 
REMARK       I    between atoms: N2_9  and  C7_10 
REMARK    5  A    between atoms: C7_10  and  C8_12 
REMARK    6  A    between atoms: C12_16  and  N3_17 
ROOT
ATOM      1  N2  NON d   1     -44.154  17.457  -4.690  0.00  0.00    -0.263 N 
ATOM      2  C7  NON d   1     -42.877  17.520  -4.172  0.00  0.00     0.270 C 
ATOM      3  O2  NON d   1     -42.537  16.873  -3.184  0.00  0.00    -0.266 OA
ATOM      4  H13 NON d   1     -44.466  17.893  -5.554  0.00  0.00     0.190 HD
ENDROOT
BRANCH   1   5
ATOM      5  N1  NON d   1     -45.135  16.748  -3.983  0.00  0.00    -0.267 N 
ATOM      6  C6  NON d   1     -46.336  16.510  -4.619  0.00  0.00     0.240 C 
ATOM      7  O1  NON d   1     -46.480  16.806  -5.807  0.00  0.00    -0.271 OA
ATOM      8  H12 NON d   1     -44.914  16.503  -3.021  0.00  0.00     0.190 HD
BRANCH   6   9
ATOM      9  C3  NON d   1     -47.490  16.017  -3.727  0.00  0.00     0.079 C 
BRANCH   9  10
ATOM     10  C2  NON d   1     -48.006  17.157  -2.821  0.00  0.00     0.010 C 
ATOM     11  C1  NON d   1     -48.560  16.676  -1.483  0.00  0.00     0.006 C 
ENDBRANCH   9  10
BRANCH   9  12
ATOM     12  C4  NON d   1     -48.647  15.358  -4.508  0.00  0.00     0.010 C 
ATOM     13  C5  NON d   1     -49.710  14.689  -3.649  0.00  0.00     0.006 C 
ENDBRANCH   9  12
ENDBRANCH   6   9
ENDBRANCH   1   5
BRANCH   2  14
ATOM     14  C8  NON d   1     -41.906  18.435  -4.845  0.00  0.00     0.036 A 
ATOM     15  C9  NON d   1     -41.082  18.019  -5.901  0.00  0.00     0.017 A 
ATOM     16  C10 NON d   1     -40.234  18.929  -6.545  0.00  0.00     0.003 A 
ATOM     17  C11 NON d   1     -40.210  20.266  -6.151  0.00  0.00     0.036 A 
ATOM     18  C12 NON d   1     -41.033  20.688  -5.098  0.00  0.00     0.103 A 
ATOM     19  C13 NON d   1     -41.882  19.781  -4.444  0.00  0.00     0.053 A 
BRANCH  18  20
ATOM     20  N3  NON d   1     -41.022  22.098  -4.694  0.00  0.00    -0.116 N 
ATOM     21  O3  NON d   1     -40.580  22.925  -5.503  0.00  0.00    -0.532 OA
ATOM     22  O4  NON d   1     -41.451  22.380  -3.565  0.00  0.00    -0.532 OA
ENDBRANCH  18  20
ENDBRANCH   2  14
TORSDOF 6
ENDMDL
MODEL 6
REMARK VINA RESULT:   -10.348      3.007      4.126
REMARK INTER + INTRA:         -13.774
REMARK INTER:                 -12.138
REMARK INTRA:                  -1.637
REMARK CONF_INDEPENDENT:        1.790
REMARK UNBOUND:                -1.637
REMARK  6 active torsions:
REMARK  status: ('A' for Active; 'I' for Inactive)
REMARK    1  A    between atoms: C2_2  and  C3_3 
REMARK    2  A    between atoms: C3_3  and  C4_4 
REMARK    3  A    between atoms: C3_3  and  C6_6 
REMARK       I    between atoms: C6_6  and  N1_8 
REMARK    4  A    between atoms: N1_8  and  N2_9 
REMARK       I    between atoms: N2_9  and  C7_10 
REMARK    5  A    between atoms: C7_10  and  C8_12 
REMARK    6  A    between atoms: C12_16  and  N3_17 
ROOT
ATOM      1  N2  NON d   1     -41.513  20.948  -4.302  0.00  0.00    -0.263 N 
ATOM      2  C7  NON d   1     -41.779  19.953  -5.220  0.00  0.00     0.270 C 
ATOM      3  O2  NON d   1     -41.415  20.026  -6.391  0.00  0.00    -0.266 OA
ATOM      4  H13 NON d   1     -41.704  20.902  -3.304  0.00  0.00     0.190 HD
ENDROOT
BRANCH   1   5
ATOM      5  N1  NON d   1     -40.936  22.144  -4.751  0.00  0.00    -0.267 N 
ATOM      6  C6  NON d   1     -40.979  23.232  -3.905  0.00  0.00     0.240 C 
ATOM      7  O1  NON d   1     -41.400  23.109  -2.753  0.00  0.00    -0.271 OA
ATOM      8  H12 NON d   1     -40.571  22.144  -5.701  0.00  0.00     0.190 HD
BRANCH   6   9
ATOM      9  C3  NON d   1     -40.629  24.594  -4.534  0.00  0.00     0.079 C 
BRANCH   9  10
ATOM     10  C2  NON d   1     -40.766  25.728  -3.493  0.00  0.00     0.010 C 
ATOM     11  C1  NON d   1     -41.330  27.024  -4.066  0.00  0.00     0.006 C 
ENDBRANCH   9  10
BRANCH   9  12
ATOM     12  C4  NON d   1     -39.247  24.631  -5.220  0.00  0.00     0.010 C 
ATOM     13  C5  NON d   1     -39.234  24.184  -6.675  0.00  0.00     0.006 C 
ENDBRANCH   9  12
ENDBRANCH   6   9
ENDBRANCH   1   5
BRANCH   2  14
ATOM     14  C8  NON d   1     -42.563  18.772  -4.746  0.00  0.00     0.036 A 
ATOM     15  C9  NON d   1     -42.178  18.006  -3.635  0.00  0.00     0.017 A 
ATOM     16  C10 NON d   1     -42.980  16.948  -3.187  0.00  0.00     0.003 A 
ATOM     17  C11 NON d   1     -44.178  16.652  -3.834  0.00  0.00     0.036 A 
ATOM     18  C12 NON d   1     -44.568  17.415  -4.942  0.00  0.00     0.103 A 
ATOM     19  C13 NON d   1     -43.769  18.474  -5.401  0.00  0.00     0.053 A 
BRANCH  18  20
ATOM     20  N3  NON d   1     -45.838  17.116  -5.614  0.00  0.00    -0.116 N 
ATOM     21  O3  NON d   1     -46.341  18.005  -6.315  0.00  0.00    -0.532 OA
ATOM     22  O4  NON d   1     -46.336  15.994  -5.438  0.00  0.00    -0.532 OA
ENDBRANCH  18  20
ENDBRANCH   2  14
TORSDOF 6
ENDMDL
MODEL 7
REMARK VINA RESULT:   -10.317      3.013      4.071
REMARK INTER + INTRA:         -13.759
REMARK INTER:                 -12.106
REMARK INTRA:                  -1.653
REMARK CONF_INDEPENDENT:        1.790
REMARK UNBOUND:                -1.653
REMARK  6 active torsions:
REMARK  status: ('A' for Active; 'I' for Inactive)
REMARK    1  A    between atoms: C2_2  and  C3_3 
REMARK    2  A    between atoms: C3_3  and  C4_4 
REMARK    3  A    between atoms: C3_3  and  C6_6 
REMARK       I    between atoms: C6_6  and  N1_8 
REMARK    4  A    between atoms: N1_8  and  N2_9 
REMARK       I    between atoms: N2_9  and  C7_10 
REMARK    5  A    between atoms: C7_10  and  C8_12 
REMARK    6  A    between atoms: C12_16  and  N3_17 
ROOT
ATOM      1  N2  NON d   1     -41.559  20.971  -4.278  0.00  0.00    -0.263 N 
ATOM      2  C7  NON d   1     -41.878  20.010  -5.216  0.00  0.00     0.270 C 
ATOM      3  O2  NON d   1     -41.560  20.116  -6.398  0.00  0.00    -0.266 OA
ATOM      4  H13 NON d   1     -41.710  20.895  -3.276  0.00  0.00     0.190 HD
ENDROOT
BRANCH   1   5
ATOM      5  N1  NON d   1     -40.983  22.173  -4.713  0.00  0.00    -0.267 N 
ATOM      6  C6  NON d   1     -40.757  23.152  -3.769  0.00  0.00     0.240 C 
ATOM      7  O1  NON d   1     -40.944  22.918  -2.573  0.00  0.00    -0.271 OA
ATOM      8  H12 NON d   1     -40.820  22.263  -5.713  0.00  0.00     0.190 HD
BRANCH   6   9
ATOM      9  C3  NON d   1     -40.424  24.554  -4.312  0.00  0.00     0.079 C 
BRANCH   9  10
ATOM     10  C2  NON d   1     -39.892  24.468  -5.759  0.00  0.00     0.010 C 
ATOM     11  C1  NON d   1     -39.753  25.823  -6.445  0.00  0.00     0.006 C 
ENDBRANCH   9  10
BRANCH   9  12
ATOM     12  C4  NON d   1     -41.590  25.560  -4.205  0.00  0.00     0.010 C 
ATOM     13  C5  NON d   1     -41.304  26.796  -3.364  0.00  0.00     0.006 C 
ENDBRANCH   9  12
ENDBRANCH   6   9
ENDBRANCH   1   5
BRANCH   2  14
ATOM     14  C8  NON d   1     -42.660  18.826  -4.748  0.00  0.00     0.036 A 
ATOM     15  C9  NON d   1     -42.287  18.069  -3.627  0.00  0.00     0.017 A 
ATOM     16  C10 NON d   1     -43.087  17.007  -3.185  0.00  0.00     0.003 A 
ATOM     17  C11 NON d   1     -44.272  16.698  -3.850  0.00  0.00     0.036 A 
ATOM     18  C12 NON d   1     -44.651  17.452  -4.969  0.00  0.00     0.103 A 
ATOM     19  C13 NON d   1     -43.853  18.515  -5.420  0.00  0.00     0.053 A 
BRANCH  18  20
ATOM     20  N3  NON d   1     -45.907  17.139  -5.659  0.00  0.00    -0.116 N 
ATOM     21  O3  NON d   1     -46.385  18.005  -6.405  0.00  0.00    -0.532 OA
ATOM     22  O4  NON d   1     -46.420  16.029  -5.452  0.00  0.00    -0.532 OA
ENDBRANCH  18  20
ENDBRANCH   2  14
TORSDOF 6
ENDMDL
MODEL 8
REMARK VINA RESULT:   -10.189      3.463      5.810
REMARK INTER + INTRA:         -13.617
REMARK INTER:                 -11.978
REMARK INTRA:                  -1.639
REMARK CONF_INDEPENDENT:        1.790
REMARK UNBOUND:                -1.639
REMARK  6 active torsions:
REMARK  status: ('A' for Active; 'I' for Inactive)
REMARK    1  A    between atoms: C2_2  and  C3_3 
REMARK    2  A    between atoms: C3_3  and  C4_4 
REMARK    3  A    between atoms: C3_3  and  C6_6 
REMARK       I    between atoms: C6_6  and  N1_8 
REMARK    4  A    between atoms: N1_8  and  N2_9 
REMARK       I    between atoms: N2_9  and  C7_10 
REMARK    5  A    between atoms: C7_10  and  C8_12 
REMARK    6  A    between atoms: C12_16  and  N3_17 
ROOT
ATOM      1  N2  NON d   1     -44.756  16.942  -3.890  0.00  0.00    -0.263 N 
ATOM      2  C7  NON d   1     -45.952  16.639  -4.507  0.00  0.00     0.270 C 
ATOM      3  O2  NON d   1     -46.052  16.533  -5.728  0.00  0.00    -0.266 OA
ATOM      4  H13 NON d   1     -44.592  16.949  -2.886  0.00  0.00     0.190 HD
ENDROOT
BRANCH   1   5
ATOM      5  N1  NON d   1     -43.654  17.284  -4.685  0.00  0.00    -0.267 N 
ATOM      6  C6  NON d   1     -42.499  17.679  -4.043  0.00  0.00     0.240 C 
ATOM      7  O1  NON d   1     -42.415  17.609  -2.815  0.00  0.00    -0.271 OA
ATOM      8  H12 NON d   1     -43.798  17.271  -5.692  0.00  0.00     0.190 HD
BRANCH   6   9
ATOM      9  C3  NON d   1     -41.424  18.341  -4.925  0.00  0.00     0.079 C 
BRANCH   9  10
ATOM     10  C2  NON d   1     -42.063  19.368  -5.886  0.00  0.00     0.010 C 
ATOM     11  C1  NON d   1     -41.052  20.104  -6.760  0.00  0.00     0.006 C 
ENDBRANCH   9  10
BRANCH   9  12
ATOM     12  C4  NON d   1     -40.262  18.972  -4.127  0.00  0.00     0.010 C 
ATOM     13  C5  NON d   1     -39.490  18.008  -3.237  0.00  0.00     0.006 C 
ENDBRANCH   9  12
ENDBRANCH   6   9
ENDBRANCH   1   5
BRANCH   2  14
ATOM     14  C8  NON d   1     -47.152  16.465  -3.634  0.00  0.00     0.036 A 
ATOM     15  C9  NON d   1     -47.323  17.172  -2.435  0.00  0.00     0.017 A 
ATOM     16  C10 NON d   1     -48.495  17.026  -1.681  0.00  0.00     0.003 A 
ATOM     17  C11 NON d   1     -49.512  16.183  -2.124  0.00  0.00     0.036 A 
ATOM     18  C12 NON d   1     -49.349  15.475  -3.321  0.00  0.00     0.103 A 
ATOM     19  C13 NON d   1     -48.176  15.613  -4.080  0.00  0.00     0.053 A 
BRANCH  18  20
ATOM     20  N3  NON d   1     -50.427  14.601  -3.797  0.00  0.00    -0.116 N 
ATOM     21  O3  NON d   1     -51.503  14.630  -3.185  0.00  0.00    -0.532 OA
ATOM     22  O4  NON d   1     -50.197  13.881  -4.781  0.00  0.00    -0.532 OA
ENDBRANCH  18  20
ENDBRANCH   2  14
TORSDOF 6
ENDMDL
MODEL 9
REMARK VINA RESULT:    -9.757      7.770     12.435
REMARK INTER + INTRA:         -13.159
REMARK INTER:                 -11.546
REMARK INTRA:                  -1.613
REMARK CONF_INDEPENDENT:        1.790
REMARK UNBOUND:                -1.613
REMARK  6 active torsions:
REMARK  status: ('A' for Active; 'I' for Inactive)
REMARK    1  A    between atoms: C2_2  and  C3_3 
REMARK    2  A    between atoms: C3_3  and  C4_4 
REMARK    3  A    between atoms: C3_3  and  C6_6 
REMARK       I    between atoms: C6_6  and  N1_8 
REMARK    4  A    between atoms: N1_8  and  N2_9 
REMARK       I    between atoms: N2_9  and  C7_10 
REMARK    5  A    between atoms: C7_10  and  C8_12 
REMARK    6  A    between atoms: C12_16  and  N3_17 
ROOT
ATOM      1  N2  NON d   1     -51.710  16.897  -1.854  0.00  0.00    -0.263 N 
ATOM      2  C7  NON d   1     -50.349  16.675  -1.847  0.00  0.00     0.270 C 
ATOM      3  O2  NON d   1     -49.637  16.997  -0.899  0.00  0.00    -0.266 OA
ATOM      4  H13 NON d   1     -52.362  16.570  -2.564  0.00  0.00     0.190 HD
ENDROOT
BRANCH   1   5
ATOM      5  N1  NON d   1     -52.278  17.645  -0.813  0.00  0.00    -0.267 N 
ATOM      6  C6  NON d   1     -53.654  17.722  -0.757  0.00  0.00     0.240 C 
ATOM      7  O1  NON d   1     -54.347  17.053  -1.526  0.00  0.00    -0.271 OA
ATOM      8  H12 NON d   1     -51.630  18.129  -0.196  0.00  0.00     0.190 HD
BRANCH   6   9
ATOM      9  C3  NON d   1     -54.235  18.789   0.190  0.00  0.00     0.079 C 
BRANCH   9  10
ATOM     10  C2  NON d   1     -53.985  20.208  -0.367  0.00  0.00     0.010 C 
ATOM     11  C1  NON d   1     -53.083  21.065   0.516  0.00  0.00     0.006 C 
ENDBRANCH   9  10
BRANCH   9  12
ATOM     12  C4  NON d   1     -55.726  18.578   0.530  0.00  0.00     0.010 C 
ATOM     13  C5  NON d   1     -55.997  17.630   1.690  0.00  0.00     0.006 C 
ENDBRANCH   9  12
ENDBRANCH   6   9
ENDBRANCH   1   5
BRANCH   2  14
ATOM     14  C8  NON d   1     -49.749  16.042  -3.061  0.00  0.00     0.036 A 
ATOM     15  C9  NON d   1     -50.253  14.860  -3.624  0.00  0.00     0.017 A 
ATOM     16  C10 NON d   1     -49.701  14.339  -4.801  0.00  0.00     0.003 A 
ATOM     17  C11 NON d   1     -48.648  14.998  -5.434  0.00  0.00     0.036 A 
ATOM     18  C12 NON d   1     -48.142  16.180  -4.877  0.00  0.00     0.103 A 
ATOM     19  C13 NON d   1     -48.687  16.706  -3.696  0.00  0.00     0.053 A 
BRANCH  18  20
ATOM     20  N3  NON d   1     -47.045  16.884  -5.551  0.00  0.00    -0.116 N 
ATOM     21  O3  NON d   1     -45.906  16.411  -5.444  0.00  0.00    -0.532 OA
ATOM     22  O4  NON d   1     -47.322  17.913  -6.186  0.00  0.00    -0.532 OA
ENDBRANCH  18  20
ENDBRANCH   2  14
TORSDOF 6
ENDMDL
