MODEL 1
REMARK VINA RESULT:   -12.575      0.000      0.000
REMARK INTER + INTRA:         -14.820
REMARK INTER:                 -14.067
REMARK INTRA:                  -0.753
REMARK CONF_INDEPENDENT:        1.492
REMARK UNBOUND:                -0.753
REMARK  5 active torsions:
REMARK  status: ('A' for Active; 'I' for Inactive)
REMARK    1  A    between atoms: C2_2  and  C3_4 
REMARK    2  A    between atoms: C6_7  and  N1_8 
REMARK       I    between atoms: N2_11  and  C9_12 
REMARK    3  A    between atoms: C9_12  and  C10_14 
REMARK    4  A    between atoms: C12_17  and  N3_18 
REMARK       I    between atoms: N3_18  and  C13_19 
REMARK       I    between atoms: C13_19  and  N4_21 
REMARK    5  A    between atoms: N4_21  and  C14_22 
ROOT
ATOM      1  C10 NON d   1     -44.844  16.885  -4.471  0.00  0.00     0.134 A 
ATOM      2  C11 NON d   1     -45.565  17.031  -5.643  0.00  0.00     0.090 A 
ATOM      3  S1  NON d   1     -47.215  16.599  -5.434  0.00  0.00    -0.061 SA
ATOM      4  C12 NON d   1     -46.919  16.337  -3.776  0.00  0.00     0.175 A 
ATOM      5  N5  NON d   1     -45.677  16.477  -3.396  0.00  0.00    -0.218 NA
ENDROOT
BRANCH   1   6
ATOM      6  C9  NON d   1     -43.403  17.170  -4.193  0.00  0.00     0.273 C 
ATOM      7  N2  NON d   1     -42.656  18.183  -4.856  0.00  0.00    -0.344 N 
ATOM      8  C8  NON d   1     -43.183  19.151  -5.809  0.00  0.00     0.146 C 
ATOM      9  C21 NON d   1     -41.444  18.628  -4.155  0.00  0.00     0.146 C 
ATOM     10  C7  NON d   1     -42.137  19.928  -6.642  0.00  0.00     0.143 C 
ATOM     11  N1  NON d   1     -41.001  20.442  -5.838  0.00  0.00    -0.378 N 
ATOM     12  C22 NON d   1     -40.396  19.360  -5.021  0.00  0.00     0.143 C 
ATOM     13  O2  NON d   1     -42.829  16.502  -3.327  0.00  0.00    -0.266 OA
BRANCH  11  14
ATOM     14  C6  NON d   1     -40.130  21.366  -6.467  0.00  0.00     0.030 A 
ATOM     15  C5  NON d   1     -39.758  21.243  -7.818  0.00  0.00     0.030 A 
ATOM     16  C4  NON d   1     -38.914  22.165  -8.468  0.00  0.00     0.017 A 
ATOM     17  C3  NON d   1     -38.411  23.283  -7.798  0.00  0.00     0.009 A 
ATOM     18  C24 NON d   1     -38.783  23.462  -6.470  0.00  0.00     0.017 A 
ATOM     19  C23 NON d   1     -39.630  22.522  -5.828  0.00  0.00     0.030 A 
BRANCH  17  20
ATOM     20  C2  NON d   1     -37.497  24.208  -8.547  0.00  0.00     0.155 C 
ATOM     21  C1  NON d   1     -37.743  24.474 -10.044  0.00  0.00     0.096 C 
ATOM     22  O1  NON d   1     -36.582  24.766  -7.939  0.00  0.00    -0.293 OA
ENDBRANCH  17  20
ENDBRANCH  11  14
ENDBRANCH   1   6
BRANCH   4  23
ATOM     23  N3  NON d   1     -48.058  16.022  -3.084  0.00  0.00    -0.287 N 
ATOM     24  C13 NON d   1     -49.192  16.814  -3.049  0.00  0.00     0.326 C 
ATOM     25  O3  NON d   1     -49.316  17.894  -3.605  0.00  0.00    -0.247 OA
ATOM     26  N4  NON d   1     -50.183  16.185  -2.293  0.00  0.00    -0.309 N 
ATOM     27  H12 NON d   1     -49.899  15.369  -1.774  0.00  0.00     0.170 HD
ATOM     28  H11 NON d   1     -48.098  15.085  -2.725  0.00  0.00     0.172 HD
BRANCH  26  29
ATOM     29  C14 NON d   1     -51.523  16.588  -2.092  0.00  0.00     0.036 A 
ATOM     30  C15 NON d   1     -52.510  15.895  -2.810  0.00  0.00     0.029 A 
ATOM     31  C16 NON d   1     -53.860  16.230  -2.679  0.00  0.00     0.003 A 
ATOM     32  C17 NON d   1     -54.240  17.268  -1.833  0.00  0.00     0.007 A 
ATOM     33  C18 NON d   1     -53.271  17.985  -1.123  0.00  0.00    -0.060 A 
ATOM     34  C19 NON d   1     -53.679  19.083  -0.184  0.00  0.00     0.048 C 
ATOM     35  C20 NON d   1     -51.915  17.630  -1.251  0.00  0.00     0.036 A 
ENDBRANCH  26  29
ENDBRANCH   4  23
TORSDOF 5
ENDMDL
MODEL 2
REMARK VINA RESULT:   -12.272      7.149     11.497
REMARK INTER + INTRA:         -14.547
REMARK INTER:                 -13.764
REMARK INTRA:                  -0.784
REMARK CONF_INDEPENDENT:        1.492
REMARK UNBOUND:                -0.784
REMARK  5 active torsions:
REMARK  status: ('A' for Active; 'I' for Inactive)
REMARK    1  A    between atoms: C2_2  and  C3_4 
REMARK    2  A    between atoms: C6_7  and  N1_8 
REMARK       I    between atoms: N2_11  and  C9_12 
REMARK    3  A    between atoms: C9_12  and  C10_14 
REMARK    4  A    between atoms: C12_17  and  N3_18 
REMARK       I    between atoms: N3_18  and  C13_19 
REMARK       I    between atoms: C13_19  and  N4_21 
REMARK    5  A    between atoms: N4_21  and  C14_22 
ROOT
ATOM      1  C10 NON d   1     -37.616  21.117  -1.110  0.00  0.00     0.134 A 
ATOM      2  C11 NON d   1     -36.849  20.296  -0.301  0.00  0.00     0.090 A 
ATOM      3  S1  NON d   1     -36.532  21.023   1.224  0.00  0.00    -0.061 SA
ATOM      4  C12 NON d   1     -37.511  22.345   0.779  0.00  0.00     0.175 A 
ATOM      5  N5  NON d   1     -37.986  22.311  -0.438  0.00  0.00    -0.218 NA
ENDROOT
BRANCH   1   6
ATOM      6  C9  NON d   1     -38.143  20.877  -2.489  0.00  0.00     0.273 C 
ATOM      7  N2  NON d   1     -39.354  20.183  -2.761  0.00  0.00    -0.344 N 
ATOM      8  C8  NON d   1     -40.308  19.700  -1.771  0.00  0.00     0.146 C 
ATOM      9  C21 NON d   1     -39.941  20.443  -4.083  0.00  0.00     0.146 C 
ATOM     10  C7  NON d   1     -41.368  18.695  -2.276  0.00  0.00     0.143 C 
ATOM     11  N1  NON d   1     -41.995  19.090  -3.561  0.00  0.00    -0.378 N 
ATOM     12  C22 NON d   1     -40.963  19.399  -4.583  0.00  0.00     0.143 C 
ATOM     13  O2  NON d   1     -37.502  21.319  -3.448  0.00  0.00    -0.266 OA
BRANCH  11  14
ATOM     14  C6  NON d   1     -43.140  18.364  -3.972  0.00  0.00     0.030 A 
ATOM     15  C5  NON d   1     -43.591  17.225  -3.281  0.00  0.00     0.030 A 
ATOM     16  C4  NON d   1     -44.742  16.505  -3.659  0.00  0.00     0.017 A 
ATOM     17  C3  NON d   1     -45.523  16.905  -4.745  0.00  0.00     0.009 A 
ATOM     18  C24 NON d   1     -45.132  18.048  -5.435  0.00  0.00     0.017 A 
ATOM     19  C23 NON d   1     -43.968  18.760  -5.046  0.00  0.00     0.030 A 
BRANCH  17  20
ATOM     20  C2  NON d   1     -46.720  16.075  -5.104  0.00  0.00     0.155 C 
ATOM     21  C1  NON d   1     -47.981  16.136  -4.223  0.00  0.00     0.096 C 
ATOM     22  O1  NON d   1     -46.683  15.380  -6.122  0.00  0.00    -0.293 OA
ENDBRANCH  17  20
ENDBRANCH  11  14
ENDBRANCH   1   6
BRANCH   4  23
ATOM     23  N3  NON d   1     -37.657  23.254   1.793  0.00  0.00    -0.287 N 
ATOM     24  C13 NON d   1     -38.876  23.737   2.236  0.00  0.00     0.326 C 
ATOM     25  O3  NON d   1     -39.965  23.436   1.772  0.00  0.00    -0.247 OA
ATOM     26  N4  NON d   1     -38.676  24.610   3.307  0.00  0.00    -0.309 N 
ATOM     27  H12 NON d   1     -37.722  24.878   3.493  0.00  0.00     0.170 HD
ATOM     28  H11 NON d   1     -36.828  23.438   2.328  0.00  0.00     0.172 HD
BRANCH  26  29
ATOM     29  C14 NON d   1     -39.646  25.235   4.122  0.00  0.00     0.036 A 
ATOM     30  C15 NON d   1     -39.191  25.834   5.308  0.00  0.00     0.029 A 
ATOM     31  C16 NON d   1     -40.080  26.470   6.177  0.00  0.00     0.003 A 
ATOM     32  C17 NON d   1     -41.438  26.510   5.876  0.00  0.00     0.007 A 
ATOM     33  C18 NON d   1     -41.916  25.903   4.710  0.00  0.00    -0.060 A 
ATOM     34  C19 NON d   1     -43.375  25.973   4.365  0.00  0.00     0.048 C 
ATOM     35  C20 NON d   1     -41.011  25.278   3.833  0.00  0.00     0.036 A 
ENDBRANCH  26  29
ENDBRANCH   4  23
TORSDOF 5
ENDMDL
MODEL 3
REMARK VINA RESULT:   -11.160      3.487     12.921
REMARK INTER + INTRA:         -13.465
REMARK INTER:                 -12.651
REMARK INTRA:                  -0.814
REMARK CONF_INDEPENDENT:        1.492
REMARK UNBOUND:                -0.814
REMARK  5 active torsions:
REMARK  status: ('A' for Active; 'I' for Inactive)
REMARK    1  A    between atoms: C2_2  and  C3_4 
REMARK    2  A    between atoms: C6_7  and  N1_8 
REMARK       I    between atoms: N2_11  and  C9_12 
REMARK    3  A    between atoms: C9_12  and  C10_14 
REMARK    4  A    between atoms: C12_17  and  N3_18 
REMARK       I    between atoms: N3_18  and  C13_19 
REMARK       I    between atoms: C13_19  and  N4_21 
REMARK    5  A    between atoms: N4_21  and  C14_22 
ROOT
ATOM      1  C10 NON d   1     -40.104  20.473  -5.810  0.00  0.00     0.134 A 
ATOM      2  C11 NON d   1     -39.597  21.719  -5.485  0.00  0.00     0.090 A 
ATOM      3  S1  NON d   1     -39.354  22.691  -6.882  0.00  0.00    -0.061 SA
ATOM      4  C12 NON d   1     -40.029  21.453  -7.840  0.00  0.00     0.175 A 
ATOM      5  N5  NON d   1     -40.346  20.357  -7.204  0.00  0.00    -0.218 NA
ENDROOT
BRANCH   1   6
ATOM      6  C9  NON d   1     -40.488  19.335  -4.919  0.00  0.00     0.273 C 
ATOM      7  N2  NON d   1     -41.812  18.826  -4.814  0.00  0.00    -0.344 N 
ATOM      8  C8  NON d   1     -42.957  19.243  -5.611  0.00  0.00     0.146 C 
ATOM      9  C21 NON d   1     -41.916  17.461  -4.280  0.00  0.00     0.146 C 
ATOM     10  C7  NON d   1     -44.346  18.796  -5.100  0.00  0.00     0.143 C 
ATOM     11  N1  NON d   1     -44.396  17.372  -4.687  0.00  0.00    -0.378 N 
ATOM     12  C22 NON d   1     -43.303  17.057  -3.733  0.00  0.00     0.143 C 
ATOM     13  O2  NON d   1     -39.604  18.793  -4.246  0.00  0.00    -0.266 OA
BRANCH  11  14
ATOM     14  C6  NON d   1     -45.675  16.815  -4.439  0.00  0.00     0.030 A 
ATOM     15  C5  NON d   1     -46.298  16.903  -3.180  0.00  0.00     0.030 A 
ATOM     16  C4  NON d   1     -47.579  16.379  -2.921  0.00  0.00     0.017 A 
ATOM     17  C3  NON d   1     -48.323  15.753  -3.924  0.00  0.00     0.009 A 
ATOM     18  C24 NON d   1     -47.759  15.677  -5.193  0.00  0.00     0.017 A 
ATOM     19  C23 NON d   1     -46.465  16.206  -5.438  0.00  0.00     0.030 A 
BRANCH  17  20
ATOM     20  C2  NON d   1     -49.670  15.196  -3.568  0.00  0.00     0.155 C 
ATOM     21  C1  NON d   1     -50.687  16.081  -2.822  0.00  0.00     0.096 C 
ATOM     22  O1  NON d   1     -49.951  14.046  -3.910  0.00  0.00    -0.293 OA
ENDBRANCH  17  20
ENDBRANCH  11  14
ENDBRANCH   1   6
BRANCH   4  23
ATOM     23  N3  NON d   1     -40.143  21.813  -9.156  0.00  0.00    -0.287 N 
ATOM     24  C13 NON d   1     -39.110  21.744 -10.075  0.00  0.00     0.326 C 
ATOM     25  O3  NON d   1     -37.971  21.380  -9.830  0.00  0.00    -0.247 OA
ATOM     26  N4  NON d   1     -39.570  22.140 -11.332  0.00  0.00    -0.309 N 
ATOM     27  H12 NON d   1     -40.490  22.552 -11.363  0.00  0.00     0.170 HD
ATOM     28  H11 NON d   1     -41.080  21.979  -9.478  0.00  0.00     0.172 HD
BRANCH  26  29
ATOM     29  C14 NON d   1     -38.883  22.115 -12.566  0.00  0.00     0.036 A 
ATOM     30  C15 NON d   1     -39.213  23.111 -13.499  0.00  0.00     0.029 A 
ATOM     31  C16 NON d   1     -38.588  23.159 -14.748  0.00  0.00     0.003 A 
ATOM     32  C17 NON d   1     -37.629  22.207 -15.083  0.00  0.00     0.007 A 
ATOM     33  C18 NON d   1     -37.299  21.195 -14.176  0.00  0.00    -0.060 A 
ATOM     34  C19 NON d   1     -36.241  20.187 -14.520  0.00  0.00     0.048 C 
ATOM     35  C20 NON d   1     -37.923  21.164 -12.916  0.00  0.00     0.036 A 
ENDBRANCH  26  29
ENDBRANCH   4  23
TORSDOF 5
ENDMDL
MODEL 4
REMARK VINA RESULT:   -10.787      2.624      4.256
REMARK INTER + INTRA:         -13.045
REMARK INTER:                 -12.279
REMARK INTRA:                  -0.766
REMARK CONF_INDEPENDENT:        1.492
REMARK UNBOUND:                -0.766
REMARK  5 active torsions:
REMARK  status: ('A' for Active; 'I' for Inactive)
REMARK    1  A    between atoms: C2_2  and  C3_4 
REMARK    2  A    between atoms: C6_7  and  N1_8 
REMARK       I    between atoms: N2_11  and  C9_12 
REMARK    3  A    between atoms: C9_12  and  C10_14 
REMARK    4  A    between atoms: C12_17  and  N3_18 
REMARK       I    between atoms: N3_18  and  C13_19 
REMARK       I    between atoms: C13_19  and  N4_21 
REMARK    5  A    between atoms: N4_21  and  C14_22 
ROOT
ATOM      1  C10 NON d   1     -41.539  18.644  -5.135  0.00  0.00     0.134 A 
ATOM      2  C11 NON d   1     -41.656  17.441  -5.810  0.00  0.00     0.090 A 
ATOM      3  S1  NON d   1     -42.972  16.506  -5.220  0.00  0.00    -0.061 SA
ATOM      4  C12 NON d   1     -43.387  17.782  -4.170  0.00  0.00     0.175 A 
ATOM      5  N5  NON d   1     -42.577  18.807  -4.181  0.00  0.00    -0.218 NA
ENDROOT
BRANCH   1   6
ATOM      6  C9  NON d   1     -40.567  19.762  -5.336  0.00  0.00     0.273 C 
ATOM      7  N2  NON d   1     -40.335  20.391  -6.591  0.00  0.00    -0.344 N 
ATOM      8  C8  NON d   1     -41.061  20.132  -7.827  0.00  0.00     0.146 C 
ATOM      9  C21 NON d   1     -39.729  21.728  -6.518  0.00  0.00     0.146 C 
ATOM     10  C7  NON d   1     -40.422  20.683  -9.123  0.00  0.00     0.143 C 
ATOM     11  N1  NON d   1     -39.938  22.079  -8.999  0.00  0.00    -0.378 N 
ATOM     12  C22 NON d   1     -39.057  22.233  -7.813  0.00  0.00     0.143 C 
ATOM     13  O2  NON d   1     -39.939  20.177  -4.356  0.00  0.00    -0.266 OA
BRANCH  11  14
ATOM     14  C6  NON d   1     -39.565  22.743 -10.194  0.00  0.00     0.030 A 
ATOM     15  C5  NON d   1     -38.844  22.096 -11.215  0.00  0.00     0.030 A 
ATOM     16  C4  NON d   1     -38.487  22.731 -12.420  0.00  0.00     0.017 A 
ATOM     17  C3  NON d   1     -38.855  24.053 -12.680  0.00  0.00     0.009 A 
ATOM     18  C24 NON d   1     -39.600  24.718 -11.712  0.00  0.00     0.017 A 
ATOM     19  C23 NON d   1     -39.949  24.067 -10.500  0.00  0.00     0.030 A 
BRANCH  17  20
ATOM     20  C2  NON d   1     -38.417  24.672 -13.976  0.00  0.00     0.155 C 
ATOM     21  C1  NON d   1     -38.894  24.066 -15.308  0.00  0.00     0.096 C 
ATOM     22  O1  NON d   1     -37.706  25.678 -13.947  0.00  0.00    -0.293 OA
ENDBRANCH  17  20
ENDBRANCH  11  14
ENDBRANCH   1   6
BRANCH   4  23
ATOM     23  N3  NON d   1     -44.537  17.532  -3.470  0.00  0.00    -0.287 N 
ATOM     24  C13 NON d   1     -45.716  17.086  -4.041  0.00  0.00     0.326 C 
ATOM     25  O3  NON d   1     -45.889  16.882  -5.233  0.00  0.00    -0.247 OA
ATOM     26  N4  NON d   1     -46.677  16.889  -3.048  0.00  0.00    -0.309 N 
ATOM     27  H12 NON d   1     -46.446  17.232  -2.129  0.00  0.00     0.170 HD
ATOM     28  H11 NON d   1     -44.440  17.527  -2.471  0.00  0.00     0.172 HD
BRANCH  26  29
ATOM     29  C14 NON d   1     -47.972  16.340  -3.177  0.00  0.00     0.036 A 
ATOM     30  C15 NON d   1     -48.098  15.184  -3.963  0.00  0.00     0.029 A 
ATOM     31  C16 NON d   1     -49.342  14.577  -4.150  0.00  0.00     0.003 A 
ATOM     32  C17 NON d   1     -50.479  15.122  -3.560  0.00  0.00     0.007 A 
ATOM     33  C18 NON d   1     -50.379  16.284  -2.789  0.00  0.00    -0.060 A 
ATOM     34  C19 NON d   1     -51.596  16.857  -2.122  0.00  0.00     0.048 C 
ATOM     35  C20 NON d   1     -49.119  16.880  -2.593  0.00  0.00     0.036 A 
ENDBRANCH  26  29
ENDBRANCH   4  23
TORSDOF 5
ENDMDL
MODEL 5
REMARK VINA RESULT:   -10.747      4.542     12.109
REMARK INTER + INTRA:         -12.987
REMARK INTER:                 -12.239
REMARK INTRA:                  -0.748
REMARK CONF_INDEPENDENT:        1.492
REMARK UNBOUND:                -0.748
REMARK  5 active torsions:
REMARK  status: ('A' for Active; 'I' for Inactive)
REMARK    1  A    between atoms: C2_2  and  C3_4 
REMARK    2  A    between atoms: C6_7  and  N1_8 
REMARK       I    between atoms: N2_11  and  C9_12 
REMARK    3  A    between atoms: C9_12  and  C10_14 
REMARK    4  A    between atoms: C12_17  and  N3_18 
REMARK       I    between atoms: N3_18  and  C13_19 
REMARK       I    between atoms: C13_19  and  N4_21 
REMARK    5  A    between atoms: N4_21  and  C14_22 
ROOT
ATOM      1  C10 NON d   1     -37.602  22.599  -4.255  0.00  0.00     0.134 A 
ATOM      2  C11 NON d   1     -36.683  23.588  -3.949  0.00  0.00     0.090 A 
ATOM      3  S1  NON d   1     -36.306  24.552  -5.322  0.00  0.00    -0.061 SA
ATOM      4  C12 NON d   1     -37.453  23.678  -6.230  0.00  0.00     0.175 A 
ATOM      5  N5  NON d   1     -38.031  22.687  -5.605  0.00  0.00    -0.218 NA
ENDROOT
BRANCH   1   6
ATOM      6  C9  NON d   1     -38.225  21.567  -3.370  0.00  0.00     0.273 C 
ATOM      7  N2  NON d   1     -39.427  20.876  -3.688  0.00  0.00    -0.344 N 
ATOM      8  C8  NON d   1     -40.170  20.977  -4.937  0.00  0.00     0.146 C 
ATOM      9  C21 NON d   1     -39.631  19.611  -2.967  0.00  0.00     0.146 C 
ATOM     10  C7  NON d   1     -41.604  20.400  -4.928  0.00  0.00     0.143 C 
ATOM     11  N1  NON d   1     -41.704  19.068  -4.283  0.00  0.00    -0.378 N 
ATOM     12  C22 NON d   1     -41.081  19.082  -2.935  0.00  0.00     0.143 C 
ATOM     13  O2  NON d   1     -37.658  21.284  -2.309  0.00  0.00    -0.266 OA
BRANCH  11  14
ATOM     14  C6  NON d   1     -42.920  18.360  -4.445  0.00  0.00     0.030 A 
ATOM     15  C5  NON d   1     -43.220  17.207  -3.696  0.00  0.00     0.030 A 
ATOM     16  C4  NON d   1     -44.435  16.505  -3.824  0.00  0.00     0.017 A 
ATOM     17  C3  NON d   1     -45.433  16.937  -4.701  0.00  0.00     0.009 A 
ATOM     18  C24 NON d   1     -45.191  18.094  -5.435  0.00  0.00     0.017 A 
ATOM     19  C23 NON d   1     -43.961  18.788  -5.298  0.00  0.00     0.030 A 
BRANCH  17  20
ATOM     20  C2  NON d   1     -46.690  16.124  -4.803  0.00  0.00     0.155 C 
ATOM     21  C1  NON d   1     -47.761  16.237  -3.702  0.00  0.00     0.096 C 
ATOM     22  O1  NON d   1     -46.856  15.401  -5.787  0.00  0.00    -0.293 OA
ENDBRANCH  17  20
ENDBRANCH  11  14
ENDBRANCH   1   6
BRANCH   4  23
ATOM     23  N3  NON d   1     -37.600  24.169  -7.500  0.00  0.00    -0.287 N 
ATOM     24  C13 NON d   1     -38.335  23.548  -8.495  0.00  0.00     0.326 C 
ATOM     25  O3  NON d   1     -38.923  22.485  -8.378  0.00  0.00    -0.247 OA
ATOM     26  N4  NON d   1     -38.318  24.330  -9.651  0.00  0.00    -0.309 N 
ATOM     27  H12 NON d   1     -37.678  25.109  -9.655  0.00  0.00     0.170 HD
ATOM     28  H11 NON d   1     -37.278  25.110  -7.638  0.00  0.00     0.172 HD
BRANCH  26  29
ATOM     29  C14 NON d   1     -39.023  24.127 -10.858  0.00  0.00     0.036 A 
ATOM     30  C15 NON d   1     -38.776  22.929 -11.547  0.00  0.00     0.029 A 
ATOM     31  C16 NON d   1     -39.424  22.647 -12.751  0.00  0.00     0.003 A 
ATOM     32  C17 NON d   1     -40.324  23.563 -13.288  0.00  0.00     0.007 A 
ATOM     33  C18 NON d   1     -40.571  24.772 -12.629  0.00  0.00    -0.060 A 
ATOM     34  C19 NON d   1     -41.566  25.748 -13.187  0.00  0.00     0.048 C 
ATOM     35  C20 NON d   1     -39.924  25.040 -11.409  0.00  0.00     0.036 A 
ENDBRANCH  26  29
ENDBRANCH   4  23
TORSDOF 5
ENDMDL
MODEL 6
REMARK VINA RESULT:   -10.403      5.605     11.048
REMARK INTER + INTRA:         -12.505
REMARK INTER:                 -11.895
REMARK INTRA:                  -0.610
REMARK CONF_INDEPENDENT:        1.492
REMARK UNBOUND:                -0.610
REMARK  5 active torsions:
REMARK  status: ('A' for Active; 'I' for Inactive)
REMARK    1  A    between atoms: C2_2  and  C3_4 
REMARK    2  A    between atoms: C6_7  and  N1_8 
REMARK       I    between atoms: N2_11  and  C9_12 
REMARK    3  A    between atoms: C9_12  and  C10_14 
REMARK    4  A    between atoms: C12_17  and  N3_18 
REMARK       I    between atoms: N3_18  and  C13_19 
REMARK       I    between atoms: C13_19  and  N4_21 
REMARK    5  A    between atoms: N4_21  and  C14_22 
ROOT
ATOM      1  C10 NON d   1     -39.172  19.495  -3.169  0.00  0.00     0.134 A 
ATOM      2  C11 NON d   1     -37.823  19.718  -2.956  0.00  0.00     0.090 A 
ATOM      3  S1  NON d   1     -37.550  20.681  -1.559  0.00  0.00    -0.061 SA
ATOM      4  C12 NON d   1     -39.225  20.671  -1.245  0.00  0.00     0.175 A 
ATOM      5  N5  NON d   1     -39.963  20.071  -2.140  0.00  0.00    -0.218 NA
ENDROOT
BRANCH   1   6
ATOM      6  C9  NON d   1     -39.853  18.698  -4.236  0.00  0.00     0.273 C 
ATOM      7  N2  NON d   1     -41.189  18.222  -4.135  0.00  0.00    -0.344 N 
ATOM      8  C8  NON d   1     -42.124  18.514  -3.056  0.00  0.00     0.146 C 
ATOM      9  C21 NON d   1     -41.831  17.885  -5.413  0.00  0.00     0.146 C 
ATOM     10  C7  NON d   1     -43.390  17.629  -2.992  0.00  0.00     0.143 C 
ATOM     11  N1  NON d   1     -44.044  17.431  -4.308  0.00  0.00    -0.378 N 
ATOM     12  C22 NON d   1     -43.066  16.962  -5.322  0.00  0.00     0.143 C 
ATOM     13  O2  NON d   1     -39.227  18.451  -5.273  0.00  0.00    -0.266 OA
BRANCH  11  14
ATOM     14  C6  NON d   1     -45.334  16.844  -4.308  0.00  0.00     0.030 A 
ATOM     15  C5  NON d   1     -46.180  16.899  -3.186  0.00  0.00     0.030 A 
ATOM     16  C4  NON d   1     -47.475  16.344  -3.175  0.00  0.00     0.017 A 
ATOM     17  C3  NON d   1     -48.005  15.719  -4.306  0.00  0.00     0.009 A 
ATOM     18  C24 NON d   1     -47.214  15.674  -5.450  0.00  0.00     0.017 A 
ATOM     19  C23 NON d   1     -45.910  16.234  -5.444  0.00  0.00     0.030 A 
BRANCH  17  20
ATOM     20  C2  NON d   1     -49.382  15.129  -4.213  0.00  0.00     0.155 C 
ATOM     21  C1  NON d   1     -50.242  15.396  -2.964  0.00  0.00     0.096 C 
ATOM     22  O1  NON d   1     -49.812  14.464  -5.157  0.00  0.00    -0.293 OA
ENDBRANCH  17  20
ENDBRANCH  11  14
ENDBRANCH   1   6
BRANCH   4  23
ATOM     23  N3  NON d   1     -39.542  21.302  -0.072  0.00  0.00    -0.287 N 
ATOM     24  C13 NON d   1     -39.931  22.627   0.020  0.00  0.00     0.326 C 
ATOM     25  O3  NON d   1     -40.019  23.403  -0.919  0.00  0.00    -0.247 OA
ATOM     26  N4  NON d   1     -40.223  22.943   1.348  0.00  0.00    -0.309 N 
ATOM     27  H12 NON d   1     -39.970  22.252   2.037  0.00  0.00     0.170 HD
ATOM     28  H11 NON d   1     -39.643  20.702   0.727  0.00  0.00     0.172 HD
BRANCH  26  29
ATOM     29  C14 NON d   1     -40.757  24.143   1.868  0.00  0.00     0.036 A 
ATOM     30  C15 NON d   1     -40.968  25.192   0.959  0.00  0.00     0.029 A 
ATOM     31  C16 NON d   1     -41.487  26.417   1.386  0.00  0.00     0.003 A 
ATOM     32  C17 NON d   1     -41.795  26.612   2.729  0.00  0.00     0.007 A 
ATOM     33  C18 NON d   1     -41.574  25.587   3.655  0.00  0.00    -0.060 A 
ATOM     34  C19 NON d   1     -41.937  25.781   5.099  0.00  0.00     0.048 C 
ATOM     35  C20 NON d   1     -41.066  24.352   3.213  0.00  0.00     0.036 A 
ENDBRANCH  26  29
ENDBRANCH   4  23
TORSDOF 5
ENDMDL
MODEL 7
REMARK VINA RESULT:   -10.221      3.283     12.311
REMARK INTER + INTRA:         -12.417
REMARK INTER:                 -11.713
REMARK INTRA:                  -0.705
REMARK CONF_INDEPENDENT:        1.492
REMARK UNBOUND:                -0.705
REMARK  5 active torsions:
REMARK  status: ('A' for Active; 'I' for Inactive)
REMARK    1  A    between atoms: C2_2  and  C3_4 
REMARK    2  A    between atoms: C6_7  and  N1_8 
REMARK       I    between atoms: N2_11  and  C9_12 
REMARK    3  A    between atoms: C9_12  and  C10_14 
REMARK    4  A    between atoms: C12_17  and  N3_18 
REMARK       I    between atoms: N3_18  and  C13_19 
REMARK       I    between atoms: C13_19  and  N4_21 
REMARK    5  A    between atoms: N4_21  and  C14_22 
ROOT
ATOM      1  C10 NON d   1     -39.969  20.409  -5.516  0.00  0.00     0.134 A 
ATOM      2  C11 NON d   1     -39.359  21.600  -5.161  0.00  0.00     0.090 A 
ATOM      3  S1  NON d   1     -39.092  22.610  -6.526  0.00  0.00    -0.061 SA
ATOM      4  C12 NON d   1     -39.891  21.467  -7.506  0.00  0.00     0.175 A 
ATOM      5  N5  NON d   1     -40.267  20.371  -6.903  0.00  0.00    -0.218 NA
ENDROOT
BRANCH   1   6
ATOM      6  C9  NON d   1     -40.406  19.266  -4.656  0.00  0.00     0.273 C 
ATOM      7  N2  NON d   1     -41.741  18.777  -4.611  0.00  0.00    -0.344 N 
ATOM      8  C8  NON d   1     -42.847  19.224  -5.448  0.00  0.00     0.146 C 
ATOM      9  C21 NON d   1     -41.888  17.407  -4.101  0.00  0.00     0.146 C 
ATOM     10  C7  NON d   1     -44.262  18.793  -4.998  0.00  0.00     0.143 C 
ATOM     11  N1  NON d   1     -44.351  17.365  -4.608  0.00  0.00    -0.378 N 
ATOM     12  C22 NON d   1     -43.302  17.018  -3.616  0.00  0.00     0.143 C 
ATOM     13  O2  NON d   1     -39.559  18.701  -3.957  0.00  0.00    -0.266 OA
BRANCH  11  14
ATOM     14  C6  NON d   1     -45.647  16.826  -4.419  0.00  0.00     0.030 A 
ATOM     15  C5  NON d   1     -46.354  16.983  -3.212  0.00  0.00     0.030 A 
ATOM     16  C4  NON d   1     -47.654  16.477  -3.014  0.00  0.00     0.017 A 
ATOM     17  C3  NON d   1     -48.331  15.800  -4.031  0.00  0.00     0.009 A 
ATOM     18  C24 NON d   1     -47.682  15.653  -5.252  0.00  0.00     0.017 A 
ATOM     19  C23 NON d   1     -46.371  16.165  -5.436  0.00  0.00     0.030 A 
BRANCH  17  20
ATOM     20  C2  NON d   1     -49.703  15.267  -3.739  0.00  0.00     0.155 C 
ATOM     21  C1  NON d   1     -50.646  16.057  -2.813  0.00  0.00     0.096 C 
ATOM     22  O1  NON d   1     -50.063  14.217  -4.275  0.00  0.00    -0.293 OA
ENDBRANCH  17  20
ENDBRANCH  11  14
ENDBRANCH   1   6
BRANCH   4  23
ATOM     23  N3  NON d   1     -40.023  21.890  -8.802  0.00  0.00    -0.287 N 
ATOM     24  C13 NON d   1     -40.278  23.199  -9.172  0.00  0.00     0.326 C 
ATOM     25  O3  NON d   1     -40.437  24.132  -8.400  0.00  0.00    -0.247 OA
ATOM     26  N4  NON d   1     -40.309  23.298 -10.564  0.00  0.00    -0.309 N 
ATOM     27  H12 NON d   1     -40.305  22.429 -11.074  0.00  0.00     0.170 HD
ATOM     28  H11 NON d   1     -39.757  21.221  -9.502  0.00  0.00     0.172 HD
BRANCH  26  29
ATOM     29  C14 NON d   1     -40.428  24.460 -11.359  0.00  0.00     0.036 A 
ATOM     30  C15 NON d   1     -39.710  25.592 -10.942  0.00  0.00     0.029 A 
ATOM     31  C16 NON d   1     -39.773  26.787 -11.663  0.00  0.00     0.003 A 
ATOM     32  C17 NON d   1     -40.561  26.868 -12.807  0.00  0.00     0.007 A 
ATOM     33  C18 NON d   1     -41.300  25.758 -13.229  0.00  0.00    -0.060 A 
ATOM     34  C19 NON d   1     -42.125  25.831 -14.482  0.00  0.00     0.048 C 
ATOM     35  C20 NON d   1     -41.218  24.555 -12.505  0.00  0.00     0.036 A 
ENDBRANCH  26  29
ENDBRANCH   4  23
TORSDOF 5
ENDMDL
MODEL 8
REMARK VINA RESULT:    -9.864      1.770      1.876
REMARK INTER + INTRA:         -12.006
REMARK INTER:                 -11.356
REMARK INTRA:                  -0.651
REMARK CONF_INDEPENDENT:        1.492
REMARK UNBOUND:                -0.651
REMARK  5 active torsions:
REMARK  status: ('A' for Active; 'I' for Inactive)
REMARK    1  A    between atoms: C2_2  and  C3_4 
REMARK    2  A    between atoms: C6_7  and  N1_8 
REMARK       I    between atoms: N2_11  and  C9_12 
REMARK    3  A    between atoms: C9_12  and  C10_14 
REMARK    4  A    between atoms: C12_17  and  N3_18 
REMARK       I    between atoms: N3_18  and  C13_19 
REMARK       I    between atoms: C13_19  and  N4_21 
REMARK    5  A    between atoms: N4_21  and  C14_22 
ROOT
ATOM      1  C10 NON d   1     -45.087  16.544  -4.876  0.00  0.00     0.134 A 
ATOM      2  C11 NON d   1     -45.951  16.848  -5.914  0.00  0.00     0.090 A 
ATOM      3  S1  NON d   1     -47.595  16.708  -5.435  0.00  0.00    -0.061 SA
ATOM      4  C12 NON d   1     -47.085  16.352  -3.848  0.00  0.00     0.175 A 
ATOM      5  N5  NON d   1     -45.794  16.260  -3.678  0.00  0.00    -0.218 NA
ENDROOT
BRANCH   1   6
ATOM      6  C9  NON d   1     -43.592  16.564  -4.840  0.00  0.00     0.273 C 
ATOM      7  N2  NON d   1     -42.819  17.757  -4.801  0.00  0.00    -0.344 N 
ATOM      8  C8  NON d   1     -43.338  19.113  -4.685  0.00  0.00     0.146 C 
ATOM      9  C21 NON d   1     -41.444  17.596  -4.307  0.00  0.00     0.146 C 
ATOM     10  C7  NON d   1     -42.344  20.255  -4.996  0.00  0.00     0.143 C 
ATOM     11  N1  NON d   1     -41.014  20.072  -4.366  0.00  0.00    -0.378 N 
ATOM     12  C22 NON d   1     -40.461  18.729  -4.672  0.00  0.00     0.143 C 
ATOM     13  O2  NON d   1     -42.991  15.484  -4.826  0.00  0.00    -0.266 OA
BRANCH  11  14
ATOM     14  C6  NON d   1     -40.128  21.177  -4.393  0.00  0.00     0.030 A 
ATOM     15  C5  NON d   1     -38.817  21.073  -4.894  0.00  0.00     0.030 A 
ATOM     16  C4  NON d   1     -37.930  22.166  -4.953  0.00  0.00     0.017 A 
ATOM     17  C3  NON d   1     -38.320  23.439  -4.532  0.00  0.00     0.009 A 
ATOM     18  C24 NON d   1     -39.620  23.594  -4.062  0.00  0.00     0.017 A 
ATOM     19  C23 NON d   1     -40.501  22.483  -4.004  0.00  0.00     0.030 A 
BRANCH  17  20
ATOM     20  C2  NON d   1     -37.313  24.550  -4.601  0.00  0.00     0.155 C 
ATOM     21  C1  NON d   1     -36.845  25.069  -5.973  0.00  0.00     0.096 C 
ATOM     22  O1  NON d   1     -36.901  25.050  -3.552  0.00  0.00    -0.293 OA
ENDBRANCH  17  20
ENDBRANCH  11  14
ENDBRANCH   1   6
BRANCH   4  23
ATOM     23  N3  NON d   1     -48.134  16.223  -2.977  0.00  0.00    -0.287 N 
ATOM     24  C13 NON d   1     -49.322  16.926  -3.079  0.00  0.00     0.326 C 
ATOM     25  O3  NON d   1     -49.578  17.758  -3.935  0.00  0.00    -0.247 OA
ATOM     26  N4  NON d   1     -50.194  16.529  -2.063  0.00  0.00    -0.309 N 
ATOM     27  H12 NON d   1     -49.803  15.942  -1.343  0.00  0.00     0.170 HD
ATOM     28  H11 NON d   1     -48.069  15.454  -2.335  0.00  0.00     0.172 HD
BRANCH  26  29
ATOM     29  C14 NON d   1     -51.540  16.908  -1.864  0.00  0.00     0.036 A 
ATOM     30  C15 NON d   1     -52.515  16.190  -2.574  0.00  0.00     0.029 A 
ATOM     31  C16 NON d   1     -53.871  16.501  -2.444  0.00  0.00     0.003 A 
ATOM     32  C17 NON d   1     -54.269  17.539  -1.606  0.00  0.00     0.007 A 
ATOM     33  C18 NON d   1     -53.313  18.280  -0.905  0.00  0.00    -0.060 A 
ATOM     34  C19 NON d   1     -53.741  19.378   0.026  0.00  0.00     0.048 C 
ATOM     35  C20 NON d   1     -51.951  17.950  -1.031  0.00  0.00     0.036 A 
ENDBRANCH  26  29
ENDBRANCH   4  23
TORSDOF 5
ENDMDL
MODEL 9
REMARK VINA RESULT:    -9.812      3.337      5.700
REMARK INTER + INTRA:         -12.084
REMARK INTER:                 -11.303
REMARK INTRA:                  -0.780
REMARK CONF_INDEPENDENT:        1.492
REMARK UNBOUND:                -0.780
REMARK  5 active torsions:
REMARK  status: ('A' for Active; 'I' for Inactive)
REMARK    1  A    between atoms: C2_2  and  C3_4 
REMARK    2  A    between atoms: C6_7  and  N1_8 
REMARK       I    between atoms: N2_11  and  C9_12 
REMARK    3  A    between atoms: C9_12  and  C10_14 
REMARK    4  A    between atoms: C12_17  and  N3_18 
REMARK       I    between atoms: N3_18  and  C13_19 
REMARK       I    between atoms: C13_19  and  N4_21 
REMARK    5  A    between atoms: N4_21  and  C14_22 
ROOT
ATOM      1  C10 NON d   1     -39.665  19.024  -4.950  0.00  0.00     0.134 A 
ATOM      2  C11 NON d   1     -39.395  19.449  -3.661  0.00  0.00     0.090 A 
ATOM      3  S1  NON d   1     -40.678  19.064  -2.583  0.00  0.00    -0.061 SA
ATOM      4  C12 NON d   1     -41.482  18.262  -3.854  0.00  0.00     0.175 A 
ATOM      5  N5  NON d   1     -40.900  18.329  -5.021  0.00  0.00    -0.218 NA
ENDROOT
BRANCH   1   6
ATOM      6  C9  NON d   1     -38.825  19.124  -6.184  0.00  0.00     0.273 C 
ATOM      7  N2  NON d   1     -39.127  19.984  -7.276  0.00  0.00    -0.344 N 
ATOM      8  C8  NON d   1     -40.208  20.959  -7.328  0.00  0.00     0.146 C 
ATOM      9  C21 NON d   1     -37.992  20.297  -8.157  0.00  0.00     0.146 C 
ATOM     10  C7  NON d   1     -40.543  21.535  -8.723  0.00  0.00     0.143 C 
ATOM     11  N1  NON d   1     -39.346  21.933  -9.504  0.00  0.00    -0.378 N 
ATOM     12  C22 NON d   1     -38.357  20.827  -9.561  0.00  0.00     0.143 C 
ATOM     13  O2  NON d   1     -37.803  18.434  -6.256  0.00  0.00    -0.266 OA
BRANCH  11  14
ATOM     14  C6  NON d   1     -39.565  22.690 -10.681  0.00  0.00     0.030 A 
ATOM     15  C5  NON d   1     -39.432  22.130 -11.965  0.00  0.00     0.030 A 
ATOM     16  C4  NON d   1     -39.670  22.859 -13.147  0.00  0.00     0.017 A 
ATOM     17  C3  NON d   1     -40.080  24.193 -13.105  0.00  0.00     0.009 A 
ATOM     18  C24 NON d   1     -40.258  24.776 -11.854  0.00  0.00     0.017 A 
ATOM     19  C23 NON d   1     -40.011  24.030 -10.673  0.00  0.00     0.030 A 
BRANCH  17  20
ATOM     20  C2  NON d   1     -40.291  24.914 -14.405  0.00  0.00     0.155 C 
ATOM     21  C1  NON d   1     -41.595  25.698 -14.638  0.00  0.00     0.096 C 
ATOM     22  O1  NON d   1     -39.396  24.891 -15.253  0.00  0.00    -0.293 OA
ENDBRANCH  17  20
ENDBRANCH  11  14
ENDBRANCH   1   6
BRANCH   4  23
ATOM     23  N3  NON d   1     -42.636  17.651  -3.440  0.00  0.00    -0.287 N 
ATOM     24  C13 NON d   1     -43.806  17.617  -4.178  0.00  0.00     0.326 C 
ATOM     25  O3  NON d   1     -43.967  18.138  -5.270  0.00  0.00    -0.247 OA
ATOM     26  N4  NON d   1     -44.774  16.880  -3.493  0.00  0.00    -0.309 N 
ATOM     27  H12 NON d   1     -44.555  16.629  -2.542  0.00  0.00     0.170 HD
ATOM     28  H11 NON d   1     -42.548  17.070  -2.626  0.00  0.00     0.172 HD
BRANCH  26  29
ATOM     29  C14 NON d   1     -46.064  16.505  -3.931  0.00  0.00     0.036 A 
ATOM     30  C15 NON d   1     -46.206  16.179  -5.289  0.00  0.00     0.029 A 
ATOM     31  C16 NON d   1     -47.446  15.803  -5.810  0.00  0.00     0.003 A 
ATOM     32  C17 NON d   1     -48.564  15.755  -4.982  0.00  0.00     0.007 A 
ATOM     33  C18 NON d   1     -48.449  16.094  -3.630  0.00  0.00    -0.060 A 
ATOM     34  C19 NON d   1     -49.644  16.011  -2.725  0.00  0.00     0.048 C 
ATOM     35  C20 NON d   1     -47.193  16.457  -3.111  0.00  0.00     0.036 A 
ENDBRANCH  26  29
ENDBRANCH   4  23
TORSDOF 5
ENDMDL
