MODEL 1
REMARK VINA RESULT:   -12.801      0.000      0.000
REMARK INTER + INTRA:         -16.331
REMARK INTER:                 -14.590
REMARK INTRA:                  -1.741
REMARK CONF_INDEPENDENT:        1.790
REMARK UNBOUND:                -1.741
REMARK  6 active torsions:
REMARK  status: ('A' for Active; 'I' for Inactive)
REMARK    1  A    between atoms: C2_2  and  N1_3 
REMARK       I    between atoms: N1_3  and  C3_4 
REMARK       I    between atoms: C3_4  and  N2_6 
REMARK       I    between atoms: N2_6  and  C4_7 
REMARK    2  A    between atoms: C5_9  and  C4_7 
REMARK    3  A    between atoms: C5_9  and  S1_10 
REMARK    4  A    between atoms: C5_9  and  C16_26 
REMARK    5  A    between atoms: S1_10  and  C6_11 
REMARK    6  A    between atoms: C9_16  and  C10_17 
ROOT
ATOM      1  C5  NON d   1     -38.931  21.469  -3.915  0.00  0.00     0.174 C 
ENDROOT
BRANCH   1   2
ATOM      2  C4  NON d   1     -39.621  21.463  -2.507  0.00  0.00     0.224 C 
ATOM      3  N2  NON d   1     -39.659  22.572  -1.716  0.00  0.00    -0.178 NA
ATOM      4  C3  NON d   1     -39.732  22.363  -0.364  0.00  0.00     0.300 C 
ATOM      5  H7  NON d   1     -40.354  23.227  -2.035  0.00  0.00     0.141 HD
ATOM      6  N1  NON d   1     -40.818  22.996   0.224  0.00  0.00    -0.348 N 
ATOM      7  O1  NON d   1     -38.856  21.790   0.268  0.00  0.00    -0.254 OA
ATOM      8  H6  NON d   1     -41.653  22.988  -0.347  0.00  0.00     0.163 HD
ATOM      9  O2  NON d   1     -40.304  20.464  -2.210  0.00  0.00    -0.278 OA
BRANCH   6  10
ATOM     10  C2  NON d   1     -41.050  22.806   1.642  0.00  0.00     0.119 C 
ATOM     11  C1  NON d   1     -40.860  24.091   2.429  0.00  0.00     0.026 C 
ENDBRANCH   6  10
ENDBRANCH   1   2
BRANCH   1  12
ATOM     12  S1  NON d   1     -39.812  21.347  -5.580  0.00  0.00    -0.073 SA
BRANCH  12  13
ATOM     13  C6  NON d   1     -41.082  20.161  -5.154  0.00  0.00     0.172 A 
ATOM     14  N3  NON d   1     -40.804  19.193  -4.223  0.00  0.00    -0.329 N 
ATOM     15  C7  NON d   1     -41.760  18.272  -3.934  0.00  0.00     0.092 A 
ATOM     16  H9  NON d   1     -39.864  19.110  -3.854  0.00  0.00     0.168 HD
ATOM     17  S2  NON d   1     -41.551  16.931  -2.920  0.00  0.00    -0.082 SA
ATOM     18  C14 NON d   1     -43.021  18.335  -4.500  0.00  0.00     0.080 A 
ATOM     19  C8  NON d   1     -43.162  16.410  -3.185  0.00  0.00     0.065 A 
ATOM     20  C9  NON d   1     -43.887  17.280  -3.986  0.00  0.00     0.006 A 
ATOM     21  C15 NON d   1     -43.248  19.371  -5.524  0.00  0.00     0.283 A 
ATOM     22  O3  NON d   1     -44.280  19.415  -6.180  0.00  0.00    -0.265 OA
ATOM     23  N4  NON d   1     -42.209  20.255  -5.781  0.00  0.00    -0.185 NA
BRANCH  20  24
ATOM     24  C10 NON d   1     -45.380  17.053  -4.196  0.00  0.00     0.016 A 
ATOM     25  C11 NON d   1     -46.338  17.078  -3.190  0.00  0.00     0.020 A 
ATOM     26  C12 NON d   1     -47.666  16.870  -3.675  0.00  0.00     0.008 A 
ATOM     27  C13 NON d   1     -47.690  16.724  -5.047  0.00  0.00     0.050 A 
ATOM     28  S3  NON d   1     -46.128  16.847  -5.722  0.00  0.00    -0.101 SA
ENDBRANCH  20  24
ENDBRANCH  12  13
ENDBRANCH   1  12
BRANCH   1  29
ATOM     29  C16 NON d   1     -38.096  20.176  -3.923  0.00  0.00    -0.035 A 
ATOM     30  C17 NON d   1     -37.789  19.580  -2.687  0.00  0.00     0.009 A 
ATOM     31  C18 NON d   1     -37.041  18.400  -2.631  0.00  0.00     0.001 A 
ATOM     32  C19 NON d   1     -36.639  17.766  -3.804  0.00  0.00     0.000 A 
ATOM     33  C20 NON d   1     -36.934  18.337  -5.037  0.00  0.00     0.001 A 
ATOM     34  C21 NON d   1     -37.615  19.552  -5.093  0.00  0.00     0.009 A 
ENDBRANCH   1  29
TORSDOF 6
ENDMDL
MODEL 2
REMARK VINA RESULT:   -12.768      2.346      3.437
REMARK INTER + INTRA:         -15.667
REMARK INTER:                 -14.558
REMARK INTRA:                  -1.110
REMARK CONF_INDEPENDENT:        1.790
REMARK UNBOUND:                -1.110
REMARK  6 active torsions:
REMARK  status: ('A' for Active; 'I' for Inactive)
REMARK    1  A    between atoms: C2_2  and  N1_3 
REMARK       I    between atoms: N1_3  and  C3_4 
REMARK       I    between atoms: C3_4  and  N2_6 
REMARK       I    between atoms: N2_6  and  C4_7 
REMARK    2  A    between atoms: C5_9  and  C4_7 
REMARK    3  A    between atoms: C5_9  and  S1_10 
REMARK    4  A    between atoms: C5_9  and  C16_26 
REMARK    5  A    between atoms: S1_10  and  C6_11 
REMARK    6  A    between atoms: C9_16  and  C10_17 
ROOT
ATOM      1  C5  NON d   1     -40.786  22.845  -4.319  0.00  0.00     0.174 C 
ENDROOT
BRANCH   1   2
ATOM      2  C4  NON d   1     -40.347  23.156  -2.846  0.00  0.00     0.224 C 
ATOM      3  N2  NON d   1     -41.047  22.694  -1.771  0.00  0.00    -0.178 NA
ATOM      4  C3  NON d   1     -40.974  23.436  -0.623  0.00  0.00     0.300 C 
ATOM      5  H7  NON d   1     -40.860  21.719  -1.603  0.00  0.00     0.141 HD
ATOM      6  N1  NON d   1     -40.537  22.701   0.470  0.00  0.00    -0.348 N 
ATOM      7  O1  NON d   1     -41.380  24.587  -0.548  0.00  0.00    -0.254 OA
ATOM      8  H6  NON d   1     -39.820  22.023   0.246  0.00  0.00     0.163 HD
ATOM      9  O2  NON d   1     -39.229  23.681  -2.681  0.00  0.00    -0.278 OA
BRANCH   6  10
ATOM     10  C2  NON d   1     -40.354  23.380   1.737  0.00  0.00     0.119 C 
ATOM     11  C1  NON d   1     -38.886  23.594   2.065  0.00  0.00     0.026 C 
ENDBRANCH   6  10
ENDBRANCH   1   2
BRANCH   1  12
ATOM     12  S1  NON d   1     -40.132  21.439  -5.395  0.00  0.00    -0.073 SA
BRANCH  12  13
ATOM     13  C6  NON d   1     -41.357  20.189  -5.019  0.00  0.00     0.172 A 
ATOM     14  N3  NON d   1     -41.050  19.207  -4.113  0.00  0.00    -0.329 N 
ATOM     15  C7  NON d   1     -41.970  18.240  -3.862  0.00  0.00     0.092 A 
ATOM     16  H9  NON d   1     -40.111  19.152  -3.734  0.00  0.00     0.168 HD
ATOM     17  S2  NON d   1     -41.718  16.880  -2.884  0.00  0.00    -0.082 SA
ATOM     18  C14 NON d   1     -43.226  18.267  -4.443  0.00  0.00     0.080 A 
ATOM     19  C8  NON d   1     -43.302  16.301  -3.185  0.00  0.00     0.065 A 
ATOM     20  C9  NON d   1     -44.053  17.163  -3.970  0.00  0.00     0.006 A 
ATOM     21  C15 NON d   1     -43.484  19.321  -5.441  0.00  0.00     0.283 A 
ATOM     22  O3  NON d   1     -44.508  19.342  -6.108  0.00  0.00    -0.265 OA
ATOM     23  N4  NON d   1     -42.479  20.255  -5.659  0.00  0.00    -0.185 NA
BRANCH  20  24
ATOM     24  C10 NON d   1     -45.533  16.880  -4.206  0.00  0.00     0.016 A 
ATOM     25  C11 NON d   1     -46.512  16.893  -3.221  0.00  0.00     0.020 A 
ATOM     26  C12 NON d   1     -47.822  16.629  -3.729  0.00  0.00     0.008 A 
ATOM     27  C13 NON d   1     -47.811  16.455  -5.098  0.00  0.00     0.050 A 
ATOM     28  S3  NON d   1     -46.241  16.618  -5.743  0.00  0.00    -0.101 SA
ENDBRANCH  20  24
ENDBRANCH  12  13
ENDBRANCH   1  12
BRANCH   1  29
ATOM     29  C16 NON d   1     -40.310  24.076  -5.113  0.00  0.00    -0.035 A 
ATOM     30  C17 NON d   1     -40.701  25.347  -4.659  0.00  0.00     0.009 A 
ATOM     31  C18 NON d   1     -40.293  26.502  -5.334  0.00  0.00     0.001 A 
ATOM     32  C19 NON d   1     -39.442  26.410  -6.434  0.00  0.00     0.000 A 
ATOM     33  C20 NON d   1     -39.042  25.162  -6.899  0.00  0.00     0.001 A 
ATOM     34  C21 NON d   1     -39.508  24.007  -6.273  0.00  0.00     0.009 A 
ENDBRANCH   1  29
TORSDOF 6
ENDMDL
MODEL 3
REMARK VINA RESULT:   -12.598      4.197      8.007
REMARK INTER + INTRA:         -15.597
REMARK INTER:                 -14.388
REMARK INTRA:                  -1.208
REMARK CONF_INDEPENDENT:        1.790
REMARK UNBOUND:                -1.208
REMARK  6 active torsions:
REMARK  status: ('A' for Active; 'I' for Inactive)
REMARK    1  A    between atoms: C2_2  and  N1_3 
REMARK       I    between atoms: N1_3  and  C3_4 
REMARK       I    between atoms: C3_4  and  N2_6 
REMARK       I    between atoms: N2_6  and  C4_7 
REMARK    2  A    between atoms: C5_9  and  C4_7 
REMARK    3  A    between atoms: C5_9  and  S1_10 
REMARK    4  A    between atoms: C5_9  and  C16_26 
REMARK    5  A    between atoms: S1_10  and  C6_11 
REMARK    6  A    between atoms: C9_16  and  C10_17 
ROOT
ATOM      1  C5  NON d   1     -42.304  18.801  -5.394  0.00  0.00     0.174 C 
ENDROOT
BRANCH   1   2
ATOM      2  C4  NON d   1     -43.781  18.444  -5.007  0.00  0.00     0.224 C 
ATOM      3  N2  NON d   1     -44.114  17.237  -4.466  0.00  0.00    -0.178 NA
ATOM      4  C3  NON d   1     -45.389  16.792  -4.692  0.00  0.00     0.300 C 
ATOM      5  H7  NON d   1     -43.865  17.191  -3.491  0.00  0.00     0.141 HD
ATOM      6  N1  NON d   1     -46.078  16.505  -3.522  0.00  0.00    -0.348 N 
ATOM      7  O1  NON d   1     -45.819  16.549  -5.810  0.00  0.00    -0.254 OA
ATOM      8  H6  NON d   1     -45.880  17.147  -2.764  0.00  0.00     0.163 HD
ATOM      9  O2  NON d   1     -44.617  19.367  -5.031  0.00  0.00    -0.278 OA
BRANCH   6  10
ATOM     10  C2  NON d   1     -47.461  16.084  -3.614  0.00  0.00     0.119 C 
ATOM     11  C1  NON d   1     -48.301  16.620  -2.468  0.00  0.00     0.026 C 
ENDBRANCH   6  10
ENDBRANCH   1   2
BRANCH   1  12
ATOM     12  S1  NON d   1     -41.052  17.630  -6.185  0.00  0.00    -0.073 SA
BRANCH  12  13
ATOM     13  C6  NON d   1     -40.285  18.759  -7.342  0.00  0.00     0.172 A 
ATOM     14  N3  NON d   1     -39.017  18.493  -7.791  0.00  0.00    -0.329 N 
ATOM     15  C7  NON d   1     -38.427  19.375  -8.639  0.00  0.00     0.092 A 
ATOM     16  H9  NON d   1     -38.502  17.713  -7.399  0.00  0.00     0.168 HD
ATOM     17  S2  NON d   1     -36.826  19.284  -9.185  0.00  0.00    -0.082 SA
ATOM     18  C14 NON d   1     -39.100  20.487  -9.111  0.00  0.00     0.080 A 
ATOM     19  C8  NON d   1     -36.999  20.722 -10.101  0.00  0.00     0.065 A 
ATOM     20  C9  NON d   1     -38.283  21.242 -10.054  0.00  0.00     0.006 A 
ATOM     21  C15 NON d   1     -40.444  20.744  -8.562  0.00  0.00     0.283 A 
ATOM     22  O3  NON d   1     -41.057  21.773  -8.810  0.00  0.00    -0.265 OA
ATOM     23  N4  NON d   1     -40.964  19.808  -7.678  0.00  0.00    -0.185 NA
BRANCH  20  24
ATOM     24  C10 NON d   1     -38.654  22.430 -10.936  0.00  0.00     0.016 A 
ATOM     25  C11 NON d   1     -39.176  22.335 -12.219  0.00  0.00     0.020 A 
ATOM     26  C12 NON d   1     -39.467  23.608 -12.802  0.00  0.00     0.008 A 
ATOM     27  C13 NON d   1     -39.190  24.641 -11.931  0.00  0.00     0.050 A 
ATOM     28  S3  NON d   1     -38.596  24.067 -10.438  0.00  0.00    -0.101 SA
ENDBRANCH  20  24
ENDBRANCH  12  13
ENDBRANCH   1  12
BRANCH   1  29
ATOM     29  C16 NON d   1     -41.628  19.092  -4.041  0.00  0.00    -0.035 A 
ATOM     30  C17 NON d   1     -40.942  20.310  -3.895  0.00  0.00     0.009 A 
ATOM     31  C18 NON d   1     -40.315  20.634  -2.688  0.00  0.00     0.001 A 
ATOM     32  C19 NON d   1     -40.413  19.779  -1.592  0.00  0.00     0.000 A 
ATOM     33  C20 NON d   1     -41.089  18.570  -1.715  0.00  0.00     0.001 A 
ATOM     34  C21 NON d   1     -41.650  18.211  -2.940  0.00  0.00     0.009 A 
ENDBRANCH   1  29
TORSDOF 6
ENDMDL
MODEL 4
REMARK VINA RESULT:   -12.311      2.414      4.194
REMARK INTER + INTRA:         -16.485
REMARK INTER:                 -14.101
REMARK INTRA:                  -2.384
REMARK CONF_INDEPENDENT:        1.790
REMARK UNBOUND:                -2.384
REMARK  6 active torsions:
REMARK  status: ('A' for Active; 'I' for Inactive)
REMARK    1  A    between atoms: C2_2  and  N1_3 
REMARK       I    between atoms: N1_3  and  C3_4 
REMARK       I    between atoms: C3_4  and  N2_6 
REMARK       I    between atoms: N2_6  and  C4_7 
REMARK    2  A    between atoms: C5_9  and  C4_7 
REMARK    3  A    between atoms: C5_9  and  S1_10 
REMARK    4  A    between atoms: C5_9  and  C16_26 
REMARK    5  A    between atoms: S1_10  and  C6_11 
REMARK    6  A    between atoms: C9_16  and  C10_17 
ROOT
ATOM      1  C5  NON d   1     -37.531  20.632  -2.984  0.00  0.00     0.174 C 
ENDROOT
BRANCH   1   2
ATOM      2  C4  NON d   1     -38.112  21.634  -4.040  0.00  0.00     0.224 C 
ATOM      3  N2  NON d   1     -38.475  22.905  -3.708  0.00  0.00    -0.178 NA
ATOM      4  C3  NON d   1     -39.455  23.485  -4.468  0.00  0.00     0.300 C 
ATOM      5  H7  NON d   1     -37.671  23.502  -3.609  0.00  0.00     0.141 HD
ATOM      6  N1  NON d   1     -39.063  24.694  -5.027  0.00  0.00    -0.348 N 
ATOM      7  O1  NON d   1     -40.594  23.045  -4.534  0.00  0.00    -0.254 OA
ATOM      8  H6  NON d   1     -38.097  24.710  -5.327  0.00  0.00     0.163 HD
ATOM      9  O2  NON d   1     -38.055  21.297  -5.239  0.00  0.00    -0.278 OA
BRANCH   6  10
ATOM     10  C2  NON d   1     -39.984  25.385  -5.907  0.00  0.00     0.119 C 
ATOM     11  C1  NON d   1     -39.589  25.249  -7.367  0.00  0.00     0.026 C 
ENDBRANCH   6  10
ENDBRANCH   1   2
BRANCH   1  12
ATOM     12  S1  NON d   1     -37.739  18.756  -3.005  0.00  0.00    -0.073 SA
BRANCH  12  13
ATOM     13  C6  NON d   1     -39.438  18.655  -3.557  0.00  0.00     0.172 A 
ATOM     14  N3  NON d   1     -39.811  19.332  -4.690  0.00  0.00    -0.329 N 
ATOM     15  C7  NON d   1     -41.112  19.283  -5.080  0.00  0.00     0.092 A 
ATOM     16  H9  NON d   1     -39.146  19.945  -5.148  0.00  0.00     0.168 HD
ATOM     17  S2  NON d   1     -41.780  20.160  -6.366  0.00  0.00    -0.082 SA
ATOM     18  C14 NON d   1     -42.042  18.511  -4.406  0.00  0.00     0.080 A 
ATOM     19  C8  NON d   1     -43.337  19.505  -6.076  0.00  0.00     0.065 A 
ATOM     20  C9  NON d   1     -43.348  18.570  -5.052  0.00  0.00     0.006 A 
ATOM     21  C15 NON d   1     -41.593  17.840  -3.172  0.00  0.00     0.283 A 
ATOM     22  O3  NON d   1     -42.374  17.255  -2.435  0.00  0.00    -0.265 OA
ATOM     23  N4  NON d   1     -40.253  17.965  -2.828  0.00  0.00    -0.185 NA
BRANCH  20  24
ATOM     24  C10 NON d   1     -44.616  17.774  -4.765  0.00  0.00     0.016 A 
ATOM     25  C11 NON d   1     -44.904  17.143  -3.561  0.00  0.00     0.020 A 
ATOM     26  C12 NON d   1     -46.180  16.500  -3.555  0.00  0.00     0.008 A 
ATOM     27  C13 NON d   1     -46.849  16.686  -4.748  0.00  0.00     0.050 A 
ATOM     28  S3  NON d   1     -45.940  17.630  -5.841  0.00  0.00    -0.101 SA
ENDBRANCH  20  24
ENDBRANCH  12  13
ENDBRANCH   1  12
BRANCH   1  29
ATOM     29  C16 NON d   1     -38.268  21.000  -1.682  0.00  0.00    -0.035 A 
ATOM     30  C17 NON d   1     -37.501  21.174  -0.517  0.00  0.00     0.009 A 
ATOM     31  C18 NON d   1     -38.113  21.517   0.693  0.00  0.00     0.001 A 
ATOM     32  C19 NON d   1     -39.486  21.749   0.747  0.00  0.00     0.000 A 
ATOM     33  C20 NON d   1     -40.262  21.584  -0.395  0.00  0.00     0.001 A 
ATOM     34  C21 NON d   1     -39.665  21.169  -1.585  0.00  0.00     0.009 A 
ENDBRANCH   1  29
TORSDOF 6
ENDMDL
MODEL 5
REMARK VINA RESULT:   -12.206      2.580      4.753
REMARK INTER + INTRA:         -16.281
REMARK INTER:                 -13.995
REMARK INTRA:                  -2.285
REMARK CONF_INDEPENDENT:        1.790
REMARK UNBOUND:                -2.285
REMARK  6 active torsions:
REMARK  status: ('A' for Active; 'I' for Inactive)
REMARK    1  A    between atoms: C2_2  and  N1_3 
REMARK       I    between atoms: N1_3  and  C3_4 
REMARK       I    between atoms: C3_4  and  N2_6 
REMARK       I    between atoms: N2_6  and  C4_7 
REMARK    2  A    between atoms: C5_9  and  C4_7 
REMARK    3  A    between atoms: C5_9  and  S1_10 
REMARK    4  A    between atoms: C5_9  and  C16_26 
REMARK    5  A    between atoms: S1_10  and  C6_11 
REMARK    6  A    between atoms: C9_16  and  C10_17 
ROOT
ATOM      1  C5  NON d   1     -37.707  21.106  -3.030  0.00  0.00     0.174 C 
ENDROOT
BRANCH   1   2
ATOM      2  C4  NON d   1     -37.917  21.775  -4.432  0.00  0.00     0.224 C 
ATOM      3  N2  NON d   1     -39.157  21.949  -4.971  0.00  0.00    -0.178 NA
ATOM      4  C3  NON d   1     -39.236  21.981  -6.337  0.00  0.00     0.300 C 
ATOM      5  H7  NON d   1     -39.635  22.727  -4.546  0.00  0.00     0.141 HD
ATOM      6  N1  NON d   1     -39.840  23.135  -6.818  0.00  0.00    -0.348 N 
ATOM      7  O1  NON d   1     -38.927  21.032  -7.044  0.00  0.00    -0.254 OA
ATOM      8  H6  NON d   1     -39.604  23.968  -6.294  0.00  0.00     0.163 HD
ATOM      9  O2  NON d   1     -36.927  22.319  -4.959  0.00  0.00    -0.278 OA
BRANCH   6  10
ATOM     10  C2  NON d   1     -39.931  23.327  -8.252  0.00  0.00     0.119 C 
ATOM     11  C1  NON d   1     -40.339  24.744  -8.614  0.00  0.00     0.026 C 
ENDBRANCH   6  10
ENDBRANCH   1   2
BRANCH   1  12
ATOM     12  S1  NON d   1     -37.950  19.277  -2.628  0.00  0.00    -0.073 SA
BRANCH  12  13
ATOM     13  C6  NON d   1     -39.604  19.053  -3.271  0.00  0.00     0.172 A 
ATOM     14  N3  NON d   1     -39.930  19.611  -4.481  0.00  0.00    -0.329 N 
ATOM     15  C7  NON d   1     -41.199  19.469  -4.944  0.00  0.00     0.092 A 
ATOM     16  H9  NON d   1     -39.261  20.209  -4.952  0.00  0.00     0.168 HD
ATOM     17  S2  NON d   1     -41.816  20.200  -6.343  0.00  0.00    -0.082 SA
ATOM     18  C14 NON d   1     -42.140  18.720  -4.261  0.00  0.00     0.080 A 
ATOM     19  C8  NON d   1     -43.362  19.504  -6.090  0.00  0.00     0.065 A 
ATOM     20  C9  NON d   1     -43.403  18.663  -4.988  0.00  0.00     0.006 A 
ATOM     21  C15 NON d   1     -41.746  18.181  -2.947  0.00  0.00     0.283 A 
ATOM     22  O3  NON d   1     -42.550  17.628  -2.208  0.00  0.00    -0.265 OA
ATOM     23  N4  NON d   1     -40.438  18.394  -2.534  0.00  0.00    -0.185 NA
BRANCH  20  24
ATOM     24  C10 NON d   1     -44.655  17.840  -4.708  0.00  0.00     0.016 A 
ATOM     25  C11 NON d   1     -44.955  17.236  -3.493  0.00  0.00     0.020 A 
ATOM     26  C12 NON d   1     -46.213  16.557  -3.499  0.00  0.00     0.008 A 
ATOM     27  C13 NON d   1     -46.857  16.691  -4.712  0.00  0.00     0.050 A 
ATOM     28  S3  NON d   1     -45.948  17.628  -5.810  0.00  0.00    -0.101 SA
ENDBRANCH  20  24
ENDBRANCH  12  13
ENDBRANCH   1  12
BRANCH   1  29
ATOM     29  C16 NON d   1     -38.789  21.753  -2.146  0.00  0.00    -0.035 A 
ATOM     30  C17 NON d   1     -39.163  21.087  -0.966  0.00  0.00     0.009 A 
ATOM     31  C18 NON d   1     -40.134  21.629  -0.119  0.00  0.00     0.001 A 
ATOM     32  C19 NON d   1     -40.701  22.870  -0.403  0.00  0.00     0.000 A 
ATOM     33  C20 NON d   1     -40.344  23.547  -1.564  0.00  0.00     0.001 A 
ATOM     34  C21 NON d   1     -39.431  22.972  -2.448  0.00  0.00     0.009 A 
ENDBRANCH   1  29
TORSDOF 6
ENDMDL
MODEL 6
REMARK VINA RESULT:   -12.070      2.215      3.280
REMARK INTER + INTRA:         -15.685
REMARK INTER:                 -13.860
REMARK INTRA:                  -1.825
REMARK CONF_INDEPENDENT:        1.790
REMARK UNBOUND:                -1.825
REMARK  6 active torsions:
REMARK  status: ('A' for Active; 'I' for Inactive)
REMARK    1  A    between atoms: C2_2  and  N1_3 
REMARK       I    between atoms: N1_3  and  C3_4 
REMARK       I    between atoms: C3_4  and  N2_6 
REMARK       I    between atoms: N2_6  and  C4_7 
REMARK    2  A    between atoms: C5_9  and  C4_7 
REMARK    3  A    between atoms: C5_9  and  S1_10 
REMARK    4  A    between atoms: C5_9  and  C16_26 
REMARK    5  A    between atoms: S1_10  and  C6_11 
REMARK    6  A    between atoms: C9_16  and  C10_17 
ROOT
ATOM      1  C5  NON d   1     -39.768  22.045  -3.768  0.00  0.00     0.174 C 
ENDROOT
BRANCH   1   2
ATOM      2  C4  NON d   1     -38.795  21.332  -2.766  0.00  0.00     0.224 C 
ATOM      3  N2  NON d   1     -38.575  21.809  -1.509  0.00  0.00    -0.178 NA
ATOM      4  C3  NON d   1     -37.363  21.518  -0.943  0.00  0.00     0.300 C 
ATOM      5  H7  NON d   1     -39.342  21.590  -0.894  0.00  0.00     0.141 HD
ATOM      6  N1  NON d   1     -37.478  20.876   0.283  0.00  0.00    -0.348 N 
ATOM      7  O1  NON d   1     -36.301  21.905  -1.408  0.00  0.00    -0.254 OA
ATOM      8  H6  NON d   1     -38.242  20.213   0.326  0.00  0.00     0.163 HD
ATOM      9  O2  NON d   1     -38.372  20.204  -3.087  0.00  0.00    -0.278 OA
BRANCH   6  10
ATOM     10  C2  NON d   1     -36.270  20.453   0.963  0.00  0.00     0.119 C 
ATOM     11  C1  NON d   1     -36.328  20.728   2.455  0.00  0.00     0.026 C 
ENDBRANCH   6  10
ENDBRANCH   1   2
BRANCH   1  12
ATOM     12  S1  NON d   1     -40.197  21.452  -5.507  0.00  0.00    -0.073 SA
BRANCH  12  13
ATOM     13  C6  NON d   1     -41.411  20.201  -5.100  0.00  0.00     0.172 A 
ATOM     14  N3  NON d   1     -41.089  19.236  -4.181  0.00  0.00    -0.329 N 
ATOM     15  C7  NON d   1     -42.001  18.267  -3.906  0.00  0.00     0.092 A 
ATOM     16  H9  NON d   1     -40.147  19.193  -3.810  0.00  0.00     0.168 HD
ATOM     17  S2  NON d   1     -41.731  16.925  -2.908  0.00  0.00    -0.082 SA
ATOM     18  C14 NON d   1     -43.262  18.278  -4.475  0.00  0.00     0.080 A 
ATOM     19  C8  NON d   1     -43.315  16.332  -3.185  0.00  0.00     0.065 A 
ATOM     20  C9  NON d   1     -44.078  17.177  -3.977  0.00  0.00     0.006 A 
ATOM     21  C15 NON d   1     -43.536  19.314  -5.487  0.00  0.00     0.283 A 
ATOM     22  O3  NON d   1     -44.567  19.318  -6.145  0.00  0.00    -0.265 OA
ATOM     23  N4  NON d   1     -42.539  20.250  -5.730  0.00  0.00    -0.185 NA
BRANCH  20  24
ATOM     24  C10 NON d   1     -45.558  16.881  -4.194  0.00  0.00     0.016 A 
ATOM     25  C11 NON d   1     -46.509  16.794  -3.185  0.00  0.00     0.020 A 
ATOM     26  C12 NON d   1     -47.827  16.543  -3.676  0.00  0.00     0.008 A 
ATOM     27  C13 NON d   1     -47.853  16.480  -5.054  0.00  0.00     0.050 A 
ATOM     28  S3  NON d   1     -46.305  16.728  -5.727  0.00  0.00    -0.101 SA
ENDBRANCH  20  24
ENDBRANCH  12  13
ENDBRANCH   1  12
BRANCH   1  29
ATOM     29  C16 NON d   1     -39.069  23.383  -4.072  0.00  0.00    -0.035 A 
ATOM     30  C17 NON d   1     -39.862  24.542  -4.138  0.00  0.00     0.009 A 
ATOM     31  C18 NON d   1     -39.283  25.787  -4.402  0.00  0.00     0.001 A 
ATOM     32  C19 NON d   1     -37.902  25.905  -4.545  0.00  0.00     0.000 A 
ATOM     33  C20 NON d   1     -37.099  24.772  -4.481  0.00  0.00     0.001 A 
ATOM     34  C21 NON d   1     -37.682  23.519  -4.292  0.00  0.00     0.009 A 
ENDBRANCH   1  29
TORSDOF 6
ENDMDL
MODEL 7
REMARK VINA RESULT:   -11.082      2.185      2.948
REMARK INTER + INTRA:         -14.085
REMARK INTER:                 -12.872
REMARK INTRA:                  -1.213
REMARK CONF_INDEPENDENT:        1.790
REMARK UNBOUND:                -1.213
REMARK  6 active torsions:
REMARK  status: ('A' for Active; 'I' for Inactive)
REMARK    1  A    between atoms: C2_2  and  N1_3 
REMARK       I    between atoms: N1_3  and  C3_4 
REMARK       I    between atoms: C3_4  and  N2_6 
REMARK       I    between atoms: N2_6  and  C4_7 
REMARK    2  A    between atoms: C5_9  and  C4_7 
REMARK    3  A    between atoms: C5_9  and  S1_10 
REMARK    4  A    between atoms: C5_9  and  C16_26 
REMARK    5  A    between atoms: S1_10  and  C6_11 
REMARK    6  A    between atoms: C9_16  and  C10_17 
ROOT
ATOM      1  C5  NON d   1     -39.090  19.775  -3.139  0.00  0.00     0.174 C 
ENDROOT
BRANCH   1   2
ATOM      2  C4  NON d   1     -38.202  20.310  -1.962  0.00  0.00     0.224 C 
ATOM      3  N2  NON d   1     -38.746  20.874  -0.846  0.00  0.00    -0.178 NA
ATOM      4  C3  NON d   1     -37.977  21.792  -0.183  0.00  0.00     0.300 C 
ATOM      5  H7  NON d   1     -39.117  20.173  -0.225  0.00  0.00     0.141 HD
ATOM      6  N1  NON d   1     -37.784  21.473   1.154  0.00  0.00    -0.348 N 
ATOM      7  O1  NON d   1     -37.614  22.845  -0.688  0.00  0.00    -0.254 OA
ATOM      8  H6  NON d   1     -37.670  20.482   1.325  0.00  0.00     0.163 HD
ATOM      9  O2  NON d   1     -36.988  20.033  -1.991  0.00  0.00    -0.278 OA
BRANCH   6  10
ATOM     10  C2  NON d   1     -36.936  22.330   1.959  0.00  0.00     0.119 C 
ATOM     11  C1  NON d   1     -37.602  23.656   2.280  0.00  0.00     0.026 C 
ENDBRANCH   6  10
ENDBRANCH   1   2
BRANCH   1  12
ATOM     12  S1  NON d   1     -39.130  17.999  -3.776  0.00  0.00    -0.073 SA
BRANCH  12  13
ATOM     13  C6  NON d   1     -40.886  17.836  -4.080  0.00  0.00     0.172 A 
ATOM     14  N3  NON d   1     -41.482  18.659  -5.001  0.00  0.00    -0.329 N 
ATOM     15  C7  NON d   1     -42.822  18.556  -5.197  0.00  0.00     0.092 A 
ATOM     16  H9  NON d   1     -40.941  19.400  -5.432  0.00  0.00     0.168 HD
ATOM     17  S2  NON d   1     -43.746  19.574  -6.187  0.00  0.00    -0.082 SA
ATOM     18  C14 NON d   1     -43.578  17.597  -4.547  0.00  0.00     0.080 A 
ATOM     19  C8  NON d   1     -45.189  18.736  -5.795  0.00  0.00     0.065 A 
ATOM     20  C9  NON d   1     -44.972  17.643  -4.970  0.00  0.00     0.006 A 
ATOM     21  C15 NON d   1     -42.892  16.770  -3.537  0.00  0.00     0.283 A 
ATOM     22  O3  NON d   1     -43.503  15.997  -2.812  0.00  0.00    -0.265 OA
ATOM     23  N4  NON d   1     -41.525  16.957  -3.378  0.00  0.00    -0.185 NA
BRANCH  20  24
ATOM     24  C10 NON d   1     -46.123  16.694  -4.650  0.00  0.00     0.016 A 
ATOM     25  C11 NON d   1     -46.698  16.538  -3.395  0.00  0.00     0.020 A 
ATOM     26  C12 NON d   1     -47.784  15.608  -3.388  0.00  0.00     0.008 A 
ATOM     27  C13 NON d   1     -48.031  15.105  -4.649  0.00  0.00     0.050 A 
ATOM     28  S3  NON d   1     -46.965  15.759  -5.810  0.00  0.00    -0.101 SA
ENDBRANCH  20  24
ENDBRANCH  12  13
ENDBRANCH   1  12
BRANCH   1  29
ATOM     29  C16 NON d   1     -38.556  20.524  -4.374  0.00  0.00    -0.035 A 
ATOM     30  C17 NON d   1     -38.701  21.922  -4.412  0.00  0.00     0.009 A 
ATOM     31  C18 NON d   1     -38.229  22.657  -5.504  0.00  0.00     0.001 A 
ATOM     32  C19 NON d   1     -37.554  22.020  -6.543  0.00  0.00     0.000 A 
ATOM     33  C20 NON d   1     -37.399  20.638  -6.524  0.00  0.00     0.001 A 
ATOM     34  C21 NON d   1     -37.934  19.895  -5.474  0.00  0.00     0.009 A 
ENDBRANCH   1  29
TORSDOF 6
ENDMDL
MODEL 8
REMARK VINA RESULT:   -11.013      3.121      7.673
REMARK INTER + INTRA:         -13.967
REMARK INTER:                 -12.803
REMARK INTRA:                  -1.165
REMARK CONF_INDEPENDENT:        1.790
REMARK UNBOUND:                -1.165
REMARK  6 active torsions:
REMARK  status: ('A' for Active; 'I' for Inactive)
REMARK    1  A    between atoms: C2_2  and  N1_3 
REMARK       I    between atoms: N1_3  and  C3_4 
REMARK       I    between atoms: C3_4  and  N2_6 
REMARK       I    between atoms: N2_6  and  C4_7 
REMARK    2  A    between atoms: C5_9  and  C4_7 
REMARK    3  A    between atoms: C5_9  and  S1_10 
REMARK    4  A    between atoms: C5_9  and  C16_26 
REMARK    5  A    between atoms: S1_10  and  C6_11 
REMARK    6  A    between atoms: C9_16  and  C10_17 
ROOT
ATOM      1  C5  NON d   1     -41.891  17.612  -4.288  0.00  0.00     0.174 C 
ENDROOT
BRANCH   1   2
ATOM      2  C4  NON d   1     -43.458  17.659  -4.310  0.00  0.00     0.224 C 
ATOM      3  N2  NON d   1     -44.217  16.564  -4.024  0.00  0.00    -0.178 NA
ATOM      4  C3  NON d   1     -45.458  16.507  -4.600  0.00  0.00     0.300 C 
ATOM      5  H7  NON d   1     -44.253  16.391  -3.032  0.00  0.00     0.141 HD
ATOM      6  N1  NON d   1     -46.480  16.354  -3.673  0.00  0.00    -0.348 N 
ATOM      7  O1  NON d   1     -45.628  16.461  -5.810  0.00  0.00    -0.254 OA
ATOM      8  H6  NON d   1     -46.331  16.868  -2.814  0.00  0.00     0.163 HD
ATOM      9  O2  NON d   1     -43.994  18.779  -4.411  0.00  0.00    -0.278 OA
BRANCH   6  10
ATOM     10  C2  NON d   1     -47.850  16.342  -4.143  0.00  0.00     0.119 C 
ATOM     11  C1  NON d   1     -48.564  15.047  -3.794  0.00  0.00     0.026 C 
ENDBRANCH   6  10
ENDBRANCH   1   2
BRANCH   1  12
ATOM     12  S1  NON d   1     -40.780  18.340  -2.946  0.00  0.00    -0.073 SA
BRANCH  12  13
ATOM     13  C6  NON d   1     -40.371  19.901  -3.718  0.00  0.00     0.172 A 
ATOM     14  N3  NON d   1     -39.189  20.016  -4.404  0.00  0.00    -0.329 N 
ATOM     15  C7  NON d   1     -38.868  21.216  -4.954  0.00  0.00     0.092 A 
ATOM     16  H9  NON d   1     -38.528  19.247  -4.392  0.00  0.00     0.168 HD
ATOM     17  S2  NON d   1     -37.398  21.580  -5.713  0.00  0.00    -0.082 SA
ATOM     18  C14 NON d   1     -39.734  22.293  -4.900  0.00  0.00     0.080 A 
ATOM     19  C8  NON d   1     -37.894  23.192  -6.022  0.00  0.00     0.065 A 
ATOM     20  C9  NON d   1     -39.196  23.444  -5.614  0.00  0.00     0.006 A 
ATOM     21  C15 NON d   1     -40.970  22.124  -4.113  0.00  0.00     0.283 A 
ATOM     22  O3  NON d   1     -41.727  23.059  -3.890  0.00  0.00    -0.265 OA
ATOM     23  N4  NON d   1     -41.210  20.873  -3.560  0.00  0.00    -0.185 NA
BRANCH  20  24
ATOM     24  C10 NON d   1     -39.852  24.778  -5.953  0.00  0.00     0.016 A 
ATOM     25  C11 NON d   1     -39.935  25.323  -7.228  0.00  0.00     0.020 A 
ATOM     26  C12 NON d   1     -40.637  26.568  -7.262  0.00  0.00     0.008 A 
ATOM     27  C13 NON d   1     -41.100  26.924  -6.012  0.00  0.00     0.050 A 
ATOM     28  S3  NON d   1     -40.694  25.761  -4.832  0.00  0.00    -0.101 SA
ENDBRANCH  20  24
ENDBRANCH  12  13
ENDBRANCH   1  12
BRANCH   1  29
ATOM     29  C16 NON d   1     -41.479  18.457  -5.508  0.00  0.00    -0.035 A 
ATOM     30  C17 NON d   1     -40.315  18.087  -6.204  0.00  0.00     0.009 A 
ATOM     31  C18 NON d   1     -39.896  18.811  -7.325  0.00  0.00     0.001 A 
ATOM     32  C19 NON d   1     -40.659  19.874  -7.802  0.00  0.00     0.000 A 
ATOM     33  C20 NON d   1     -41.815  20.255  -7.129  0.00  0.00     0.001 A 
ATOM     34  C21 NON d   1     -42.195  19.582  -5.969  0.00  0.00     0.009 A 
ENDBRANCH   1  29
TORSDOF 6
ENDMDL
MODEL 9
REMARK VINA RESULT:   -10.998      2.447      3.724
REMARK INTER + INTRA:         -14.674
REMARK INTER:                 -12.788
REMARK INTRA:                  -1.887
REMARK CONF_INDEPENDENT:        1.790
REMARK UNBOUND:                -1.887
REMARK  6 active torsions:
REMARK  status: ('A' for Active; 'I' for Inactive)
REMARK    1  A    between atoms: C2_2  and  N1_3 
REMARK       I    between atoms: N1_3  and  C3_4 
REMARK       I    between atoms: C3_4  and  N2_6 
REMARK       I    between atoms: N2_6  and  C4_7 
REMARK    2  A    between atoms: C5_9  and  C4_7 
REMARK    3  A    between atoms: C5_9  and  S1_10 
REMARK    4  A    between atoms: C5_9  and  C16_26 
REMARK    5  A    between atoms: S1_10  and  C6_11 
REMARK    6  A    between atoms: C9_16  and  C10_17 
ROOT
ATOM      1  C5  NON d   1     -38.976  21.468  -3.998  0.00  0.00     0.174 C 
ENDROOT
BRANCH   1   2
ATOM      2  C4  NON d   1     -38.006  20.346  -3.490  0.00  0.00     0.224 C 
ATOM      3  N2  NON d   1     -38.369  19.463  -2.517  0.00  0.00    -0.178 NA
ATOM      4  C3  NON d   1     -37.361  18.939  -1.753  0.00  0.00     0.300 C 
ATOM      5  H7  NON d   1     -38.979  18.748  -2.879  0.00  0.00     0.141 HD
ATOM      6  N1  NON d   1     -37.339  17.551  -1.762  0.00  0.00    -0.348 N 
ATOM      7  O1  NON d   1     -36.645  19.624  -1.037  0.00  0.00    -0.254 OA
ATOM      8  H6  NON d   1     -37.573  17.146  -2.659  0.00  0.00     0.163 HD
ATOM      9  O2  NON d   1     -36.957  20.162  -4.137  0.00  0.00    -0.278 OA
BRANCH   6  10
ATOM     10  C2  NON d   1     -36.282  16.867  -1.044  0.00  0.00     0.119 C 
ATOM     11  C1  NON d   1     -36.723  15.503  -0.542  0.00  0.00     0.026 C 
ENDBRANCH   6  10
ENDBRANCH   1   2
BRANCH   1  12
ATOM     12  S1  NON d   1     -39.964  21.433  -5.607  0.00  0.00    -0.073 SA
BRANCH  12  13
ATOM     13  C6  NON d   1     -41.189  20.203  -5.172  0.00  0.00     0.172 A 
ATOM     14  N3  NON d   1     -40.872  19.249  -4.240  0.00  0.00    -0.329 N 
ATOM     15  C7  NON d   1     -41.794  18.295  -3.944  0.00  0.00     0.092 A 
ATOM     16  H9  NON d   1     -39.929  19.200  -3.874  0.00  0.00     0.168 HD
ATOM     17  S2  NON d   1     -41.533  16.966  -2.927  0.00  0.00    -0.082 SA
ATOM     18  C14 NON d   1     -43.059  18.311  -4.506  0.00  0.00     0.080 A 
ATOM     19  C8  NON d   1     -43.126  16.386  -3.185  0.00  0.00     0.065 A 
ATOM     20  C9  NON d   1     -43.884  17.227  -3.985  0.00  0.00     0.006 A 
ATOM     21  C15 NON d   1     -43.326  19.334  -5.533  0.00  0.00     0.283 A 
ATOM     22  O3  NON d   1     -44.361  19.339  -6.185  0.00  0.00    -0.265 OA
ATOM     23  N4  NON d   1     -42.321  20.255  -5.796  0.00  0.00    -0.185 NA
BRANCH  20  24
ATOM     24  C10 NON d   1     -45.369  16.946  -4.190  0.00  0.00     0.016 A 
ATOM     25  C11 NON d   1     -46.327  16.963  -3.184  0.00  0.00     0.020 A 
ATOM     26  C12 NON d   1     -47.648  16.699  -3.664  0.00  0.00     0.008 A 
ATOM     27  C13 NON d   1     -47.666  16.521  -5.032  0.00  0.00     0.050 A 
ATOM     28  S3  NON d   1     -46.109  16.680  -5.711  0.00  0.00    -0.101 SA
ENDBRANCH  20  24
ENDBRANCH  12  13
ENDBRANCH   1  12
BRANCH   1  29
ATOM     29  C16 NON d   1     -38.051  22.675  -4.241  0.00  0.00    -0.035 A 
ATOM     30  C17 NON d   1     -37.180  23.057  -3.206  0.00  0.00     0.009 A 
ATOM     31  C18 NON d   1     -36.310  24.139  -3.371  0.00  0.00     0.001 A 
ATOM     32  C19 NON d   1     -36.254  24.818  -4.587  0.00  0.00     0.000 A 
ATOM     33  C20 NON d   1     -37.106  24.455  -5.624  0.00  0.00     0.001 A 
ATOM     34  C21 NON d   1     -38.026  23.424  -5.436  0.00  0.00     0.009 A 
ENDBRANCH   1  29
TORSDOF 6
ENDMDL
