MODEL 1
REMARK VINA RESULT:   -13.619      0.000      0.000
REMARK INTER + INTRA:         -18.697
REMARK INTER:                 -17.198
REMARK INTRA:                  -1.499
REMARK CONF_INDEPENDENT:        3.580
REMARK UNBOUND:                -1.499
REMARK  12 active torsions:
REMARK  status: ('A' for Active; 'I' for Inactive)
REMARK    1  A    between atoms: C3_3  and  C2_2 
REMARK    2  A    between atoms: C3_3  and  N1_5 
REMARK       I    between atoms: N1_5  and  C5_6 
REMARK    3  A    between atoms: C5_6  and  C6_8 
REMARK    4  A    between atoms: C9_11  and  N2_12 
REMARK    5  A    between atoms: N2_12  and  C10_13 
REMARK    6  A    between atoms: C10_13  and  C11_14 
REMARK       I    between atoms: C11_14  and  N3_16 
REMARK    7  A    between atoms: N3_16  and  C12_17 
REMARK    8  A    between atoms: C16_21  and  C17_22 
REMARK       I    between atoms: C17_22  and  N4_24 
REMARK    9  A    between atoms: N4_24  and  C18_25 
REMARK   10  A    between atoms: C18_25  and  C19_26 
REMARK   11  A    between atoms: C19_26  and  C20_27 
REMARK   12  A    between atoms: C20_27  and  O4_28 
ROOT
ATOM      1  C11 NON d   1     -40.088  20.693  -2.174  0.00  0.00     0.239 C 
ATOM      2  O2  NON d   1     -40.382  21.485  -3.073  0.00  0.00    -0.271 OA
ATOM      3  N3  NON d   1     -39.979  21.022  -0.816  0.00  0.00    -0.326 N 
ATOM      4  H16 NON d   1     -39.810  20.264  -0.166  0.00  0.00     0.169 HD
ENDROOT
BRANCH   1   5
ATOM      5  C10 NON d   1     -39.845  19.184  -2.512  0.00  0.00     0.223 C 
BRANCH   5   6
ATOM      6  N2  NON d   1     -40.412  18.866  -3.836  0.00  0.00    -0.381 N 
ATOM      7  H13 NON d   1     -40.006  19.463  -4.562  0.00  0.00     0.160 HD
BRANCH   6   8
ATOM      8  C9  NON d   1     -41.705  18.435  -4.108  0.00  0.00     0.028 A 
ATOM      9  C8  NON d   1     -42.167  17.269  -3.480  0.00  0.00     0.030 A 
ATOM     10  C7  NON d   1     -43.483  16.795  -3.648  0.00  0.00     0.019 A 
ATOM     11  C6  NON d   1     -44.420  17.487  -4.431  0.00  0.00     0.032 A 
ATOM     12  C24 NON d   1     -43.987  18.668  -5.043  0.00  0.00     0.019 A 
ATOM     13  C23 NON d   1     -42.649  19.135  -4.871  0.00  0.00     0.030 A 
BRANCH  11  14
ATOM     14  C5  NON d   1     -45.765  16.831  -4.646  0.00  0.00     0.251 C 
ATOM     15  N1  NON d   1     -46.565  16.434  -3.563  0.00  0.00    -0.353 N 
ATOM     16  H10 NON d   1     -46.236  16.639  -2.630  0.00  0.00     0.163 HD
ATOM     17  O1  NON d   1     -46.145  16.695  -5.810  0.00  0.00    -0.268 OA
BRANCH  15  18
ATOM     18  C3  NON d   1     -48.031  16.261  -3.761  0.00  0.00     0.080 C 
ATOM     19  C4  NON d   1     -48.486  15.379  -4.939  0.00  0.00     0.032 C 
BRANCH  18  20
ATOM     20  C2  NON d   1     -48.952  16.455  -2.543  0.00  0.00     0.020 C 
ATOM     21  C1  NON d   1     -50.455  16.142  -2.657  0.00  0.00     0.007 C 
ENDBRANCH  18  20
ENDBRANCH  15  18
ENDBRANCH  11  14
ENDBRANCH   6   8
ENDBRANCH   5   6
ENDBRANCH   1   5
BRANCH   3  22
ATOM     22  C12 NON d   1     -40.117  22.321  -0.229  0.00  0.00     0.035 A 
ATOM     23  C13 NON d   1     -41.116  23.222  -0.598  0.00  0.00     0.029 A 
ATOM     24  C14 NON d   1     -41.214  24.472   0.011  0.00  0.00     0.003 A 
ATOM     25  C15 NON d   1     -40.318  24.860   1.011  0.00  0.00     0.017 A 
ATOM     26  C16 NON d   1     -39.289  24.012   1.414  0.00  0.00     0.034 A 
ATOM     27  C22 NON d   1     -39.207  22.733   0.775  0.00  0.00     0.046 A 
BRANCH  26  28
ATOM     28  C17 NON d   1     -38.269  24.347   2.474  0.00  0.00     0.251 C 
ATOM     29  O3  NON d   1     -37.420  23.492   2.748  0.00  0.00    -0.268 OA
ATOM     30  N4  NON d   1     -38.188  25.537   3.179  0.00  0.00    -0.357 N 
ATOM     31  H20 NON d   1     -37.415  25.506   3.843  0.00  0.00     0.162 HD
BRANCH  30  32
ATOM     32  C18 NON d   1     -38.965  26.765   3.131  0.00  0.00     0.125 C 
BRANCH  32  33
ATOM     33  C19 NON d   1     -39.981  26.972   4.265  0.00  0.00     0.046 C 
BRANCH  33  34
ATOM     34  C20 NON d   1     -41.442  26.831   3.836  0.00  0.00     0.168 C 
BRANCH  34  35
ATOM     35  O4  NON d   1     -41.813  25.474   3.568  0.00  0.00    -0.396 OA
ATOM     36  C21 NON d   1     -41.457  24.540   4.578  0.00  0.00     0.201 C 
ENDBRANCH  34  35
ENDBRANCH  33  34
ENDBRANCH  32  33
ENDBRANCH  30  32
ENDBRANCH  26  28
ENDBRANCH   3  22
TORSDOF 12
ENDMDL
MODEL 2
REMARK VINA RESULT:   -13.530      1.459      1.900
REMARK INTER + INTRA:         -18.670
REMARK INTER:                 -17.110
REMARK INTRA:                  -1.560
REMARK CONF_INDEPENDENT:        3.580
REMARK UNBOUND:                -1.560
REMARK  12 active torsions:
REMARK  status: ('A' for Active; 'I' for Inactive)
REMARK    1  A    between atoms: C3_3  and  C2_2 
REMARK    2  A    between atoms: C3_3  and  N1_5 
REMARK       I    between atoms: N1_5  and  C5_6 
REMARK    3  A    between atoms: C5_6  and  C6_8 
REMARK    4  A    between atoms: C9_11  and  N2_12 
REMARK    5  A    between atoms: N2_12  and  C10_13 
REMARK    6  A    between atoms: C10_13  and  C11_14 
REMARK       I    between atoms: C11_14  and  N3_16 
REMARK    7  A    between atoms: N3_16  and  C12_17 
REMARK    8  A    between atoms: C16_21  and  C17_22 
REMARK       I    between atoms: C17_22  and  N4_24 
REMARK    9  A    between atoms: N4_24  and  C18_25 
REMARK   10  A    between atoms: C18_25  and  C19_26 
REMARK   11  A    between atoms: C19_26  and  C20_27 
REMARK   12  A    between atoms: C20_27  and  O4_28 
ROOT
ATOM      1  C11 NON d   1     -39.935  20.768  -1.871  0.00  0.00     0.239 C 
ATOM      2  O2  NON d   1     -40.072  21.691  -2.677  0.00  0.00    -0.271 OA
ATOM      3  N3  NON d   1     -39.654  20.925  -0.507  0.00  0.00    -0.326 N 
ATOM      4  H16 NON d   1     -39.644  20.090   0.065  0.00  0.00     0.169 HD
ENDROOT
BRANCH   1   5
ATOM      5  C10 NON d   1     -40.115  19.286  -2.344  0.00  0.00     0.223 C 
BRANCH   5   6
ATOM      6  N2  NON d   1     -40.752  19.255  -3.674  0.00  0.00    -0.381 N 
ATOM      7  H13 NON d   1     -40.486  20.075  -4.228  0.00  0.00     0.160 HD
BRANCH   6   8
ATOM      8  C9  NON d   1     -42.001  18.735  -3.989  0.00  0.00     0.028 A 
ATOM      9  C8  NON d   1     -42.443  17.594  -3.304  0.00  0.00     0.030 A 
ATOM     10  C7  NON d   1     -43.720  17.037  -3.513  0.00  0.00     0.019 A 
ATOM     11  C6  NON d   1     -44.639  17.618  -4.401  0.00  0.00     0.032 A 
ATOM     12  C24 NON d   1     -44.228  18.773  -5.073  0.00  0.00     0.019 A 
ATOM     13  C23 NON d   1     -42.930  19.325  -4.857  0.00  0.00     0.030 A 
BRANCH  11  14
ATOM     14  C5  NON d   1     -45.933  16.874  -4.645  0.00  0.00     0.251 C 
ATOM     15  N1  NON d   1     -46.670  16.324  -3.584  0.00  0.00    -0.353 N 
ATOM     16  H10 NON d   1     -46.334  16.475  -2.644  0.00  0.00     0.163 HD
ATOM     17  O1  NON d   1     -46.332  16.807  -5.808  0.00  0.00    -0.268 OA
BRANCH  15  18
ATOM     18  C3  NON d   1     -48.122  16.050  -3.768  0.00  0.00     0.080 C 
ATOM     19  C4  NON d   1     -48.537  15.233  -5.006  0.00  0.00     0.032 C 
BRANCH  18  20
ATOM     20  C2  NON d   1     -49.024  16.068  -2.521  0.00  0.00     0.020 C 
ATOM     21  C1  NON d   1     -50.541  16.288  -2.670  0.00  0.00     0.007 C 
ENDBRANCH  18  20
ENDBRANCH  15  18
ENDBRANCH  11  14
ENDBRANCH   6   8
ENDBRANCH   5   6
ENDBRANCH   1   5
BRANCH   3  22
ATOM     22  C12 NON d   1     -39.411  22.153   0.187  0.00  0.00     0.035 A 
ATOM     23  C13 NON d   1     -38.413  22.301   1.150  0.00  0.00     0.029 A 
ATOM     24  C14 NON d   1     -38.210  23.523   1.791  0.00  0.00     0.003 A 
ATOM     25  C15 NON d   1     -38.999  24.636   1.488  0.00  0.00     0.017 A 
ATOM     26  C16 NON d   1     -40.022  24.550   0.547  0.00  0.00     0.034 A 
ATOM     27  C22 NON d   1     -40.212  23.286  -0.099  0.00  0.00     0.046 A 
BRANCH  26  28
ATOM     28  C17 NON d   1     -40.931  25.691   0.162  0.00  0.00     0.251 C 
ATOM     29  O3  NON d   1     -41.275  25.781  -1.021  0.00  0.00    -0.268 OA
ATOM     30  N4  NON d   1     -41.427  26.661   1.019  0.00  0.00    -0.357 N 
ATOM     31  H20 NON d   1     -42.010  27.323   0.509  0.00  0.00     0.162 HD
BRANCH  30  32
ATOM     32  C18 NON d   1     -41.279  26.880   2.449  0.00  0.00     0.125 C 
BRANCH  32  33
ATOM     33  C19 NON d   1     -42.540  27.332   3.202  0.00  0.00     0.046 C 
BRANCH  33  34
ATOM     34  C20 NON d   1     -42.937  26.423   4.367  0.00  0.00     0.168 C 
BRANCH  34  35
ATOM     35  O4  NON d   1     -42.359  25.116   4.273  0.00  0.00    -0.396 OA
ATOM     36  C21 NON d   1     -41.138  24.944   4.978  0.00  0.00     0.201 C 
ENDBRANCH  34  35
ENDBRANCH  33  34
ENDBRANCH  32  33
ENDBRANCH  30  32
ENDBRANCH  26  28
ENDBRANCH   3  22
TORSDOF 12
ENDMDL
MODEL 3
REMARK VINA RESULT:   -12.676      1.878      3.687
REMARK INTER + INTRA:         -18.187
REMARK INTER:                 -16.255
REMARK INTRA:                  -1.931
REMARK CONF_INDEPENDENT:        3.580
REMARK UNBOUND:                -1.931
REMARK  12 active torsions:
REMARK  status: ('A' for Active; 'I' for Inactive)
REMARK    1  A    between atoms: C3_3  and  C2_2 
REMARK    2  A    between atoms: C3_3  and  N1_5 
REMARK       I    between atoms: N1_5  and  C5_6 
REMARK    3  A    between atoms: C5_6  and  C6_8 
REMARK    4  A    between atoms: C9_11  and  N2_12 
REMARK    5  A    between atoms: N2_12  and  C10_13 
REMARK    6  A    between atoms: C10_13  and  C11_14 
REMARK       I    between atoms: C11_14  and  N3_16 
REMARK    7  A    between atoms: N3_16  and  C12_17 
REMARK    8  A    between atoms: C16_21  and  C17_22 
REMARK       I    between atoms: C17_22  and  N4_24 
REMARK    9  A    between atoms: N4_24  and  C18_25 
REMARK   10  A    between atoms: C18_25  and  C19_26 
REMARK   11  A    between atoms: C19_26  and  C20_27 
REMARK   12  A    between atoms: C20_27  and  O4_28 
ROOT
ATOM      1  C11 NON d   1     -39.800  21.034  -1.888  0.00  0.00     0.239 C 
ATOM      2  O2  NON d   1     -40.136  21.995  -2.584  0.00  0.00    -0.271 OA
ATOM      3  N3  NON d   1     -39.478  21.101  -0.525  0.00  0.00    -0.326 N 
ATOM      4  H16 NON d   1     -39.296  20.227  -0.048  0.00  0.00     0.169 HD
ENDROOT
BRANCH   1   5
ATOM      5  C10 NON d   1     -39.751  19.599  -2.511  0.00  0.00     0.223 C 
BRANCH   5   6
ATOM      6  N2  NON d   1     -40.586  19.547  -3.725  0.00  0.00    -0.381 N 
ATOM      7  H13 NON d   1     -40.522  20.424  -4.253  0.00  0.00     0.160 HD
BRANCH   6   8
ATOM      8  C9  NON d   1     -41.791  18.875  -3.881  0.00  0.00     0.028 A 
ATOM      9  C8  NON d   1     -42.730  19.386  -4.789  0.00  0.00     0.030 A 
ATOM     10  C7  NON d   1     -43.950  18.734  -5.058  0.00  0.00     0.019 A 
ATOM     11  C6  NON d   1     -44.280  17.512  -4.452  0.00  0.00     0.032 A 
ATOM     12  C24 NON d   1     -43.344  16.971  -3.565  0.00  0.00     0.019 A 
ATOM     13  C23 NON d   1     -42.114  17.643  -3.296  0.00  0.00     0.030 A 
BRANCH  11  14
ATOM     14  C5  NON d   1     -45.663  16.959  -4.712  0.00  0.00     0.251 C 
ATOM     15  N1  NON d   1     -46.359  16.240  -3.727  0.00  0.00    -0.353 N 
ATOM     16  H10 NON d   1     -45.927  16.140  -2.819  0.00  0.00     0.163 HD
ATOM     17  O1  NON d   1     -46.167  17.198  -5.810  0.00  0.00    -0.268 OA
BRANCH  15  18
ATOM     18  C3  NON d   1     -47.843  16.140  -3.806  0.00  0.00     0.080 C 
ATOM     19  C4  NON d   1     -48.431  15.117  -4.796  0.00  0.00     0.032 C 
BRANCH  18  20
ATOM     20  C2  NON d   1     -48.663  16.587  -2.582  0.00  0.00     0.020 C 
ATOM     21  C1  NON d   1     -50.193  16.417  -2.578  0.00  0.00     0.007 C 
ENDBRANCH  18  20
ENDBRANCH  15  18
ENDBRANCH  11  14
ENDBRANCH   6   8
ENDBRANCH   5   6
ENDBRANCH   1   5
BRANCH   3  22
ATOM     22  C12 NON d   1     -39.411  22.277   0.288  0.00  0.00     0.035 A 
ATOM     23  C13 NON d   1     -38.486  22.440   1.319  0.00  0.00     0.029 A 
ATOM     24  C14 NON d   1     -38.456  23.610   2.077  0.00  0.00     0.003 A 
ATOM     25  C15 NON d   1     -39.349  24.655   1.826  0.00  0.00     0.017 A 
ATOM     26  C16 NON d   1     -40.307  24.549   0.821  0.00  0.00     0.034 A 
ATOM     27  C22 NON d   1     -40.319  23.338   0.055  0.00  0.00     0.046 A 
BRANCH  26  28
ATOM     28  C17 NON d   1     -41.319  25.617   0.484  0.00  0.00     0.251 C 
ATOM     29  O3  NON d   1     -42.190  25.871   1.322  0.00  0.00    -0.268 OA
ATOM     30  N4  NON d   1     -41.364  26.352  -0.690  0.00  0.00    -0.357 N 
ATOM     31  H20 NON d   1     -42.149  27.003  -0.672  0.00  0.00     0.162 HD
BRANCH  30  32
ATOM     32  C18 NON d   1     -40.524  26.367  -1.876  0.00  0.00     0.125 C 
BRANCH  32  33
ATOM     33  C19 NON d   1     -40.414  25.043  -2.648  0.00  0.00     0.046 C 
BRANCH  33  34
ATOM     34  C20 NON d   1     -41.374  24.924  -3.833  0.00  0.00     0.168 C 
BRANCH  34  35
ATOM     35  O4  NON d   1     -41.408  23.604  -4.389  0.00  0.00    -0.396 OA
ATOM     36  C21 NON d   1     -40.316  23.278  -5.237  0.00  0.00     0.201 C 
ENDBRANCH  34  35
ENDBRANCH  33  34
ENDBRANCH  32  33
ENDBRANCH  30  32
ENDBRANCH  26  28
ENDBRANCH   3  22
TORSDOF 12
ENDMDL
MODEL 4
REMARK VINA RESULT:   -12.291      6.592      9.197
REMARK INTER + INTRA:         -17.048
REMARK INTER:                 -15.871
REMARK INTRA:                  -1.177
REMARK CONF_INDEPENDENT:        3.580
REMARK UNBOUND:                -1.177
REMARK  12 active torsions:
REMARK  status: ('A' for Active; 'I' for Inactive)
REMARK    1  A    between atoms: C3_3  and  C2_2 
REMARK    2  A    between atoms: C3_3  and  N1_5 
REMARK       I    between atoms: N1_5  and  C5_6 
REMARK    3  A    between atoms: C5_6  and  C6_8 
REMARK    4  A    between atoms: C9_11  and  N2_12 
REMARK    5  A    between atoms: N2_12  and  C10_13 
REMARK    6  A    between atoms: C10_13  and  C11_14 
REMARK       I    between atoms: C11_14  and  N3_16 
REMARK    7  A    between atoms: N3_16  and  C12_17 
REMARK    8  A    between atoms: C16_21  and  C17_22 
REMARK       I    between atoms: C17_22  and  N4_24 
REMARK    9  A    between atoms: N4_24  and  C18_25 
REMARK   10  A    between atoms: C18_25  and  C19_26 
REMARK   11  A    between atoms: C19_26  and  C20_27 
REMARK   12  A    between atoms: C20_27  and  O4_28 
ROOT
ATOM      1  C11 NON d   1     -40.065  19.369  -6.354  0.00  0.00     0.239 C 
ATOM      2  O2  NON d   1     -41.098  19.188  -7.004  0.00  0.00    -0.271 OA
ATOM      3  N3  NON d   1     -38.999  20.189  -6.748  0.00  0.00    -0.326 N 
ATOM      4  H16 NON d   1     -38.243  20.318  -6.088  0.00  0.00     0.169 HD
ENDROOT
BRANCH   1   5
ATOM      5  C10 NON d   1     -39.893  18.686  -4.955  0.00  0.00     0.223 C 
BRANCH   5   6
ATOM      6  N2  NON d   1     -41.082  18.941  -4.121  0.00  0.00    -0.381 N 
ATOM      7  H13 NON d   1     -40.820  19.078  -3.140  0.00  0.00     0.160 HD
BRANCH   6   8
ATOM      8  C9  NON d   1     -42.357  18.420  -4.303  0.00  0.00     0.028 A 
ATOM      9  C8  NON d   1     -42.718  17.268  -3.588  0.00  0.00     0.030 A 
ATOM     10  C7  NON d   1     -44.009  16.710  -3.662  0.00  0.00     0.019 A 
ATOM     11  C6  NON d   1     -45.021  17.297  -4.437  0.00  0.00     0.032 A 
ATOM     12  C24 NON d   1     -44.690  18.462  -5.136  0.00  0.00     0.019 A 
ATOM     13  C23 NON d   1     -43.377  19.016  -5.057  0.00  0.00     0.030 A 
BRANCH  11  14
ATOM     14  C5  NON d   1     -46.333  16.552  -4.547  0.00  0.00     0.251 C 
ATOM     15  N1  NON d   1     -47.074  16.206  -3.405  0.00  0.00    -0.353 N 
ATOM     16  H10 NON d   1     -46.727  16.508  -2.505  0.00  0.00     0.163 HD
ATOM     17  O1  NON d   1     -46.741  16.298  -5.680  0.00  0.00    -0.268 OA
BRANCH  15  18
ATOM     18  C3  NON d   1     -48.533  15.937  -3.534  0.00  0.00     0.080 C 
ATOM     19  C4  NON d   1     -48.983  15.014  -4.682  0.00  0.00     0.032 C 
BRANCH  18  20
ATOM     20  C2  NON d   1     -49.408  16.085  -2.277  0.00  0.00     0.020 C 
ATOM     21  C1  NON d   1     -48.888  16.884  -1.067  0.00  0.00     0.007 C 
ENDBRANCH  18  20
ENDBRANCH  15  18
ENDBRANCH  11  14
ENDBRANCH   6   8
ENDBRANCH   5   6
ENDBRANCH   1   5
BRANCH   3  22
ATOM     22  C12 NON d   1     -38.873  20.906  -7.981  0.00  0.00     0.035 A 
ATOM     23  C13 NON d   1     -38.134  20.435  -9.065  0.00  0.00     0.029 A 
ATOM     24  C14 NON d   1     -38.051  21.168 -10.249  0.00  0.00     0.003 A 
ATOM     25  C15 NON d   1     -38.706  22.395 -10.385  0.00  0.00     0.017 A 
ATOM     26  C16 NON d   1     -39.447  22.928  -9.334  0.00  0.00     0.034 A 
ATOM     27  C22 NON d   1     -39.519  22.158  -8.128  0.00  0.00     0.046 A 
BRANCH  26  28
ATOM     28  C17 NON d   1     -40.179  24.248  -9.382  0.00  0.00     0.251 C 
ATOM     29  O3  NON d   1     -40.687  24.664  -8.337  0.00  0.00    -0.268 OA
ATOM     30  N4  NON d   1     -40.335  25.050 -10.502  0.00  0.00    -0.357 N 
ATOM     31  H20 NON d   1     -40.876  25.882 -10.270  0.00  0.00     0.162 HD
BRANCH  30  32
ATOM     32  C18 NON d   1     -39.875  24.925 -11.875  0.00  0.00     0.125 C 
BRANCH  32  33
ATOM     33  C19 NON d   1     -40.693  23.995 -12.784  0.00  0.00     0.046 C 
BRANCH  33  34
ATOM     34  C20 NON d   1     -39.852  23.009 -13.597  0.00  0.00     0.168 C 
BRANCH  34  35
ATOM     35  O4  NON d   1     -38.457  23.078 -13.281  0.00  0.00    -0.396 OA
ATOM     36  C21 NON d   1     -37.579  22.723 -14.340  0.00  0.00     0.201 C 
ENDBRANCH  34  35
ENDBRANCH  33  34
ENDBRANCH  32  33
ENDBRANCH  30  32
ENDBRANCH  26  28
ENDBRANCH   3  22
TORSDOF 12
ENDMDL
MODEL 5
REMARK VINA RESULT:   -12.049      6.568      9.398
REMARK INTER + INTRA:         -17.337
REMARK INTER:                 -15.629
REMARK INTRA:                  -1.708
REMARK CONF_INDEPENDENT:        3.580
REMARK UNBOUND:                -1.708
REMARK  12 active torsions:
REMARK  status: ('A' for Active; 'I' for Inactive)
REMARK    1  A    between atoms: C3_3  and  C2_2 
REMARK    2  A    between atoms: C3_3  and  N1_5 
REMARK       I    between atoms: N1_5  and  C5_6 
REMARK    3  A    between atoms: C5_6  and  C6_8 
REMARK    4  A    between atoms: C9_11  and  N2_12 
REMARK    5  A    between atoms: N2_12  and  C10_13 
REMARK    6  A    between atoms: C10_13  and  C11_14 
REMARK       I    between atoms: C11_14  and  N3_16 
REMARK    7  A    between atoms: N3_16  and  C12_17 
REMARK    8  A    between atoms: C16_21  and  C17_22 
REMARK       I    between atoms: C17_22  and  N4_24 
REMARK    9  A    between atoms: N4_24  and  C18_25 
REMARK   10  A    between atoms: C18_25  and  C19_26 
REMARK   11  A    between atoms: C19_26  and  C20_27 
REMARK   12  A    between atoms: C20_27  and  O4_28 
ROOT
ATOM      1  C11 NON d   1     -39.931  19.564  -6.583  0.00  0.00     0.239 C 
ATOM      2  O2  NON d   1     -40.943  19.353  -7.256  0.00  0.00    -0.271 OA
ATOM      3  N3  NON d   1     -38.833  20.329  -6.999  0.00  0.00    -0.326 N 
ATOM      4  H16 NON d   1     -38.098  20.494  -6.322  0.00  0.00     0.169 HD
ENDROOT
BRANCH   1   5
ATOM      5  C10 NON d   1     -39.827  18.992  -5.129  0.00  0.00     0.223 C 
BRANCH   5   6
ATOM      6  N2  NON d   1     -41.034  19.348  -4.360  0.00  0.00    -0.381 N 
ATOM      7  H13 NON d   1     -40.786  19.822  -3.486  0.00  0.00     0.160 HD
BRANCH   6   8
ATOM      8  C9  NON d   1     -42.228  18.641  -4.306  0.00  0.00     0.028 A 
ATOM      9  C8  NON d   1     -43.309  19.092  -5.078  0.00  0.00     0.030 A 
ATOM     10  C7  NON d   1     -44.535  18.400  -5.134  0.00  0.00     0.019 A 
ATOM     11  C6  NON d   1     -44.733  17.197  -4.441  0.00  0.00     0.032 A 
ATOM     12  C24 NON d   1     -43.658  16.715  -3.687  0.00  0.00     0.019 A 
ATOM     13  C23 NON d   1     -42.422  17.427  -3.633  0.00  0.00     0.030 A 
BRANCH  11  14
ATOM     14  C5  NON d   1     -46.122  16.600  -4.467  0.00  0.00     0.251 C 
ATOM     15  N1  NON d   1     -46.667  15.968  -3.338  0.00  0.00    -0.353 N 
ATOM     16  H10 NON d   1     -46.119  15.960  -2.488  0.00  0.00     0.163 HD
ATOM     17  O1  NON d   1     -46.769  16.726  -5.507  0.00  0.00    -0.268 OA
BRANCH  15  18
ATOM     18  C3  NON d   1     -48.145  15.838  -3.214  0.00  0.00     0.080 C 
ATOM     19  C4  NON d   1     -48.879  16.890  -2.362  0.00  0.00     0.032 C 
BRANCH  18  20
ATOM     20  C2  NON d   1     -48.899  15.087  -4.327  0.00  0.00     0.020 C 
ATOM     21  C1  NON d   1     -50.150  14.257  -3.984  0.00  0.00     0.007 C 
ENDBRANCH  18  20
ENDBRANCH  15  18
ENDBRANCH  11  14
ENDBRANCH   6   8
ENDBRANCH   5   6
ENDBRANCH   1   5
BRANCH   3  22
ATOM     22  C12 NON d   1     -38.645  20.943  -8.279  0.00  0.00     0.035 A 
ATOM     23  C13 NON d   1     -37.724  20.480  -9.219  0.00  0.00     0.029 A 
ATOM     24  C14 NON d   1     -37.586  21.108 -10.456  0.00  0.00     0.003 A 
ATOM     25  C15 NON d   1     -38.367  22.217 -10.793  0.00  0.00     0.017 A 
ATOM     26  C16 NON d   1     -39.293  22.737  -9.893  0.00  0.00     0.034 A 
ATOM     27  C22 NON d   1     -39.418  22.076  -8.629  0.00  0.00     0.046 A 
BRANCH  26  28
ATOM     28  C17 NON d   1     -40.171  23.935 -10.162  0.00  0.00     0.251 C 
ATOM     29  O3  NON d   1     -40.463  24.662  -9.207  0.00  0.00    -0.268 OA
ATOM     30  N4  NON d   1     -40.687  24.306 -11.394  0.00  0.00    -0.357 N 
ATOM     31  H20 NON d   1     -41.255  25.147 -11.304  0.00  0.00     0.162 HD
BRANCH  30  32
ATOM     32  C18 NON d   1     -40.555  23.741 -12.727  0.00  0.00     0.125 C 
BRANCH  32  33
ATOM     33  C19 NON d   1     -40.767  24.709 -13.900  0.00  0.00     0.046 C 
BRANCH  33  34
ATOM     34  C20 NON d   1     -40.183  26.106 -13.678  0.00  0.00     0.168 C 
BRANCH  34  35
ATOM     35  O4  NON d   1     -40.845  26.823 -12.630  0.00  0.00    -0.396 OA
ATOM     36  C21 NON d   1     -42.130  27.329 -12.962  0.00  0.00     0.201 C 
ENDBRANCH  34  35
ENDBRANCH  33  34
ENDBRANCH  32  33
ENDBRANCH  30  32
ENDBRANCH  26  28
ENDBRANCH   3  22
TORSDOF 12
ENDMDL
MODEL 6
REMARK VINA RESULT:   -11.904      6.737      9.874
REMARK INTER + INTRA:         -17.062
REMARK INTER:                 -15.483
REMARK INTRA:                  -1.579
REMARK CONF_INDEPENDENT:        3.580
REMARK UNBOUND:                -1.579
REMARK  12 active torsions:
REMARK  status: ('A' for Active; 'I' for Inactive)
REMARK    1  A    between atoms: C3_3  and  C2_2 
REMARK    2  A    between atoms: C3_3  and  N1_5 
REMARK       I    between atoms: N1_5  and  C5_6 
REMARK    3  A    between atoms: C5_6  and  C6_8 
REMARK    4  A    between atoms: C9_11  and  N2_12 
REMARK    5  A    between atoms: N2_12  and  C10_13 
REMARK    6  A    between atoms: C10_13  and  C11_14 
REMARK       I    between atoms: C11_14  and  N3_16 
REMARK    7  A    between atoms: N3_16  and  C12_17 
REMARK    8  A    between atoms: C16_21  and  C17_22 
REMARK       I    between atoms: C17_22  and  N4_24 
REMARK    9  A    between atoms: N4_24  and  C18_25 
REMARK   10  A    between atoms: C18_25  and  C19_26 
REMARK   11  A    between atoms: C19_26  and  C20_27 
REMARK   12  A    between atoms: C20_27  and  O4_28 
ROOT
ATOM      1  C11 NON d   1     -40.184  19.960  -6.859  0.00  0.00     0.239 C 
ATOM      2  O2  NON d   1     -40.686  19.497  -7.887  0.00  0.00    -0.271 OA
ATOM      3  N3  NON d   1     -39.751  21.283  -6.701  0.00  0.00    -0.326 N 
ATOM      4  H16 NON d   1     -39.431  21.561  -5.782  0.00  0.00     0.169 HD
ENDROOT
BRANCH   1   5
ATOM      5  C10 NON d   1     -40.032  19.057  -5.589  0.00  0.00     0.223 C 
BRANCH   5   6
ATOM      6  N2  NON d   1     -41.152  19.299  -4.661  0.00  0.00    -0.381 N 
ATOM      7  H13 NON d   1     -40.815  19.664  -3.765  0.00  0.00     0.160 HD
BRANCH   6   8
ATOM      8  C9  NON d   1     -42.335  18.575  -4.573  0.00  0.00     0.028 A 
ATOM      9  C8  NON d   1     -43.477  19.080  -5.211  0.00  0.00     0.030 A 
ATOM     10  C7  NON d   1     -44.700  18.381  -5.229  0.00  0.00     0.019 A 
ATOM     11  C6  NON d   1     -44.835  17.118  -4.632  0.00  0.00     0.032 A 
ATOM     12  C24 NON d   1     -43.699  16.584  -4.014  0.00  0.00     0.019 A 
ATOM     13  C23 NON d   1     -42.466  17.304  -3.998  0.00  0.00     0.030 A 
BRANCH  11  14
ATOM     14  C5  NON d   1     -46.218  16.509  -4.598  0.00  0.00     0.251 C 
ATOM     15  N1  NON d   1     -46.894  16.299  -3.385  0.00  0.00    -0.353 N 
ATOM     16  H10 NON d   1     -46.447  16.608  -2.534  0.00  0.00     0.163 HD
ATOM     17  O1  NON d   1     -46.742  16.242  -5.680  0.00  0.00    -0.268 OA
BRANCH  15  18
ATOM     18  C3  NON d   1     -48.378  16.177  -3.387  0.00  0.00     0.080 C 
ATOM     19  C4  NON d   1     -48.999  15.112  -4.310  0.00  0.00     0.032 C 
BRANCH  18  20
ATOM     20  C2  NON d   1     -49.143  16.656  -2.140  0.00  0.00     0.020 C 
ATOM     21  C1  NON d   1     -50.678  16.542  -2.087  0.00  0.00     0.007 C 
ENDBRANCH  18  20
ENDBRANCH  15  18
ENDBRANCH  11  14
ENDBRANCH   6   8
ENDBRANCH   5   6
ENDBRANCH   1   5
BRANCH   3  22
ATOM     22  C12 NON d   1     -39.742  22.312  -7.697  0.00  0.00     0.035 A 
ATOM     23  C13 NON d   1     -39.950  23.660  -7.403  0.00  0.00     0.029 A 
ATOM     24  C14 NON d   1     -39.922  24.626  -8.408  0.00  0.00     0.003 A 
ATOM     25  C15 NON d   1     -39.684  24.274  -9.739  0.00  0.00     0.017 A 
ATOM     26  C16 NON d   1     -39.484  22.944 -10.101  0.00  0.00     0.034 A 
ATOM     27  C22 NON d   1     -39.517  21.970  -9.052  0.00  0.00     0.046 A 
BRANCH  26  28
ATOM     28  C17 NON d   1     -39.232  22.467 -11.511  0.00  0.00     0.251 C 
ATOM     29  O3  NON d   1     -38.474  21.504 -11.667  0.00  0.00    -0.268 OA
ATOM     30  N4  NON d   1     -39.776  23.011 -12.663  0.00  0.00    -0.357 N 
ATOM     31  H20 NON d   1     -39.440  22.512 -13.486  0.00  0.00     0.162 HD
BRANCH  30  32
ATOM     32  C18 NON d   1     -40.706  24.105 -12.892  0.00  0.00     0.125 C 
BRANCH  32  33
ATOM     33  C19 NON d   1     -41.090  24.377 -14.354  0.00  0.00     0.046 C 
BRANCH  33  34
ATOM     34  C20 NON d   1     -39.918  24.792 -15.246  0.00  0.00     0.168 C 
BRANCH  34  35
ATOM     35  O4  NON d   1     -38.780  23.935 -15.100  0.00  0.00    -0.396 OA
ATOM     36  C21 NON d   1     -38.277  23.387 -16.310  0.00  0.00     0.201 C 
ENDBRANCH  34  35
ENDBRANCH  33  34
ENDBRANCH  32  33
ENDBRANCH  30  32
ENDBRANCH  26  28
ENDBRANCH   3  22
TORSDOF 12
ENDMDL
MODEL 7
REMARK VINA RESULT:   -11.752      1.904      3.354
REMARK INTER + INTRA:         -17.144
REMARK INTER:                 -15.332
REMARK INTRA:                  -1.813
REMARK CONF_INDEPENDENT:        3.580
REMARK UNBOUND:                -1.813
REMARK  12 active torsions:
REMARK  status: ('A' for Active; 'I' for Inactive)
REMARK    1  A    between atoms: C3_3  and  C2_2 
REMARK    2  A    between atoms: C3_3  and  N1_5 
REMARK       I    between atoms: N1_5  and  C5_6 
REMARK    3  A    between atoms: C5_6  and  C6_8 
REMARK    4  A    between atoms: C9_11  and  N2_12 
REMARK    5  A    between atoms: N2_12  and  C10_13 
REMARK    6  A    between atoms: C10_13  and  C11_14 
REMARK       I    between atoms: C11_14  and  N3_16 
REMARK    7  A    between atoms: N3_16  and  C12_17 
REMARK    8  A    between atoms: C16_21  and  C17_22 
REMARK       I    between atoms: C17_22  and  N4_24 
REMARK    9  A    between atoms: N4_24  and  C18_25 
REMARK   10  A    between atoms: C18_25  and  C19_26 
REMARK   11  A    between atoms: C19_26  and  C20_27 
REMARK   12  A    between atoms: C20_27  and  O4_28 
ROOT
ATOM      1  C11 NON d   1     -40.493  21.791  -4.405  0.00  0.00     0.239 C 
ATOM      2  O2  NON d   1     -40.939  22.621  -5.202  0.00  0.00    -0.271 OA
ATOM      3  N3  NON d   1     -40.297  22.015  -3.036  0.00  0.00    -0.326 N 
ATOM      4  H16 NON d   1     -40.000  21.227  -2.474  0.00  0.00     0.169 HD
ENDROOT
BRANCH   1   5
ATOM      5  C10 NON d   1     -40.140  20.348  -4.898  0.00  0.00     0.223 C 
BRANCH   5   6
ATOM      6  N2  NON d   1     -40.648  19.349  -3.940  0.00  0.00    -0.381 N 
ATOM      7  H13 NON d   1     -39.877  18.843  -3.493  0.00  0.00     0.160 HD
BRANCH   6   8
ATOM      8  C9  NON d   1     -41.826  18.621  -4.040  0.00  0.00     0.028 A 
ATOM      9  C8  NON d   1     -42.855  19.121  -4.851  0.00  0.00     0.030 A 
ATOM     10  C7  NON d   1     -44.058  18.417  -5.061  0.00  0.00     0.019 A 
ATOM     11  C6  NON d   1     -44.280  17.154  -4.492  0.00  0.00     0.032 A 
ATOM     12  C24 NON d   1     -43.254  16.625  -3.702  0.00  0.00     0.019 A 
ATOM     13  C23 NON d   1     -42.043  17.349  -3.492  0.00  0.00     0.030 A 
BRANCH  11  14
ATOM     14  C5  NON d   1     -45.649  16.539  -4.678  0.00  0.00     0.251 C 
ATOM     15  N1  NON d   1     -46.542  16.407  -3.601  0.00  0.00    -0.353 N 
ATOM     16  H10 NON d   1     -46.260  16.774  -2.703  0.00  0.00     0.163 HD
ATOM     17  O1  NON d   1     -45.962  16.197  -5.818  0.00  0.00    -0.268 OA
BRANCH  15  18
ATOM     18  C3  NON d   1     -48.000  16.275  -3.873  0.00  0.00     0.080 C 
ATOM     19  C4  NON d   1     -48.422  15.378  -5.051  0.00  0.00     0.032 C 
BRANCH  18  20
ATOM     20  C2  NON d   1     -48.976  16.529  -2.710  0.00  0.00     0.020 C 
ATOM     21  C1  NON d   1     -50.295  15.738  -2.626  0.00  0.00     0.007 C 
ENDBRANCH  18  20
ENDBRANCH  15  18
ENDBRANCH  11  14
ENDBRANCH   6   8
ENDBRANCH   5   6
ENDBRANCH   1   5
BRANCH   3  22
ATOM     22  C12 NON d   1     -40.505  23.239  -2.323  0.00  0.00     0.035 A 
ATOM     23  C13 NON d   1     -40.756  24.457  -2.956  0.00  0.00     0.029 A 
ATOM     24  C14 NON d   1     -40.962  25.621  -2.216  0.00  0.00     0.003 A 
ATOM     25  C15 NON d   1     -40.927  25.603  -0.819  0.00  0.00     0.017 A 
ATOM     26  C16 NON d   1     -40.666  24.422  -0.128  0.00  0.00     0.034 A 
ATOM     27  C22 NON d   1     -40.457  23.240  -0.908  0.00  0.00     0.046 A 
BRANCH  26  28
ATOM     28  C17 NON d   1     -40.596  24.306   1.376  0.00  0.00     0.251 C 
ATOM     29  O3  NON d   1     -41.453  24.899   2.040  0.00  0.00    -0.268 OA
ATOM     30  N4  NON d   1     -39.654  23.588   2.094  0.00  0.00    -0.357 N 
ATOM     31  H20 NON d   1     -39.823  23.678   3.095  0.00  0.00     0.162 HD
BRANCH  30  32
ATOM     32  C18 NON d   1     -38.531  22.758   1.689  0.00  0.00     0.125 C 
BRANCH  32  33
ATOM     33  C19 NON d   1     -38.873  21.497   0.880  0.00  0.00     0.046 C 
BRANCH  33  34
ATOM     34  C20 NON d   1     -37.738  20.993  -0.013  0.00  0.00     0.168 C 
BRANCH  34  35
ATOM     35  O4  NON d   1     -37.968  21.257  -1.402  0.00  0.00    -0.396 OA
ATOM     36  C21 NON d   1     -37.247  22.358  -1.935  0.00  0.00     0.201 C 
ENDBRANCH  34  35
ENDBRANCH  33  34
ENDBRANCH  32  33
ENDBRANCH  30  32
ENDBRANCH  26  28
ENDBRANCH   3  22
TORSDOF 12
ENDMDL
MODEL 8
REMARK VINA RESULT:   -11.692      4.516      7.232
REMARK INTER + INTRA:         -17.986
REMARK INTER:                 -15.272
REMARK INTRA:                  -2.714
REMARK CONF_INDEPENDENT:        3.580
REMARK UNBOUND:                -2.714
REMARK  12 active torsions:
REMARK  status: ('A' for Active; 'I' for Inactive)
REMARK    1  A    between atoms: C3_3  and  C2_2 
REMARK    2  A    between atoms: C3_3  and  N1_5 
REMARK       I    between atoms: N1_5  and  C5_6 
REMARK    3  A    between atoms: C5_6  and  C6_8 
REMARK    4  A    between atoms: C9_11  and  N2_12 
REMARK    5  A    between atoms: N2_12  and  C10_13 
REMARK    6  A    between atoms: C10_13  and  C11_14 
REMARK       I    between atoms: C11_14  and  N3_16 
REMARK    7  A    between atoms: N3_16  and  C12_17 
REMARK    8  A    between atoms: C16_21  and  C17_22 
REMARK       I    between atoms: C17_22  and  N4_24 
REMARK    9  A    between atoms: N4_24  and  C18_25 
REMARK   10  A    between atoms: C18_25  and  C19_26 
REMARK   11  A    between atoms: C19_26  and  C20_27 
REMARK   12  A    between atoms: C20_27  and  O4_28 
ROOT
ATOM      1  C11 NON d   1     -40.146  21.280  -3.127  0.00  0.00     0.239 C 
ATOM      2  O2  NON d   1     -40.320  22.239  -2.371  0.00  0.00    -0.271 OA
ATOM      3  N3  NON d   1     -39.830  21.376  -4.489  0.00  0.00    -0.326 N 
ATOM      4  H16 NON d   1     -39.632  20.514  -4.982  0.00  0.00     0.169 HD
ENDROOT
BRANCH   1   5
ATOM      5  C10 NON d   1     -40.233  19.820  -2.568  0.00  0.00     0.223 C 
BRANCH   5   6
ATOM      6  N2  NON d   1     -40.596  18.887  -3.650  0.00  0.00    -0.381 N 
ATOM      7  H13 NON d   1     -39.973  18.999  -4.456  0.00  0.00     0.160 HD
BRANCH   6   8
ATOM      8  C9  NON d   1     -41.870  18.438  -3.972  0.00  0.00     0.028 A 
ATOM      9  C8  NON d   1     -42.374  17.316  -3.299  0.00  0.00     0.030 A 
ATOM     10  C7  NON d   1     -43.679  16.831  -3.515  0.00  0.00     0.019 A 
ATOM     11  C6  NON d   1     -44.564  17.468  -4.399  0.00  0.00     0.032 A 
ATOM     12  C24 NON d   1     -44.090  18.606  -5.060  0.00  0.00     0.019 A 
ATOM     13  C23 NON d   1     -42.764  19.085  -4.837  0.00  0.00     0.030 A 
BRANCH  11  14
ATOM     14  C5  NON d   1     -45.895  16.799  -4.653  0.00  0.00     0.251 C 
ATOM     15  N1  NON d   1     -46.640  16.233  -3.604  0.00  0.00    -0.353 N 
ATOM     16  H10 NON d   1     -46.280  16.324  -2.665  0.00  0.00     0.163 HD
ATOM     17  O1  NON d   1     -46.317  16.805  -5.810  0.00  0.00    -0.268 OA
BRANCH  15  18
ATOM     18  C3  NON d   1     -48.106  16.036  -3.773  0.00  0.00     0.080 C 
ATOM     19  C4  NON d   1     -48.583  15.341  -5.062  0.00  0.00     0.032 C 
BRANCH  18  20
ATOM     20  C2  NON d   1     -48.978  15.989  -2.505  0.00  0.00     0.020 C 
ATOM     21  C1  NON d   1     -50.429  16.503  -2.549  0.00  0.00     0.007 C 
ENDBRANCH  18  20
ENDBRANCH  15  18
ENDBRANCH  11  14
ENDBRANCH   6   8
ENDBRANCH   5   6
ENDBRANCH   1   5
BRANCH   3  22
ATOM     22  C12 NON d   1     -39.717  22.574  -5.266  0.00  0.00     0.035 A 
ATOM     23  C13 NON d   1     -39.404  23.815  -4.713  0.00  0.00     0.029 A 
ATOM     24  C14 NON d   1     -39.296  24.951  -5.514  0.00  0.00     0.003 A 
ATOM     25  C15 NON d   1     -39.497  24.880  -6.896  0.00  0.00     0.017 A 
ATOM     26  C16 NON d   1     -39.828  23.674  -7.507  0.00  0.00     0.034 A 
ATOM     27  C22 NON d   1     -39.933  22.521  -6.664  0.00  0.00     0.046 A 
BRANCH  26  28
ATOM     28  C17 NON d   1     -40.075  23.501  -8.986  0.00  0.00     0.251 C 
ATOM     29  O3  NON d   1     -40.426  24.494  -9.632  0.00  0.00    -0.268 OA
ATOM     30  N4  NON d   1     -39.941  22.322  -9.701  0.00  0.00    -0.357 N 
ATOM     31  H20 NON d   1     -40.174  22.471 -10.682  0.00  0.00     0.162 HD
BRANCH  30  32
ATOM     32  C18 NON d   1     -39.534  20.980  -9.319  0.00  0.00     0.125 C 
BRANCH  32  33
ATOM     33  C19 NON d   1     -40.507  20.205  -8.416  0.00  0.00     0.046 C 
BRANCH  33  34
ATOM     34  C20 NON d   1     -39.897  18.977  -7.739  0.00  0.00     0.168 C 
BRANCH  34  35
ATOM     35  O4  NON d   1     -39.211  19.297  -6.523  0.00  0.00    -0.396 OA
ATOM     36  C21 NON d   1     -38.028  20.067  -6.682  0.00  0.00     0.201 C 
ENDBRANCH  34  35
ENDBRANCH  33  34
ENDBRANCH  32  33
ENDBRANCH  30  32
ENDBRANCH  26  28
ENDBRANCH   3  22
TORSDOF 12
ENDMDL
MODEL 9
REMARK VINA RESULT:   -11.649      5.559      7.989
REMARK INTER + INTRA:         -17.437
REMARK INTER:                 -15.229
REMARK INTRA:                  -2.208
REMARK CONF_INDEPENDENT:        3.580
REMARK UNBOUND:                -2.208
REMARK  12 active torsions:
REMARK  status: ('A' for Active; 'I' for Inactive)
REMARK    1  A    between atoms: C3_3  and  C2_2 
REMARK    2  A    between atoms: C3_3  and  N1_5 
REMARK       I    between atoms: N1_5  and  C5_6 
REMARK    3  A    between atoms: C5_6  and  C6_8 
REMARK    4  A    between atoms: C9_11  and  N2_12 
REMARK    5  A    between atoms: N2_12  and  C10_13 
REMARK    6  A    between atoms: C10_13  and  C11_14 
REMARK       I    between atoms: C11_14  and  N3_16 
REMARK    7  A    between atoms: N3_16  and  C12_17 
REMARK    8  A    between atoms: C16_21  and  C17_22 
REMARK       I    between atoms: C17_22  and  N4_24 
REMARK    9  A    between atoms: N4_24  and  C18_25 
REMARK   10  A    between atoms: C18_25  and  C19_26 
REMARK   11  A    between atoms: C19_26  and  C20_27 
REMARK   12  A    between atoms: C20_27  and  O4_28 
ROOT
ATOM      1  C11 NON d   1     -40.108  20.256  -6.628  0.00  0.00     0.239 C 
ATOM      2  O2  NON d   1     -40.484  19.309  -7.323  0.00  0.00    -0.271 OA
ATOM      3  N3  NON d   1     -39.514  21.428  -7.116  0.00  0.00    -0.326 N 
ATOM      4  H16 NON d   1     -39.323  22.165  -6.449  0.00  0.00     0.169 HD
ENDROOT
BRANCH   1   5
ATOM      5  C10 NON d   1     -40.320  20.218  -5.077  0.00  0.00     0.223 C 
BRANCH   5   6
ATOM      6  N2  NON d   1     -40.842  18.899  -4.672  0.00  0.00    -0.381 N 
ATOM      7  H13 NON d   1     -40.143  18.166  -4.821  0.00  0.00     0.160 HD
BRANCH   6   8
ATOM      8  C9  NON d   1     -42.157  18.460  -4.759  0.00  0.00     0.028 A 
ATOM      9  C8  NON d   1     -42.502  17.254  -4.130  0.00  0.00     0.030 A 
ATOM     10  C7  NON d   1     -43.824  16.766  -4.112  0.00  0.00     0.019 A 
ATOM     11  C6  NON d   1     -44.880  17.481  -4.698  0.00  0.00     0.032 A 
ATOM     12  C24 NON d   1     -44.561  18.700  -5.305  0.00  0.00     0.019 A 
ATOM     13  C23 NON d   1     -43.218  19.181  -5.323  0.00  0.00     0.030 A 
BRANCH  11  14
ATOM     14  C5  NON d   1     -46.236  16.813  -4.732  0.00  0.00     0.251 C 
ATOM     15  N1  NON d   1     -46.810  16.265  -3.573  0.00  0.00    -0.353 N 
ATOM     16  H10 NON d   1     -46.309  16.368  -2.702  0.00  0.00     0.163 HD
ATOM     17  O1  NON d   1     -46.832  16.805  -5.810  0.00  0.00    -0.268 OA
BRANCH  15  18
ATOM     18  C3  NON d   1     -48.285  16.072  -3.509  0.00  0.00     0.080 C 
ATOM     19  C4  NON d   1     -48.899  15.005  -4.435  0.00  0.00     0.032 C 
BRANCH  18  20
ATOM     20  C2  NON d   1     -49.010  16.476  -2.213  0.00  0.00     0.020 C 
ATOM     21  C1  NON d   1     -50.549  16.506  -2.169  0.00  0.00     0.007 C 
ENDBRANCH  18  20
ENDBRANCH  15  18
ENDBRANCH  11  14
ENDBRANCH   6   8
ENDBRANCH   5   6
ENDBRANCH   1   5
BRANCH   3  22
ATOM     22  C12 NON d   1     -39.175  21.720  -8.476  0.00  0.00     0.035 A 
ATOM     23  C13 NON d   1     -38.231  20.992  -9.200  0.00  0.00     0.029 A 
ATOM     24  C14 NON d   1     -37.943  21.311 -10.527  0.00  0.00     0.003 A 
ATOM     25  C15 NON d   1     -38.592  22.367 -11.172  0.00  0.00     0.017 A 
ATOM     26  C16 NON d   1     -39.533  23.142 -10.500  0.00  0.00     0.034 A 
ATOM     27  C22 NON d   1     -39.813  22.797  -9.138  0.00  0.00     0.046 A 
BRANCH  26  28
ATOM     28  C17 NON d   1     -40.276  24.307 -11.107  0.00  0.00     0.251 C 
ATOM     29  O3  NON d   1     -40.914  24.106 -12.146  0.00  0.00    -0.268 OA
ATOM     30  N4  NON d   1     -40.315  25.599 -10.605  0.00  0.00    -0.357 N 
ATOM     31  H20 NON d   1     -40.879  26.198 -11.206  0.00  0.00     0.162 HD
BRANCH  30  32
ATOM     32  C18 NON d   1     -39.732  26.213  -9.424  0.00  0.00     0.125 C 
BRANCH  32  33
ATOM     33  C19 NON d   1     -40.322  25.783  -8.072  0.00  0.00     0.046 C 
BRANCH  33  34
ATOM     34  C20 NON d   1     -39.290  25.634  -6.953  0.00  0.00     0.168 C 
BRANCH  34  35
ATOM     35  O4  NON d   1     -39.250  24.309  -6.408  0.00  0.00    -0.396 OA
ATOM     36  C21 NON d   1     -38.887  24.231  -5.037  0.00  0.00     0.201 C 
ENDBRANCH  34  35
ENDBRANCH  33  34
ENDBRANCH  32  33
ENDBRANCH  30  32
ENDBRANCH  26  28
ENDBRANCH   3  22
TORSDOF 12
ENDMDL
