MODEL 1
REMARK VINA RESULT:   -12.236      0.000      0.000
REMARK INTER + INTRA:         -15.303
REMARK INTER:                 -14.324
REMARK INTRA:                  -0.979
REMARK CONF_INDEPENDENT:        2.088
REMARK UNBOUND:                -0.979
REMARK  7 active torsions:
REMARK  status: ('A' for Active; 'I' for Inactive)
REMARK    1  A    between atoms: C3_3  and  C2_2 
REMARK    2  A    between atoms: C3_3  and  C5_5 
REMARK       I    between atoms: C5_5  and  N1_7 
REMARK    3  A    between atoms: N1_7  and  C6_8 
REMARK    4  A    between atoms: C10_12  and  C11_13 
REMARK    5  A    between atoms: C11_13  and  N2_14 
REMARK       I    between atoms: N2_14  and  C12_15 
REMARK    6  A    between atoms: C12_15  and  C13_17 
REMARK    7  A    between atoms: C16_20  and  C17_21 
ROOT
ATOM      1  N2  NON d   1     -40.389  18.292  -2.319  0.00  0.00    -0.352 N 
ATOM      2  C12 NON d   1     -39.812  19.414  -2.858  0.00  0.00     0.257 C 
ATOM      3  O2  NON d   1     -39.297  20.170  -2.032  0.00  0.00    -0.267 OA
ATOM      4  H16 NON d   1     -40.319  18.282  -1.309  0.00  0.00     0.163 HD
ENDROOT
BRANCH   1   5
ATOM      5  C11 NON d   1     -41.124  17.255  -2.971  0.00  0.00     0.161 C 
BRANCH   5   6
ATOM      6  C10 NON d   1     -42.489  17.498  -3.561  0.00  0.00    -0.038 A 
ATOM      7  C9  NON d   1     -42.461  18.430  -4.621  0.00  0.00     0.009 A 
ATOM      8  C8  NON d   1     -43.608  18.772  -5.306  0.00  0.00     0.003 A 
ATOM      9  C7  NON d   1     -44.816  18.194  -4.936  0.00  0.00     0.029 A 
ATOM     10  C6  NON d   1     -44.914  17.295  -3.859  0.00  0.00     0.035 A 
ATOM     11  C19 NON d   1     -43.725  16.929  -3.186  0.00  0.00     0.038 A 
BRANCH  10  12
ATOM     12  N1  NON d   1     -46.183  16.760  -3.448  0.00  0.00    -0.327 N 
ATOM     13  C5  NON d   1     -47.146  16.313  -4.337  0.00  0.00     0.226 C 
ATOM     14  O1  NON d   1     -47.026  16.444  -5.561  0.00  0.00    -0.273 OA
ATOM     15  H10 NON d   1     -46.442  16.889  -2.479  0.00  0.00     0.169 HD
BRANCH  13  16
ATOM     16  C3  NON d   1     -48.509  15.782  -3.857  0.00  0.00     0.074 C 
ATOM     17  C4  NON d   1     -49.264  14.732  -4.694  0.00  0.00     0.020 C 
BRANCH  16  18
ATOM     18  C2  NON d   1     -49.118  16.301  -2.542  0.00  0.00     0.009 C 
ATOM     19  C1  NON d   1     -50.640  16.504  -2.425  0.00  0.00     0.006 C 
ENDBRANCH  16  18
ENDBRANCH  13  16
ENDBRANCH  10  12
ENDBRANCH   5   6
ENDBRANCH   1   5
BRANCH   2  20
ATOM     20  C13 NON d   1     -39.787  19.752  -4.342  0.00  0.00     0.100 A 
ATOM     21  C14 NON d   1     -39.172  19.049  -5.314  0.00  0.00     0.025 A 
ATOM     22  C15 NON d   1     -39.208  19.391  -6.718  0.00  0.00     0.035 A 
ATOM     23  C16 NON d   1     -39.880  20.468  -7.143  0.00  0.00     0.119 A 
ATOM     24  N3  NON d   1     -40.531  21.229  -6.192  0.00  0.00    -0.319 N 
ATOM     25  C18 NON d   1     -40.546  20.976  -4.836  0.00  0.00     0.261 A 
ATOM     26  H19 NON d   1     -41.068  22.044  -6.478  0.00  0.00     0.169 HD
ATOM     27  O3  NON d   1     -41.164  21.748  -4.111  0.00  0.00    -0.267 OA
BRANCH  23  28
ATOM     28  C17 NON d   1     -39.977  20.855  -8.602  0.00  0.00     0.432 C 
ATOM     29  F1  NON d   1     -40.171  22.189  -8.751  0.00  0.00    -0.165 F 
ATOM     30  F2  NON d   1     -41.012  20.232  -9.220  0.00  0.00    -0.165 F 
ATOM     31  F3  NON d   1     -38.853  20.540  -9.296  0.00  0.00    -0.165 F 
ENDBRANCH  23  28
ENDBRANCH   2  20
TORSDOF 7
ENDMDL
MODEL 2
REMARK VINA RESULT:   -12.133      2.657      3.514
REMARK INTER + INTRA:         -14.746
REMARK INTER:                 -14.221
REMARK INTRA:                  -0.524
REMARK CONF_INDEPENDENT:        2.088
REMARK UNBOUND:                -0.524
REMARK  7 active torsions:
REMARK  status: ('A' for Active; 'I' for Inactive)
REMARK    1  A    between atoms: C3_3  and  C2_2 
REMARK    2  A    between atoms: C3_3  and  C5_5 
REMARK       I    between atoms: C5_5  and  N1_7 
REMARK    3  A    between atoms: N1_7  and  C6_8 
REMARK    4  A    between atoms: C10_12  and  C11_13 
REMARK    5  A    between atoms: C11_13  and  N2_14 
REMARK       I    between atoms: N2_14  and  C12_15 
REMARK    6  A    between atoms: C12_15  and  C13_17 
REMARK    7  A    between atoms: C16_20  and  C17_21 
ROOT
ATOM      1  N2  NON d   1     -40.301  18.320  -7.179  0.00  0.00    -0.352 N 
ATOM      2  C12 NON d   1     -39.326  18.793  -8.021  0.00  0.00     0.257 C 
ATOM      3  O2  NON d   1     -38.518  17.940  -8.394  0.00  0.00    -0.267 OA
ATOM      4  H16 NON d   1     -40.179  17.336  -6.978  0.00  0.00     0.163 HD
ENDROOT
BRANCH   1   5
ATOM      5  C11 NON d   1     -41.340  19.038  -6.513  0.00  0.00     0.161 C 
BRANCH   5   6
ATOM      6  C10 NON d   1     -41.987  18.518  -5.256  0.00  0.00    -0.038 A 
ATOM      7  C9  NON d   1     -41.083  18.441  -4.175  0.00  0.00     0.009 A 
ATOM      8  C8  NON d   1     -41.489  18.008  -2.929  0.00  0.00     0.003 A 
ATOM      9  C7  NON d   1     -42.812  17.630  -2.742  0.00  0.00     0.029 A 
ATOM     10  C6  NON d   1     -43.747  17.640  -3.792  0.00  0.00     0.035 A 
ATOM     11  C19 NON d   1     -43.326  18.117  -5.055  0.00  0.00     0.038 A 
BRANCH  10  12
ATOM     12  N1  NON d   1     -45.094  17.180  -3.594  0.00  0.00    -0.327 N 
ATOM     13  C5  NON d   1     -45.905  16.731  -4.623  0.00  0.00     0.226 C 
ATOM     14  O1  NON d   1     -45.565  16.798  -5.810  0.00  0.00    -0.273 OA
ATOM     15  H10 NON d   1     -45.514  17.366  -2.693  0.00  0.00     0.169 HD
BRANCH  13  16
ATOM     16  C3  NON d   1     -47.357  16.282  -4.374  0.00  0.00     0.074 C 
ATOM     17  C4  NON d   1     -48.089  15.427  -5.426  0.00  0.00     0.020 C 
BRANCH  16  18
ATOM     18  C2  NON d   1     -48.077  16.687  -3.075  0.00  0.00     0.009 C 
ATOM     19  C1  NON d   1     -49.456  16.089  -2.740  0.00  0.00     0.006 C 
ENDBRANCH  16  18
ENDBRANCH  13  16
ENDBRANCH  10  12
ENDBRANCH   5   6
ENDBRANCH   1   5
BRANCH   2  20
ATOM     20  C13 NON d   1     -39.199  20.238  -8.482  0.00  0.00     0.100 A 
ATOM     21  C14 NON d   1     -38.053  20.933  -8.629  0.00  0.00     0.025 A 
ATOM     22  C15 NON d   1     -37.980  22.296  -9.106  0.00  0.00     0.035 A 
ATOM     23  C16 NON d   1     -39.091  22.965  -9.438  0.00  0.00     0.119 A 
ATOM     24  N3  NON d   1     -40.296  22.304  -9.308  0.00  0.00    -0.319 N 
ATOM     25  C18 NON d   1     -40.455  21.009  -8.859  0.00  0.00     0.261 A 
ATOM     26  H19 NON d   1     -41.160  22.773  -9.569  0.00  0.00     0.169 HD
ATOM     27  O3  NON d   1     -41.593  20.558  -8.790  0.00  0.00    -0.267 OA
BRANCH  23  28
ATOM     28  C17 NON d   1     -39.071  24.380  -9.971  0.00  0.00     0.432 C 
ATOM     29  F1  NON d   1     -37.812  24.881 -10.006  0.00  0.00    -0.165 F 
ATOM     30  F2  NON d   1     -39.810  25.218  -9.201  0.00  0.00    -0.165 F 
ATOM     31  F3  NON d   1     -39.564  24.464 -11.234  0.00  0.00    -0.165 F 
ENDBRANCH  23  28
ENDBRANCH   2  20
TORSDOF 7
ENDMDL
MODEL 3
REMARK VINA RESULT:   -11.958      0.953      1.490
REMARK INTER + INTRA:         -14.874
REMARK INTER:                 -14.046
REMARK INTRA:                  -0.828
REMARK CONF_INDEPENDENT:        2.088
REMARK UNBOUND:                -0.828
REMARK  7 active torsions:
REMARK  status: ('A' for Active; 'I' for Inactive)
REMARK    1  A    between atoms: C3_3  and  C2_2 
REMARK    2  A    between atoms: C3_3  and  C5_5 
REMARK       I    between atoms: C5_5  and  N1_7 
REMARK    3  A    between atoms: N1_7  and  C6_8 
REMARK    4  A    between atoms: C10_12  and  C11_13 
REMARK    5  A    between atoms: C11_13  and  N2_14 
REMARK       I    between atoms: N2_14  and  C12_15 
REMARK    6  A    between atoms: C12_15  and  C13_17 
REMARK    7  A    between atoms: C16_20  and  C17_21 
ROOT
ATOM      1  N2  NON d   1     -40.198  18.787  -2.237  0.00  0.00    -0.352 N 
ATOM      2  C12 NON d   1     -39.741  19.967  -2.769  0.00  0.00     0.257 C 
ATOM      3  O2  NON d   1     -39.301  20.764  -1.937  0.00  0.00    -0.267 OA
ATOM      4  H16 NON d   1     -40.121  18.775  -1.229  0.00  0.00     0.163 HD
ENDROOT
BRANCH   1   5
ATOM      5  C11 NON d   1     -40.827  17.688  -2.897  0.00  0.00     0.161 C 
BRANCH   5   6
ATOM      6  C10 NON d   1     -42.178  17.820  -3.550  0.00  0.00    -0.038 A 
ATOM      7  C9  NON d   1     -42.173  18.738  -4.621  0.00  0.00     0.009 A 
ATOM      8  C8  NON d   1     -43.311  18.984  -5.361  0.00  0.00     0.003 A 
ATOM      9  C7  NON d   1     -44.487  18.320  -5.036  0.00  0.00     0.029 A 
ATOM     10  C6  NON d   1     -44.565  17.430  -3.951  0.00  0.00     0.035 A 
ATOM     11  C19 NON d   1     -43.384  17.163  -3.221  0.00  0.00     0.038 A 
BRANCH  10  12
ATOM     12  N1  NON d   1     -45.808  16.805  -3.588  0.00  0.00    -0.327 N 
ATOM     13  C5  NON d   1     -46.804  16.502  -4.502  0.00  0.00     0.226 C 
ATOM     14  O1  NON d   1     -46.741  16.848  -5.688  0.00  0.00    -0.273 OA
ATOM     15  H10 NON d   1     -46.025  16.756  -2.602  0.00  0.00     0.169 HD
BRANCH  13  16
ATOM     16  C3  NON d   1     -48.138  15.866  -4.067  0.00  0.00     0.074 C 
ATOM     17  C4  NON d   1     -48.940  15.005  -5.059  0.00  0.00     0.020 C 
BRANCH  16  18
ATOM     18  C2  NON d   1     -48.668  16.093  -2.640  0.00  0.00     0.009 C 
ATOM     19  C1  NON d   1     -50.136  16.505  -2.420  0.00  0.00     0.006 C 
ENDBRANCH  16  18
ENDBRANCH  13  16
ENDBRANCH  10  12
ENDBRANCH   5   6
ENDBRANCH   1   5
BRANCH   2  20
ATOM     20  C13 NON d   1     -39.760  20.321  -4.249  0.00  0.00     0.100 A 
ATOM     21  C14 NON d   1     -40.341  21.402  -4.807  0.00  0.00     0.025 A 
ATOM     22  C15 NON d   1     -40.301  21.715  -6.218  0.00  0.00     0.035 A 
ATOM     23  C16 NON d   1     -39.659  20.915  -7.078  0.00  0.00     0.119 A 
ATOM     24  N3  NON d   1     -39.044  19.791  -6.565  0.00  0.00    -0.319 N 
ATOM     25  C18 NON d   1     -39.036  19.417  -5.236  0.00  0.00     0.261 A 
ATOM     26  H19 NON d   1     -38.530  19.169  -7.184  0.00  0.00     0.169 HD
ATOM     27  O3  NON d   1     -38.452  18.383  -4.931  0.00  0.00    -0.267 OA
BRANCH  23  28
ATOM     28  C17 NON d   1     -39.559  21.210  -8.558  0.00  0.00     0.432 C 
ATOM     29  F1  NON d   1     -40.562  20.619  -9.252  0.00  0.00    -0.165 F 
ATOM     30  F2  NON d   1     -38.392  20.756  -9.083  0.00  0.00    -0.165 F 
ATOM     31  F3  NON d   1     -39.623  22.540  -8.826  0.00  0.00    -0.165 F 
ENDBRANCH  23  28
ENDBRANCH   2  20
TORSDOF 7
ENDMDL
MODEL 4
REMARK VINA RESULT:   -11.717      4.782      9.386
REMARK INTER + INTRA:         -14.384
REMARK INTER:                 -13.805
REMARK INTRA:                  -0.579
REMARK CONF_INDEPENDENT:        2.088
REMARK UNBOUND:                -0.579
REMARK  7 active torsions:
REMARK  status: ('A' for Active; 'I' for Inactive)
REMARK    1  A    between atoms: C3_3  and  C2_2 
REMARK    2  A    between atoms: C3_3  and  C5_5 
REMARK       I    between atoms: C5_5  and  N1_7 
REMARK    3  A    between atoms: N1_7  and  C6_8 
REMARK    4  A    between atoms: C10_12  and  C11_13 
REMARK    5  A    between atoms: C11_13  and  N2_14 
REMARK       I    between atoms: N2_14  and  C12_15 
REMARK    6  A    between atoms: C12_15  and  C13_17 
REMARK    7  A    between atoms: C16_20  and  C17_21 
ROOT
ATOM      1  N2  NON d   1     -44.271  16.838  -4.732  0.00  0.00    -0.352 N 
ATOM      2  C12 NON d   1     -45.493  16.332  -5.096  0.00  0.00     0.257 C 
ATOM      3  O2  NON d   1     -45.503  15.755  -6.185  0.00  0.00    -0.267 OA
ATOM      4  H16 NON d   1     -43.570  16.674  -5.443  0.00  0.00     0.163 HD
ENDROOT
BRANCH   1   5
ATOM      5  C11 NON d   1     -43.922  17.613  -3.584  0.00  0.00     0.161 C 
BRANCH   5   6
ATOM      6  C10 NON d   1     -42.616  18.357  -3.493  0.00  0.00    -0.038 A 
ATOM      7  C9  NON d   1     -41.967  18.161  -2.255  0.00  0.00     0.009 A 
ATOM      8  C8  NON d   1     -40.746  18.742  -1.985  0.00  0.00     0.003 A 
ATOM      9  C7  NON d   1     -40.150  19.545  -2.948  0.00  0.00     0.029 A 
ATOM     10  C6  NON d   1     -40.769  19.815  -4.182  0.00  0.00     0.035 A 
ATOM     11  C19 NON d   1     -42.006  19.188  -4.458  0.00  0.00     0.038 A 
BRANCH  10  12
ATOM     12  N1  NON d   1     -40.168  20.704  -5.138  0.00  0.00    -0.327 N 
ATOM     13  C5  NON d   1     -40.363  20.598  -6.505  0.00  0.00     0.226 C 
ATOM     14  O1  NON d   1     -40.984  19.657  -7.012  0.00  0.00    -0.273 OA
ATOM     15  H10 NON d   1     -39.435  21.313  -4.800  0.00  0.00     0.169 HD
BRANCH  13  16
ATOM     16  C3  NON d   1     -39.670  21.548  -7.499  0.00  0.00     0.074 C 
ATOM     17  C4  NON d   1     -39.566  23.052  -7.183  0.00  0.00     0.020 C 
BRANCH  16  18
ATOM     18  C2  NON d   1     -39.081  20.995  -8.810  0.00  0.00     0.009 C 
ATOM     19  C1  NON d   1     -38.095  19.812  -8.772  0.00  0.00     0.006 C 
ENDBRANCH  16  18
ENDBRANCH  13  16
ENDBRANCH  10  12
ENDBRANCH   5   6
ENDBRANCH   1   5
BRANCH   2  20
ATOM     20  C13 NON d   1     -46.766  16.452  -4.268  0.00  0.00     0.100 A 
ATOM     21  C14 NON d   1     -46.876  17.004  -3.043  0.00  0.00     0.025 A 
ATOM     22  C15 NON d   1     -48.116  17.128  -2.311  0.00  0.00     0.035 A 
ATOM     23  C16 NON d   1     -49.265  16.681  -2.832  0.00  0.00     0.119 A 
ATOM     24  N3  NON d   1     -49.216  16.105  -4.085  0.00  0.00    -0.319 N 
ATOM     25  C18 NON d   1     -48.078  15.945  -4.850  0.00  0.00     0.261 A 
ATOM     26  H19 NON d   1     -50.071  15.772  -4.523  0.00  0.00     0.169 HD
ATOM     27  O3  NON d   1     -48.189  15.406  -5.945  0.00  0.00    -0.267 OA
BRANCH  23  28
ATOM     28  C17 NON d   1     -50.596  16.812  -2.124  0.00  0.00     0.432 C 
ATOM     29  F1  NON d   1     -51.245  15.624  -2.060  0.00  0.00    -0.165 F 
ATOM     30  F2  NON d   1     -51.421  17.681  -2.762  0.00  0.00    -0.165 F 
ATOM     31  F3  NON d   1     -50.461  17.258  -0.848  0.00  0.00    -0.165 F 
ENDBRANCH  23  28
ENDBRANCH   2  20
TORSDOF 7
ENDMDL
MODEL 5
REMARK VINA RESULT:   -11.467      3.451      4.222
REMARK INTER + INTRA:         -14.574
REMARK INTER:                 -13.555
REMARK INTRA:                  -1.020
REMARK CONF_INDEPENDENT:        2.088
REMARK UNBOUND:                -1.020
REMARK  7 active torsions:
REMARK  status: ('A' for Active; 'I' for Inactive)
REMARK    1  A    between atoms: C3_3  and  C2_2 
REMARK    2  A    between atoms: C3_3  and  C5_5 
REMARK       I    between atoms: C5_5  and  N1_7 
REMARK    3  A    between atoms: N1_7  and  C6_8 
REMARK    4  A    between atoms: C10_12  and  C11_13 
REMARK    5  A    between atoms: C11_13  and  N2_14 
REMARK       I    between atoms: N2_14  and  C12_15 
REMARK    6  A    between atoms: C12_15  and  C13_17 
REMARK    7  A    between atoms: C16_20  and  C17_21 
ROOT
ATOM      1  N2  NON d   1     -39.528  18.146  -3.575  0.00  0.00    -0.352 N 
ATOM      2  C12 NON d   1     -38.914  19.365  -3.441  0.00  0.00     0.257 C 
ATOM      3  O2  NON d   1     -37.842  19.464  -4.042  0.00  0.00    -0.267 OA
ATOM      4  H16 NON d   1     -38.977  17.507  -4.134  0.00  0.00     0.163 HD
ENDROOT
BRANCH   1   5
ATOM      5  C11 NON d   1     -40.730  17.672  -2.966  0.00  0.00     0.161 C 
BRANCH   5   6
ATOM      6  C10 NON d   1     -42.079  17.874  -3.605  0.00  0.00    -0.038 A 
ATOM      7  C9  NON d   1     -42.044  18.816  -4.655  0.00  0.00     0.009 A 
ATOM      8  C8  NON d   1     -43.176  19.125  -5.380  0.00  0.00     0.003 A 
ATOM      9  C7  NON d   1     -44.376  18.503  -5.060  0.00  0.00     0.029 A 
ATOM     10  C6  NON d   1     -44.483  17.591  -3.995  0.00  0.00     0.035 A 
ATOM     11  C19 NON d   1     -43.308  17.260  -3.281  0.00  0.00     0.038 A 
BRANCH  10  12
ATOM     12  N1  NON d   1     -45.748  17.010  -3.636  0.00  0.00    -0.327 N 
ATOM     13  C5  NON d   1     -46.681  16.583  -4.566  0.00  0.00     0.226 C 
ATOM     14  O1  NON d   1     -46.540  16.773  -5.780  0.00  0.00    -0.273 OA
ATOM     15  H10 NON d   1     -46.029  17.087  -2.669  0.00  0.00     0.169 HD
BRANCH  13  16
ATOM     16  C3  NON d   1     -48.042  16.000  -4.140  0.00  0.00     0.074 C 
ATOM     17  C4  NON d   1     -48.775  15.006  -5.060  0.00  0.00     0.020 C 
BRANCH  16  18
ATOM     18  C2  NON d   1     -48.668  16.410  -2.795  0.00  0.00     0.009 C 
ATOM     19  C1  NON d   1     -50.067  15.895  -2.408  0.00  0.00     0.006 C 
ENDBRANCH  16  18
ENDBRANCH  13  16
ENDBRANCH  10  12
ENDBRANCH   5   6
ENDBRANCH   1   5
BRANCH   2  20
ATOM     20  C13 NON d   1     -39.458  20.530  -2.626  0.00  0.00     0.100 A 
ATOM     21  C14 NON d   1     -39.271  20.742  -1.308  0.00  0.00     0.025 A 
ATOM     22  C15 NON d   1     -39.779  21.885  -0.584  0.00  0.00     0.035 A 
ATOM     23  C16 NON d   1     -40.491  22.830  -1.210  0.00  0.00     0.119 A 
ATOM     24  N3  NON d   1     -40.716  22.668  -2.562  0.00  0.00    -0.319 N 
ATOM     25  C18 NON d   1     -40.271  21.609  -3.327  0.00  0.00     0.261 A 
ATOM     26  H19 NON d   1     -41.236  23.374  -3.077  0.00  0.00     0.169 HD
ATOM     27  O3  NON d   1     -40.557  21.598  -4.519  0.00  0.00    -0.267 OA
BRANCH  23  28
ATOM     28  C17 NON d   1     -41.020  24.062  -0.509  0.00  0.00     0.432 C 
ATOM     29  F1  NON d   1     -40.139  24.529   0.409  0.00  0.00    -0.165 F 
ATOM     30  F2  NON d   1     -42.180  23.807   0.149  0.00  0.00    -0.165 F 
ATOM     31  F3  NON d   1     -41.269  25.081  -1.372  0.00  0.00    -0.165 F 
ENDBRANCH  23  28
ENDBRANCH   2  20
TORSDOF 7
ENDMDL
MODEL 6
REMARK VINA RESULT:   -11.435      4.814      9.383
REMARK INTER + INTRA:         -14.160
REMARK INTER:                 -13.524
REMARK INTRA:                  -0.636
REMARK CONF_INDEPENDENT:        2.088
REMARK UNBOUND:                -0.636
REMARK  7 active torsions:
REMARK  status: ('A' for Active; 'I' for Inactive)
REMARK    1  A    between atoms: C3_3  and  C2_2 
REMARK    2  A    between atoms: C3_3  and  C5_5 
REMARK       I    between atoms: C5_5  and  N1_7 
REMARK    3  A    between atoms: N1_7  and  C6_8 
REMARK    4  A    between atoms: C10_12  and  C11_13 
REMARK    5  A    between atoms: C11_13  and  N2_14 
REMARK       I    between atoms: N2_14  and  C12_15 
REMARK    6  A    between atoms: C12_15  and  C13_17 
REMARK    7  A    between atoms: C16_20  and  C17_21 
ROOT
ATOM      1  N2  NON d   1     -44.230  16.768  -4.708  0.00  0.00    -0.352 N 
ATOM      2  C12 NON d   1     -45.466  16.305  -5.082  0.00  0.00     0.257 C 
ATOM      3  O2  NON d   1     -45.492  15.755  -6.185  0.00  0.00    -0.267 OA
ATOM      4  H16 NON d   1     -43.534  16.602  -5.423  0.00  0.00     0.163 HD
ENDROOT
BRANCH   1   5
ATOM      5  C11 NON d   1     -43.860  17.506  -3.542  0.00  0.00     0.161 C 
BRANCH   5   6
ATOM      6  C10 NON d   1     -42.594  18.321  -3.484  0.00  0.00    -0.038 A 
ATOM      7  C9  NON d   1     -42.110  18.658  -4.766  0.00  0.00     0.009 A 
ATOM      8  C8  NON d   1     -40.972  19.421  -4.925  0.00  0.00     0.003 A 
ATOM      9  C7  NON d   1     -40.283  19.853  -3.799  0.00  0.00     0.029 A 
ATOM     10  C6  NON d   1     -40.691  19.510  -2.498  0.00  0.00     0.035 A 
ATOM     11  C19 NON d   1     -41.877  18.755  -2.348  0.00  0.00     0.038 A 
BRANCH  10  12
ATOM     12  N1  NON d   1     -39.927  19.910  -1.348  0.00  0.00    -0.327 N 
ATOM     13  C5  NON d   1     -39.927  21.199  -0.844  0.00  0.00     0.226 C 
ATOM     14  O1  NON d   1     -40.504  22.132  -1.415  0.00  0.00    -0.273 OA
ATOM     15  H10 NON d   1     -39.228  19.260  -1.014  0.00  0.00     0.169 HD
BRANCH  13  16
ATOM     16  C3  NON d   1     -39.064  21.597   0.369  0.00  0.00     0.074 C 
ATOM     17  C4  NON d   1     -37.655  21.000   0.539  0.00  0.00     0.020 C 
BRANCH  16  18
ATOM     18  C2  NON d   1     -39.611  22.590   1.410  0.00  0.00     0.009 C 
ATOM     19  C1  NON d   1     -41.084  23.037   1.349  0.00  0.00     0.006 C 
ENDBRANCH  16  18
ENDBRANCH  13  16
ENDBRANCH  10  12
ENDBRANCH   5   6
ENDBRANCH   1   5
BRANCH   2  20
ATOM     20  C13 NON d   1     -46.735  16.440  -4.251  0.00  0.00     0.100 A 
ATOM     21  C14 NON d   1     -46.829  16.964  -3.013  0.00  0.00     0.025 A 
ATOM     22  C15 NON d   1     -48.065  17.105  -2.276  0.00  0.00     0.035 A 
ATOM     23  C16 NON d   1     -49.227  16.704  -2.807  0.00  0.00     0.119 A 
ATOM     24  N3  NON d   1     -49.193  16.157  -4.075  0.00  0.00    -0.319 N 
ATOM     25  C18 NON d   1     -48.060  15.985  -4.844  0.00  0.00     0.261 A 
ATOM     26  H19 NON d   1     -50.058  15.859  -4.520  0.00  0.00     0.169 HD
ATOM     27  O3  NON d   1     -48.187  15.477  -5.952  0.00  0.00    -0.267 OA
BRANCH  23  28
ATOM     28  C17 NON d   1     -50.553  16.855  -2.095  0.00  0.00     0.432 C 
ATOM     29  F1  NON d   1     -51.342  17.775  -2.702  0.00  0.00    -0.165 F 
ATOM     30  F2  NON d   1     -50.390  17.258  -0.810  0.00  0.00    -0.165 F 
ATOM     31  F3  NON d   1     -51.256  15.693  -2.060  0.00  0.00    -0.165 F 
ENDBRANCH  23  28
ENDBRANCH   2  20
TORSDOF 7
ENDMDL
MODEL 7
REMARK VINA RESULT:   -11.432      3.390      4.495
REMARK INTER + INTRA:         -14.624
REMARK INTER:                 -13.521
REMARK INTRA:                  -1.104
REMARK CONF_INDEPENDENT:        2.088
REMARK UNBOUND:                -1.104
REMARK  7 active torsions:
REMARK  status: ('A' for Active; 'I' for Inactive)
REMARK    1  A    between atoms: C3_3  and  C2_2 
REMARK    2  A    between atoms: C3_3  and  C5_5 
REMARK       I    between atoms: C5_5  and  N1_7 
REMARK    3  A    between atoms: N1_7  and  C6_8 
REMARK    4  A    between atoms: C10_12  and  C11_13 
REMARK    5  A    between atoms: C11_13  and  N2_14 
REMARK       I    between atoms: N2_14  and  C12_15 
REMARK    6  A    between atoms: C12_15  and  C13_17 
REMARK    7  A    between atoms: C16_20  and  C17_21 
ROOT
ATOM      1  N2  NON d   1     -40.670  19.928  -6.688  0.00  0.00    -0.352 N 
ATOM      2  C12 NON d   1     -39.604  20.276  -5.897  0.00  0.00     0.257 C 
ATOM      3  O2  NON d   1     -38.505  20.163  -6.443  0.00  0.00    -0.267 OA
ATOM      4  H16 NON d   1     -40.371  19.605  -7.600  0.00  0.00     0.163 HD
ENDROOT
BRANCH   1   5
ATOM      5  C11 NON d   1     -42.057  19.873  -6.356  0.00  0.00     0.161 C 
BRANCH   5   6
ATOM      6  C10 NON d   1     -42.598  18.881  -5.359  0.00  0.00    -0.038 A 
ATOM      7  C9  NON d   1     -41.575  18.193  -4.672  0.00  0.00     0.009 A 
ATOM      8  C8  NON d   1     -41.866  17.257  -3.702  0.00  0.00     0.003 A 
ATOM      9  C7  NON d   1     -43.194  16.979  -3.406  0.00  0.00     0.029 A 
ATOM     10  C6  NON d   1     -44.256  17.597  -4.089  0.00  0.00     0.035 A 
ATOM     11  C19 NON d   1     -43.944  18.578  -5.059  0.00  0.00     0.038 A 
BRANCH  10  12
ATOM     12  N1  NON d   1     -45.623  17.246  -3.816  0.00  0.00    -0.327 N 
ATOM     13  C5  NON d   1     -46.402  16.491  -4.676  0.00  0.00     0.226 C 
ATOM     14  O1  NON d   1     -46.011  16.155  -5.800  0.00  0.00    -0.273 OA
ATOM     15  H10 NON d   1     -46.074  17.726  -3.049  0.00  0.00     0.169 HD
BRANCH  13  16
ATOM     16  C3  NON d   1     -47.876  16.168  -4.363  0.00  0.00     0.074 C 
ATOM     17  C4  NON d   1     -48.579  15.005  -5.087  0.00  0.00     0.020 C 
BRANCH  16  18
ATOM     18  C2  NON d   1     -48.645  17.008  -3.327  0.00  0.00     0.009 C 
ATOM     19  C1  NON d   1     -48.307  16.883  -1.830  0.00  0.00     0.006 C 
ENDBRANCH  16  18
ENDBRANCH  13  16
ENDBRANCH  10  12
ENDBRANCH   5   6
ENDBRANCH   1   5
BRANCH   2  20
ATOM     20  C13 NON d   1     -39.710  20.758  -4.456  0.00  0.00     0.100 A 
ATOM     21  C14 NON d   1     -40.198  21.945  -4.043  0.00  0.00     0.025 A 
ATOM     22  C15 NON d   1     -40.313  22.344  -2.659  0.00  0.00     0.035 A 
ATOM     23  C16 NON d   1     -39.923  21.523  -1.676  0.00  0.00     0.119 A 
ATOM     24  N3  NON d   1     -39.413  20.292  -2.038  0.00  0.00    -0.319 N 
ATOM     25  C18 NON d   1     -39.267  19.834  -3.332  0.00  0.00     0.261 A 
ATOM     26  H19 NON d   1     -39.124  19.633  -1.319  0.00  0.00     0.169 HD
ATOM     27  O3  NON d   1     -38.790  18.717  -3.498  0.00  0.00    -0.267 OA
BRANCH  23  28
ATOM     28  C17 NON d   1     -40.048  21.876  -0.210  0.00  0.00     0.432 C 
ATOM     29  F1  NON d   1     -40.284  20.777   0.548  0.00  0.00    -0.165 F 
ATOM     30  F2  NON d   1     -41.071  22.739   0.013  0.00  0.00    -0.165 F 
ATOM     31  F3  NON d   1     -38.923  22.459   0.279  0.00  0.00    -0.165 F 
ENDBRANCH  23  28
ENDBRANCH   2  20
TORSDOF 7
ENDMDL
MODEL 8
REMARK VINA RESULT:   -11.393      2.454      3.580
REMARK INTER + INTRA:         -14.191
REMARK INTER:                 -13.482
REMARK INTRA:                  -0.709
REMARK CONF_INDEPENDENT:        2.088
REMARK UNBOUND:                -0.709
REMARK  7 active torsions:
REMARK  status: ('A' for Active; 'I' for Inactive)
REMARK    1  A    between atoms: C3_3  and  C2_2 
REMARK    2  A    between atoms: C3_3  and  C5_5 
REMARK       I    between atoms: C5_5  and  N1_7 
REMARK    3  A    between atoms: N1_7  and  C6_8 
REMARK    4  A    between atoms: C10_12  and  C11_13 
REMARK    5  A    between atoms: C11_13  and  N2_14 
REMARK       I    between atoms: N2_14  and  C12_15 
REMARK    6  A    between atoms: C12_15  and  C13_17 
REMARK    7  A    between atoms: C16_20  and  C17_21 
ROOT
ATOM      1  N2  NON d   1     -40.343  18.811  -7.252  0.00  0.00    -0.352 N 
ATOM      2  C12 NON d   1     -39.430  19.457  -8.046  0.00  0.00     0.257 C 
ATOM      3  O2  NON d   1     -38.523  18.738  -8.469  0.00  0.00    -0.267 OA
ATOM      4  H16 NON d   1     -40.103  17.836  -7.120  0.00  0.00     0.163 HD
ENDROOT
BRANCH   1   5
ATOM      5  C11 NON d   1     -41.465  19.348  -6.549  0.00  0.00     0.161 C 
BRANCH   5   6
ATOM      6  C10 NON d   1     -42.020  18.688  -5.314  0.00  0.00    -0.038 A 
ATOM      7  C9  NON d   1     -41.044  18.516  -4.308  0.00  0.00     0.009 A 
ATOM      8  C8  NON d   1     -41.360  17.948  -3.091  0.00  0.00     0.003 A 
ATOM      9  C7  NON d   1     -42.663  17.528  -2.858  0.00  0.00     0.029 A 
ATOM     10  C6  NON d   1     -43.667  17.630  -3.838  0.00  0.00     0.035 A 
ATOM     11  C19 NON d   1     -43.337  18.243  -5.069  0.00  0.00     0.038 A 
BRANCH  10  12
ATOM     12  N1  NON d   1     -44.992  17.127  -3.601  0.00  0.00    -0.327 N 
ATOM     13  C5  NON d   1     -45.844  16.718  -4.614  0.00  0.00     0.226 C 
ATOM     14  O1  NON d   1     -45.565  16.860  -5.810  0.00  0.00    -0.273 OA
ATOM     15  H10 NON d   1     -45.370  17.251  -2.672  0.00  0.00     0.169 HD
BRANCH  13  16
ATOM     16  C3  NON d   1     -47.272  16.220  -4.321  0.00  0.00     0.074 C 
ATOM     17  C4  NON d   1     -48.025  15.381  -5.370  0.00  0.00     0.020 C 
BRANCH  16  18
ATOM     18  C2  NON d   1     -47.946  16.561  -2.979  0.00  0.00     0.009 C 
ATOM     19  C1  NON d   1     -49.424  16.197  -2.746  0.00  0.00     0.006 C 
ENDBRANCH  16  18
ENDBRANCH  13  16
ENDBRANCH  10  12
ENDBRANCH   5   6
ENDBRANCH   1   5
BRANCH   2  20
ATOM     20  C13 NON d   1     -39.478  20.937  -8.400  0.00  0.00     0.100 A 
ATOM     21  C14 NON d   1     -39.478  21.463  -9.642  0.00  0.00     0.025 A 
ATOM     22  C15 NON d   1     -39.562  22.877  -9.930  0.00  0.00     0.035 A 
ATOM     23  C16 NON d   1     -39.646  23.773  -8.939  0.00  0.00     0.119 A 
ATOM     24  N3  NON d   1     -39.649  23.294  -7.645  0.00  0.00    -0.319 N 
ATOM     25  C18 NON d   1     -39.571  21.965  -7.282  0.00  0.00     0.261 A 
ATOM     26  H19 NON d   1     -39.732  23.942  -6.866  0.00  0.00     0.169 HD
ATOM     27  O3  NON d   1     -39.578  21.691  -6.087  0.00  0.00    -0.267 OA
BRANCH  23  28
ATOM     28  C17 NON d   1     -39.767  25.261  -9.183  0.00  0.00     0.432 C 
ATOM     29  F1  NON d   1     -38.555  25.870  -9.158  0.00  0.00    -0.165 F 
ATOM     30  F2  NON d   1     -40.533  25.865  -8.239  0.00  0.00    -0.165 F 
ATOM     31  F3  NON d   1     -40.326  25.544 -10.388  0.00  0.00    -0.165 F 
ENDBRANCH  23  28
ENDBRANCH   2  20
TORSDOF 7
ENDMDL
MODEL 9
REMARK VINA RESULT:   -10.902      2.283      3.360
REMARK INTER + INTRA:         -13.730
REMARK INTER:                 -12.990
REMARK INTRA:                  -0.739
REMARK CONF_INDEPENDENT:        2.088
REMARK UNBOUND:                -0.739
REMARK  7 active torsions:
REMARK  status: ('A' for Active; 'I' for Inactive)
REMARK    1  A    between atoms: C3_3  and  C2_2 
REMARK    2  A    between atoms: C3_3  and  C5_5 
REMARK       I    between atoms: C5_5  and  N1_7 
REMARK    3  A    between atoms: N1_7  and  C6_8 
REMARK    4  A    between atoms: C10_12  and  C11_13 
REMARK    5  A    between atoms: C11_13  and  N2_14 
REMARK       I    between atoms: N2_14  and  C12_15 
REMARK    6  A    between atoms: C12_15  and  C13_17 
REMARK    7  A    between atoms: C16_20  and  C17_21 
ROOT
ATOM      1  N2  NON d   1     -41.007  21.298  -5.589  0.00  0.00    -0.352 N 
ATOM      2  C12 NON d   1     -40.195  22.204  -6.222  0.00  0.00     0.257 C 
ATOM      3  O2  NON d   1     -39.770  23.104  -5.494  0.00  0.00    -0.267 OA
ATOM      4  H16 NON d   1     -41.148  21.535  -4.615  0.00  0.00     0.163 HD
ENDROOT
BRANCH   1   5
ATOM      5  C11 NON d   1     -41.717  20.187  -6.139  0.00  0.00     0.161 C 
BRANCH   5   6
ATOM      6  C10 NON d   1     -42.292  19.100  -5.268  0.00  0.00    -0.038 A 
ATOM      7  C9  NON d   1     -41.295  18.295  -4.678  0.00  0.00     0.009 A 
ATOM      8  C8  NON d   1     -41.619  17.258  -3.829  0.00  0.00     0.003 A 
ATOM      9  C7  NON d   1     -42.956  16.995  -3.560  0.00  0.00     0.029 A 
ATOM     10  C6  NON d   1     -43.995  17.733  -4.154  0.00  0.00     0.035 A 
ATOM     11  C19 NON d   1     -43.648  18.814  -4.998  0.00  0.00     0.038 A 
BRANCH  10  12
ATOM     12  N1  NON d   1     -45.374  17.402  -3.917  0.00  0.00    -0.327 N 
ATOM     13  C5  NON d   1     -46.110  16.569  -4.741  0.00  0.00     0.226 C 
ATOM     14  O1  NON d   1     -45.664  16.133  -5.809  0.00  0.00    -0.273 OA
ATOM     15  H10 NON d   1     -45.862  17.948  -3.220  0.00  0.00     0.169 HD
BRANCH  13  16
ATOM     16  C3  NON d   1     -47.597  16.269  -4.472  0.00  0.00     0.074 C 
ATOM     17  C4  NON d   1     -48.386  15.362  -5.435  0.00  0.00     0.020 C 
BRANCH  16  18
ATOM     18  C2  NON d   1     -48.294  16.876  -3.241  0.00  0.00     0.009 C 
ATOM     19  C1  NON d   1     -49.486  16.147  -2.593  0.00  0.00     0.006 C 
ENDBRANCH  16  18
ENDBRANCH  13  16
ENDBRANCH  10  12
ENDBRANCH   5   6
ENDBRANCH   1   5
BRANCH   2  20
ATOM     20  C13 NON d   1     -39.823  22.158  -7.698  0.00  0.00     0.100 A 
ATOM     21  C14 NON d   1     -39.417  21.074  -8.388  0.00  0.00     0.025 A 
ATOM     22  C15 NON d   1     -39.110  21.071  -9.800  0.00  0.00     0.035 A 
ATOM     23  C16 NON d   1     -39.216  22.192 -10.525  0.00  0.00     0.119 A 
ATOM     24  N3  NON d   1     -39.627  23.337  -9.872  0.00  0.00    -0.319 N 
ATOM     25  C18 NON d   1     -39.937  23.427  -8.530  0.00  0.00     0.261 A 
ATOM     26  H19 NON d   1     -39.738  24.203 -10.393  0.00  0.00     0.169 HD
ATOM     27  O3  NON d   1     -40.282  24.517  -8.089  0.00  0.00    -0.267 OA
BRANCH  23  28
ATOM     28  C17 NON d   1     -38.937  22.241 -12.011  0.00  0.00     0.432 C 
ATOM     29  F1  NON d   1     -37.939  21.392 -12.358  0.00  0.00    -0.165 F 
ATOM     30  F2  NON d   1     -38.559  23.482 -12.411  0.00  0.00    -0.165 F 
ATOM     31  F3  NON d   1     -40.023  21.899 -12.752  0.00  0.00    -0.165 F 
ENDBRANCH  23  28
ENDBRANCH   2  20
TORSDOF 7
ENDMDL
