MODEL 1
REMARK VINA RESULT:   -29.891      0.000      0.000
REMARK INTER + INTRA:         -33.416
REMARK INTER:                 -32.277
REMARK INTRA:                  -1.139
REMARK CONF_INDEPENDENT:        2.386
REMARK UNBOUND:                -1.139
REMARK  8 active torsions:
REMARK  status: ('A' for Active; 'I' for Inactive)
REMARK    1  A    between atoms: O1_2  and  C2_3 
REMARK    2  A    between atoms: C5_6  and  N1_7 
REMARK    3  A    between atoms: N1_7  and  C6_8 
REMARK    4  A    between atoms: C9_12  and  C10_13 
REMARK    5  A    between atoms: C14_17  and  N3_18 
REMARK       I    between atoms: N3_18  and  C15_19 
REMARK    6  A    between atoms: C15_19  and  C16_21 
REMARK    7  A    between atoms: C16_21  and  C17_22 
REMARK    8  A    between atoms: C26_34  and  O3_35 
ROOT
ATOM      1  C6  NON d   1     -40.277  23.797  -8.993  0.00  0.00     0.728 A 
ATOM      2  N2  NON d   1     -40.333  22.454  -8.869  0.00  0.00    -0.074 NA
ATOM      3  C7  NON d   1     -40.167  21.882  -7.643  0.00  0.00     0.152 A 
ATOM      4  C8  NON d   1     -39.940  22.673  -6.517  0.00  0.00     0.041 A 
ATOM      5  C9  NON d   1     -39.711  22.519  -5.096  0.00  0.00     0.005 A 
ATOM      6  C23 NON d   1     -39.552  23.811  -4.603  0.00  0.00     0.103 A 
ATOM      7  N5  NON d   1     -39.667  24.702  -5.634  0.00  0.00    -0.349 N 
ATOM      8  C24 NON d   1     -39.905  24.028  -6.791  0.00  0.00     0.159 A 
ATOM      9  N6  NON d   1     -40.063  24.630  -7.973  0.00  0.00    -0.044 NA
ATOM     10  H20 NON d   1     -39.588  25.709  -5.574  0.00  0.00     0.167 HD
ENDROOT
BRANCH   5  11
ATOM     11  C10 NON d   1     -39.597  21.334  -4.223  0.00  0.00    -0.021 A 
ATOM     12  C11 NON d   1     -38.422  21.063  -3.512  0.00  0.00     0.012 A 
ATOM     13  C12 NON d   1     -38.347  19.994  -2.611  0.00  0.00     0.003 A 
ATOM     14  C13 NON d   1     -39.451  19.169  -2.402  0.00  0.00     0.029 A 
ATOM     15  C14 NON d   1     -40.617  19.371  -3.138  0.00  0.00     0.035 A 
ATOM     16  C22 NON d   1     -40.677  20.446  -4.039  0.00  0.00     0.042 A 
BRANCH  15  17
ATOM     17  N3  NON d   1     -41.711  18.510  -2.896  0.00  0.00    -0.327 N 
ATOM     18  C15 NON d   1     -42.602  18.055  -3.851  0.00  0.00     0.226 C 
ATOM     19  O2  NON d   1     -42.519  18.305  -5.055  0.00  0.00    -0.273 OA
ATOM     20  H11 NON d   1     -41.751  18.082  -1.981  0.00  0.00     0.169 HD
BRANCH  18  21
ATOM     21  C16 NON d   1     -43.803  17.290  -3.320  0.00  0.00     0.141 C 
BRANCH  21  22
ATOM     22  C17 NON d   1     -45.062  17.108  -4.144  0.00  0.00    -0.047 A 
ATOM     23  C18 NON d   1     -45.307  17.643  -5.410  0.00  0.00     0.027 A 
ATOM     24  C19 NON d   1     -46.484  17.300  -6.069  0.00  0.00     0.116 A 
ATOM     25  N4  NON d   1     -47.440  16.501  -5.552  0.00  0.00    -0.273 NA
ATOM     26  C20 NON d   1     -47.218  16.029  -4.311  0.00  0.00     0.116 A 
ATOM     27  C21 NON d   1     -46.065  16.293  -3.588  0.00  0.00     0.027 A 
ENDBRANCH  21  22
ENDBRANCH  18  21
ENDBRANCH  15  17
ENDBRANCH   5  11
BRANCH   1  28
ATOM     28  N1  NON d   1     -40.472  24.289 -10.291  0.00  0.00    -0.188 N 
ATOM     29  H6  NON d   1     -41.098  25.077 -10.260  0.00  0.00     0.184 HD
BRANCH  28  30
ATOM     30  C5  NON d   1     -39.983  23.888 -11.543  0.00  0.00     0.052 A 
ATOM     31  C4  NON d   1     -40.597  24.339 -12.717  0.00  0.00     0.033 A 
ATOM     32  C3  NON d   1     -40.095  23.989 -13.983  0.00  0.00     0.042 A 
ATOM     33  C2  NON d   1     -38.969  23.168 -14.104  0.00  0.00     0.101 A 
ATOM     34  C26 NON d   1     -38.336  22.724 -12.952  0.00  0.00     0.103 A 
ATOM     35  C25 NON d   1     -38.855  23.080 -11.698  0.00  0.00     0.069 A 
BRANCH  33  36
ATOM     36  O1  NON d   1     -38.459  22.906 -15.345  0.00  0.00    -0.353 OA
ATOM     37  C1  NON d   1     -38.258  24.117 -16.074  0.00  0.00     0.210 C 
ENDBRANCH  33  36
BRANCH  34  38
ATOM     38  O3  NON d   1     -37.216  21.966 -12.834  0.00  0.00    -0.353 OA
ATOM     39  C27 NON d   1     -37.208  20.565 -13.472  0.00  0.00     0.210 C 
ENDBRANCH  34  38
ENDBRANCH  28  30
ENDBRANCH   1  28
TORSDOF 8
ENDMDL
MODEL 2
REMARK VINA RESULT:   -29.720      2.037      2.284
REMARK INTER + INTRA:         -33.185
REMARK INTER:                 -32.106
REMARK INTRA:                  -1.079
REMARK CONF_INDEPENDENT:        2.386
REMARK UNBOUND:                -1.079
REMARK  8 active torsions:
REMARK  status: ('A' for Active; 'I' for Inactive)
REMARK    1  A    between atoms: O1_2  and  C2_3 
REMARK    2  A    between atoms: C5_6  and  N1_7 
REMARK    3  A    between atoms: N1_7  and  C6_8 
REMARK    4  A    between atoms: C9_12  and  C10_13 
REMARK    5  A    between atoms: C14_17  and  N3_18 
REMARK       I    between atoms: N3_18  and  C15_19 
REMARK    6  A    between atoms: C15_19  and  C16_21 
REMARK    7  A    between atoms: C16_21  and  C17_22 
REMARK    8  A    between atoms: C26_34  and  O3_35 
ROOT
ATOM      1  C6  NON d   1     -39.283  21.341  -9.659  0.00  0.00     0.728 A 
ATOM      2  N2  NON d   1     -40.094  20.388  -9.152  0.00  0.00    -0.074 NA
ATOM      3  C7  NON d   1     -39.877  19.918  -7.891  0.00  0.00     0.152 A 
ATOM      4  C8  NON d   1     -38.827  20.414  -7.121  0.00  0.00     0.041 A 
ATOM      5  C9  NON d   1     -38.241  20.224  -5.811  0.00  0.00     0.005 A 
ATOM      6  C23 NON d   1     -37.164  21.104  -5.754  0.00  0.00     0.103 A 
ATOM      7  N5  NON d   1     -37.079  21.788  -6.936  0.00  0.00    -0.349 N 
ATOM      8  C24 NON d   1     -38.078  21.383  -7.765  0.00  0.00     0.159 A 
ATOM      9  N6  NON d   1     -38.255  21.872  -8.995  0.00  0.00    -0.044 NA
ATOM     10  H20 NON d   1     -36.390  22.485  -7.182  0.00  0.00     0.167 HD
ENDROOT
BRANCH   5  11
ATOM     11  C10 NON d   1     -38.562  19.314  -4.693  0.00  0.00    -0.021 A 
ATOM     12  C11 NON d   1     -37.565  18.829  -3.839  0.00  0.00     0.012 A 
ATOM     13  C12 NON d   1     -37.882  18.044  -2.724  0.00  0.00     0.003 A 
ATOM     14  C13 NON d   1     -39.208  17.727  -2.438  0.00  0.00     0.029 A 
ATOM     15  C14 NON d   1     -40.221  18.141  -3.301  0.00  0.00     0.035 A 
ATOM     16  C22 NON d   1     -39.889  18.925  -4.417  0.00  0.00     0.042 A 
BRANCH  15  17
ATOM     17  N3  NON d   1     -41.553  17.795  -2.975  0.00  0.00    -0.327 N 
ATOM     18  C15 NON d   1     -42.517  17.376  -3.874  0.00  0.00     0.226 C 
ATOM     19  O2  NON d   1     -42.317  17.199  -5.077  0.00  0.00    -0.273 OA
ATOM     20  H11 NON d   1     -41.764  17.708  -1.990  0.00  0.00     0.169 HD
BRANCH  18  21
ATOM     21  C16 NON d   1     -43.924  17.240  -3.314  0.00  0.00     0.141 C 
BRANCH  21  22
ATOM     22  C17 NON d   1     -45.139  17.168  -4.217  0.00  0.00    -0.047 A 
ATOM     23  C18 NON d   1     -45.322  17.862  -5.414  0.00  0.00     0.027 A 
ATOM     24  C19 NON d   1     -46.463  17.609  -6.170  0.00  0.00     0.116 A 
ATOM     25  N4  NON d   1     -47.440  16.751  -5.810  0.00  0.00    -0.273 NA
ATOM     26  C20 NON d   1     -47.278  16.123  -4.631  0.00  0.00     0.116 A 
ATOM     27  C21 NON d   1     -46.164  16.290  -3.822  0.00  0.00     0.027 A 
ENDBRANCH  21  22
ENDBRANCH  18  21
ENDBRANCH  15  17
ENDBRANCH   5  11
BRANCH   1  28
ATOM     28  N1  NON d   1     -39.595  21.767 -10.957  0.00  0.00    -0.188 N 
ATOM     29  H6  NON d   1     -40.308  21.171 -11.344  0.00  0.00     0.184 HD
BRANCH  28  30
ATOM     30  C5  NON d   1     -39.105  22.809 -11.759  0.00  0.00     0.052 A 
ATOM     31  C4  NON d   1     -38.369  23.853 -11.187  0.00  0.00     0.033 A 
ATOM     32  C3  NON d   1     -37.827  24.882 -11.977  0.00  0.00     0.042 A 
ATOM     33  C2  NON d   1     -38.019  24.894 -13.363  0.00  0.00     0.101 A 
ATOM     34  C26 NON d   1     -38.731  23.859 -13.952  0.00  0.00     0.103 A 
ATOM     35  C25 NON d   1     -39.268  22.845 -13.145  0.00  0.00     0.069 A 
BRANCH  33  36
ATOM     36  O1  NON d   1     -37.417  25.865 -14.115  0.00  0.00    -0.353 OA
ATOM     37  C1  NON d   1     -36.401  25.303 -14.946  0.00  0.00     0.210 C 
ENDBRANCH  33  36
BRANCH  34  38
ATOM     38  O3  NON d   1     -38.996  23.647 -15.265  0.00  0.00    -0.353 OA
ATOM     39  C27 NON d   1     -38.037  22.751 -16.071  0.00  0.00     0.210 C 
ENDBRANCH  34  38
ENDBRANCH  28  30
ENDBRANCH   1  28
TORSDOF 8
ENDMDL
MODEL 3
REMARK VINA RESULT:   -28.583      1.559      2.458
REMARK INTER + INTRA:         -32.120
REMARK INTER:                 -30.970
REMARK INTRA:                  -1.150
REMARK CONF_INDEPENDENT:        2.386
REMARK UNBOUND:                -1.150
REMARK  8 active torsions:
REMARK  status: ('A' for Active; 'I' for Inactive)
REMARK    1  A    between atoms: O1_2  and  C2_3 
REMARK    2  A    between atoms: C5_6  and  N1_7 
REMARK    3  A    between atoms: N1_7  and  C6_8 
REMARK    4  A    between atoms: C9_12  and  C10_13 
REMARK    5  A    between atoms: C14_17  and  N3_18 
REMARK       I    between atoms: N3_18  and  C15_19 
REMARK    6  A    between atoms: C15_19  and  C16_21 
REMARK    7  A    between atoms: C16_21  and  C17_22 
REMARK    8  A    between atoms: C26_34  and  O3_35 
ROOT
ATOM      1  C6  NON d   1     -37.667  21.094  -9.643  0.00  0.00     0.728 A 
ATOM      2  N2  NON d   1     -37.380  20.087  -8.790  0.00  0.00    -0.074 NA
ATOM      3  C7  NON d   1     -37.953  20.067  -7.553  0.00  0.00     0.152 A 
ATOM      4  C8  NON d   1     -38.832  21.076  -7.163  0.00  0.00     0.041 A 
ATOM      5  C9  NON d   1     -39.627  21.455  -6.014  0.00  0.00     0.005 A 
ATOM      6  C23 NON d   1     -40.262  22.640  -6.376  0.00  0.00     0.103 A 
ATOM      7  N5  NON d   1     -39.890  22.979  -7.648  0.00  0.00    -0.349 N 
ATOM      8  C24 NON d   1     -39.031  22.042  -8.133  0.00  0.00     0.159 A 
ATOM      9  N6  NON d   1     -38.493  22.101  -9.354  0.00  0.00    -0.044 NA
ATOM     10  H20 NON d   1     -40.187  23.793  -8.168  0.00  0.00     0.167 HD
ENDROOT
BRANCH   5  11
ATOM     11  C10 NON d   1     -39.801  20.857  -4.675  0.00  0.00    -0.021 A 
ATOM     12  C11 NON d   1     -38.962  21.203  -3.609  0.00  0.00     0.012 A 
ATOM     13  C12 NON d   1     -39.186  20.709  -2.318  0.00  0.00     0.003 A 
ATOM     14  C13 NON d   1     -40.258  19.855  -2.066  0.00  0.00     0.029 A 
ATOM     15  C14 NON d   1     -41.077  19.441  -3.115  0.00  0.00     0.035 A 
ATOM     16  C22 NON d   1     -40.839  19.942  -4.404  0.00  0.00     0.042 A 
BRANCH  15  17
ATOM     17  N3  NON d   1     -42.151  18.573  -2.815  0.00  0.00    -0.327 N 
ATOM     18  C15 NON d   1     -42.715  17.662  -3.689  0.00  0.00     0.226 C 
ATOM     19  O2  NON d   1     -42.312  17.454  -4.835  0.00  0.00    -0.273 OA
ATOM     20  H11 NON d   1     -42.422  18.516  -1.843  0.00  0.00     0.169 HD
BRANCH  18  21
ATOM     21  C16 NON d   1     -43.978  16.972  -3.197  0.00  0.00     0.141 C 
BRANCH  21  22
ATOM     22  C17 NON d   1     -45.209  16.841  -4.071  0.00  0.00    -0.047 A 
ATOM     23  C18 NON d   1     -46.376  16.145  -3.756  0.00  0.00     0.027 A 
ATOM     24  C19 NON d   1     -47.453  16.203  -4.636  0.00  0.00     0.116 A 
ATOM     25  N4  NON d   1     -47.440  16.868  -5.810  0.00  0.00    -0.273 NA
ATOM     26  C20 NON d   1     -46.294  17.496  -6.128  0.00  0.00     0.116 A 
ATOM     27  C21 NON d   1     -45.179  17.517  -5.304  0.00  0.00     0.027 A 
ENDBRANCH  21  22
ENDBRANCH  18  21
ENDBRANCH  15  17
ENDBRANCH   5  11
BRANCH   1  28
ATOM     28  N1  NON d   1     -37.039  21.019 -10.893  0.00  0.00    -0.188 N 
ATOM     29  H6  NON d   1     -36.304  20.331 -10.859  0.00  0.00     0.184 HD
BRANCH  28  30
ATOM     30  C5  NON d   1     -37.241  21.704 -12.101  0.00  0.00     0.052 A 
ATOM     31  C4  NON d   1     -36.220  21.763 -13.057  0.00  0.00     0.033 A 
ATOM     32  C3  NON d   1     -36.416  22.402 -14.294  0.00  0.00     0.042 A 
ATOM     33  C2  NON d   1     -37.639  23.007 -14.600  0.00  0.00     0.101 A 
ATOM     34  C26 NON d   1     -38.669  22.945 -13.672  0.00  0.00     0.103 A 
ATOM     35  C25 NON d   1     -38.452  22.307 -12.442  0.00  0.00     0.069 A 
BRANCH  33  36
ATOM     36  O1  NON d   1     -37.826  23.555 -15.838  0.00  0.00    -0.353 OA
ATOM     37  C1  NON d   1     -37.827  24.982 -15.765  0.00  0.00     0.210 C 
ENDBRANCH  33  36
BRANCH  34  38
ATOM     38  O3  NON d   1     -39.937  23.417 -13.775  0.00  0.00    -0.353 OA
ATOM     39  C27 NON d   1     -40.698  23.763 -12.482  0.00  0.00     0.210 C 
ENDBRANCH  34  38
ENDBRANCH  28  30
ENDBRANCH   1  28
TORSDOF 8
ENDMDL
MODEL 4
REMARK VINA RESULT:   -28.128      1.745      2.091
REMARK INTER + INTRA:         -31.627
REMARK INTER:                 -30.514
REMARK INTRA:                  -1.113
REMARK CONF_INDEPENDENT:        2.386
REMARK UNBOUND:                -1.113
REMARK  8 active torsions:
REMARK  status: ('A' for Active; 'I' for Inactive)
REMARK    1  A    between atoms: O1_2  and  C2_3 
REMARK    2  A    between atoms: C5_6  and  N1_7 
REMARK    3  A    between atoms: N1_7  and  C6_8 
REMARK    4  A    between atoms: C9_12  and  C10_13 
REMARK    5  A    between atoms: C14_17  and  N3_18 
REMARK       I    between atoms: N3_18  and  C15_19 
REMARK    6  A    between atoms: C15_19  and  C16_21 
REMARK    7  A    between atoms: C16_21  and  C17_22 
REMARK    8  A    between atoms: C26_34  and  O3_35 
ROOT
ATOM      1  C6  NON d   1     -40.019  24.806  -8.814  0.00  0.00     0.728 A 
ATOM      2  N2  NON d   1     -40.425  23.531  -8.985  0.00  0.00    -0.074 NA
ATOM      3  C7  NON d   1     -40.232  22.620  -7.988  0.00  0.00     0.152 A 
ATOM      4  C8  NON d   1     -39.620  22.998  -6.794  0.00  0.00     0.041 A 
ATOM      5  C9  NON d   1     -39.220  22.411  -5.532  0.00  0.00     0.005 A 
ATOM      6  C23 NON d   1     -38.633  23.446  -4.810  0.00  0.00     0.103 A 
ATOM      7  N5  NON d   1     -38.659  24.589  -5.562  0.00  0.00    -0.349 N 
ATOM      8  C24 NON d   1     -39.254  24.332  -6.757  0.00  0.00     0.159 A 
ATOM      9  N6  NON d   1     -39.424  25.255  -7.707  0.00  0.00    -0.044 NA
ATOM     10  H20 NON d   1     -38.295  25.494  -5.296  0.00  0.00     0.167 HD
ENDROOT
BRANCH   5  11
ATOM     11  C10 NON d   1     -39.302  21.038  -4.997  0.00  0.00    -0.021 A 
ATOM     12  C11 NON d   1     -38.169  20.219  -4.912  0.00  0.00     0.012 A 
ATOM     13  C12 NON d   1     -38.230  18.954  -4.316  0.00  0.00     0.003 A 
ATOM     14  C13 NON d   1     -39.429  18.478  -3.791  0.00  0.00     0.029 A 
ATOM     15  C14 NON d   1     -40.590  19.239  -3.912  0.00  0.00     0.035 A 
ATOM     16  C22 NON d   1     -40.516  20.505  -4.514  0.00  0.00     0.042 A 
BRANCH  15  17
ATOM     17  N3  NON d   1     -41.785  18.717  -3.368  0.00  0.00    -0.327 N 
ATOM     18  C15 NON d   1     -42.456  17.598  -3.828  0.00  0.00     0.226 C 
ATOM     19  O2  NON d   1     -42.061  16.878  -4.746  0.00  0.00    -0.273 OA
ATOM     20  H11 NON d   1     -42.084  19.110  -2.486  0.00  0.00     0.169 HD
BRANCH  18  21
ATOM     21  C16 NON d   1     -43.816  17.341  -3.198  0.00  0.00     0.141 C 
BRANCH  21  22
ATOM     22  C17 NON d   1     -45.059  17.132  -4.040  0.00  0.00    -0.047 A 
ATOM     23  C18 NON d   1     -45.205  17.449  -5.391  0.00  0.00     0.027 A 
ATOM     24  C19 NON d   1     -46.389  17.104  -6.039  0.00  0.00     0.116 A 
ATOM     25  N4  NON d   1     -47.437  16.505  -5.438  0.00  0.00    -0.273 NA
ATOM     26  C20 NON d   1     -47.306  16.247  -4.124  0.00  0.00     0.116 A 
ATOM     27  C21 NON d   1     -46.156  16.529  -3.401  0.00  0.00     0.027 A 
ENDBRANCH  21  22
ENDBRANCH  18  21
ENDBRANCH  15  17
ENDBRANCH   5  11
BRANCH   1  28
ATOM     28  N1  NON d   1     -40.273  25.667  -9.889  0.00  0.00    -0.188 N 
ATOM     29  H6  NON d   1     -40.915  26.387  -9.599  0.00  0.00     0.184 HD
BRANCH  28  30
ATOM     30  C5  NON d   1     -39.823  25.687 -11.218  0.00  0.00     0.052 A 
ATOM     31  C4  NON d   1     -38.527  26.123 -11.517  0.00  0.00     0.033 A 
ATOM     32  C3  NON d   1     -38.038  26.106 -12.835  0.00  0.00     0.042 A 
ATOM     33  C2  NON d   1     -38.842  25.661 -13.890  0.00  0.00     0.101 A 
ATOM     34  C26 NON d   1     -40.125  25.209 -13.612  0.00  0.00     0.103 A 
ATOM     35  C25 NON d   1     -40.595  25.239 -12.291  0.00  0.00     0.069 A 
BRANCH  33  36
ATOM     36  O1  NON d   1     -38.315  25.585 -15.149  0.00  0.00    -0.353 OA
ATOM     37  C1  NON d   1     -36.900  25.405 -15.094  0.00  0.00     0.210 C 
ENDBRANCH  33  36
BRANCH  34  38
ATOM     38  O3  NON d   1     -41.049  24.696 -14.462  0.00  0.00    -0.353 OA
ATOM     39  C27 NON d   1     -41.881  25.671 -15.316  0.00  0.00     0.210 C 
ENDBRANCH  34  38
ENDBRANCH  28  30
ENDBRANCH   1  28
TORSDOF 8
ENDMDL
