MODEL 1
REMARK VINA RESULT:   -15.473      0.000      0.000
REMARK INTER + INTRA:         -18.679
REMARK INTER:                 -17.263
REMARK INTRA:                  -1.416
REMARK CONF_INDEPENDENT:        1.790
REMARK UNBOUND:                -1.416
REMARK  6 active torsions:
REMARK  status: ('A' for Active; 'I' for Inactive)
REMARK    1  A    between atoms: C6_6  and  C7_7 
REMARK       I    between atoms: C7_7  and  N1_9 
REMARK    2  A    between atoms: N1_9  and  C8_10 
REMARK    3  A    between atoms: C8_10  and  C9_11 
REMARK       I    between atoms: C9_11  and  N2_13 
REMARK    4  A    between atoms: N2_13  and  N3_14 
REMARK       I    between atoms: N3_14  and  C10_15 
REMARK    5  A    between atoms: C10_15  and  C11_17 
REMARK    6  A    between atoms: C16_22  and  O4_23 
ROOT
ATOM      1  C9  NON d   1     -43.190  18.040  -4.842  0.00  0.00     0.253 C 
ATOM      2  O2  NON d   1     -44.048  18.885  -5.099  0.00  0.00    -0.270 OA
ATOM      3  N2  NON d   1     -43.439  16.867  -4.154  0.00  0.00    -0.266 N 
ATOM      4  H10 NON d   1     -42.727  16.168  -3.947  0.00  0.00     0.190 HD
ENDROOT
BRANCH   1   5
ATOM      5  C8  NON d   1     -41.723  18.181  -5.253  0.00  0.00     0.227 C 
BRANCH   5   6
ATOM      6  N1  NON d   1     -41.422  19.434  -5.931  0.00  0.00    -0.348 N 
ATOM      7  C7  NON d   1     -40.534  19.436  -6.988  0.00  0.00     0.252 C 
ATOM      8  O1  NON d   1     -40.009  18.393  -7.375  0.00  0.00    -0.268 OA
ATOM      9  H7  NON d   1     -41.857  20.271  -5.566  0.00  0.00     0.163 HD
BRANCH   7  10
ATOM     10  C6  NON d   1     -40.199  20.729  -7.668  0.00  0.00     0.032 A 
ATOM     11  C5  NON d   1     -40.240  21.897  -6.892  0.00  0.00     0.017 A 
ATOM     12  C4  NON d   1     -39.940  23.144  -7.450  0.00  0.00     0.002 A 
ATOM     13  C3  NON d   1     -39.603  23.249  -8.798  0.00  0.00     0.007 A 
ATOM     14  C2  NON d   1     -39.573  22.105  -9.599  0.00  0.00    -0.061 A 
ATOM     15  C1  NON d   1     -39.190  22.135 -11.090  0.00  0.00     0.048 C 
ATOM     16  C17 NON d   1     -39.854  20.842  -9.020  0.00  0.00     0.023 A 
ENDBRANCH   7  10
ENDBRANCH   5   6
ENDBRANCH   1   5
BRANCH   3  17
ATOM     17  N3  NON d   1     -44.728  16.568  -3.707  0.00  0.00    -0.263 N 
ATOM     18  C10 NON d   1     -45.761  16.590  -4.624  0.00  0.00     0.272 C 
ATOM     19  O3  NON d   1     -45.564  16.852  -5.810  0.00  0.00    -0.266 OA
ATOM     20  H11 NON d   1     -44.874  16.360  -2.718  0.00  0.00     0.190 HD
BRANCH  18  21
ATOM     21  C11 NON d   1     -47.139  16.281  -4.128  0.00  0.00     0.066 A 
ATOM     22  C12 NON d   1     -47.482  16.751  -2.847  0.00  0.00     0.020 A 
ATOM     23  C13 NON d   1     -48.747  16.505  -2.306  0.00  0.00     0.001 A 
ATOM     24  C14 NON d   1     -49.687  15.786  -3.039  0.00  0.00     0.003 A 
ATOM     25  C15 NON d   1     -49.366  15.313  -4.312  0.00  0.00     0.037 A 
ATOM     26  C16 NON d   1     -48.098  15.560  -4.854  0.00  0.00     0.081 A 
BRANCH  26  27
ATOM     27  O4  NON d   1     -47.814  15.081  -6.106  0.00  0.00    -0.360 OA
ATOM     28  H16 NON d   1     -47.206  15.697  -6.551  0.00  0.00     0.217 HD
ENDBRANCH  26  27
ENDBRANCH  18  21
ENDBRANCH   3  17
TORSDOF 6
ENDMDL
MODEL 2
REMARK VINA RESULT:   -15.238      0.490      1.357
REMARK INTER + INTRA:         -18.652
REMARK INTER:                 -17.028
REMARK INTRA:                  -1.624
REMARK CONF_INDEPENDENT:        1.790
REMARK UNBOUND:                -1.624
REMARK  6 active torsions:
REMARK  status: ('A' for Active; 'I' for Inactive)
REMARK    1  A    between atoms: C6_6  and  C7_7 
REMARK       I    between atoms: C7_7  and  N1_9 
REMARK    2  A    between atoms: N1_9  and  C8_10 
REMARK    3  A    between atoms: C8_10  and  C9_11 
REMARK       I    between atoms: C9_11  and  N2_13 
REMARK    4  A    between atoms: N2_13  and  N3_14 
REMARK       I    between atoms: N3_14  and  C10_15 
REMARK    5  A    between atoms: C10_15  and  C11_17 
REMARK    6  A    between atoms: C16_22  and  O4_23 
ROOT
ATOM      1  C9  NON d   1     -43.293  18.209  -4.730  0.00  0.00     0.253 C 
ATOM      2  O2  NON d   1     -44.170  19.026  -5.011  0.00  0.00    -0.270 OA
ATOM      3  N2  NON d   1     -43.524  17.025  -4.053  0.00  0.00    -0.266 N 
ATOM      4  H10 NON d   1     -42.796  16.349  -3.826  0.00  0.00     0.190 HD
ENDROOT
BRANCH   1   5
ATOM      5  C8  NON d   1     -41.820  18.401  -5.093  0.00  0.00     0.227 C 
BRANCH   5   6
ATOM      6  N1  NON d   1     -41.583  19.495  -6.024  0.00  0.00    -0.348 N 
ATOM      7  C7  NON d   1     -40.366  19.584  -6.670  0.00  0.00     0.252 C 
ATOM      8  O1  NON d   1     -39.488  18.743  -6.484  0.00  0.00    -0.268 OA
ATOM      9  H7  NON d   1     -42.322  20.178  -6.130  0.00  0.00     0.163 HD
BRANCH   7  10
ATOM     10  C6  NON d   1     -40.108  20.726  -7.606  0.00  0.00     0.032 A 
ATOM     11  C5  NON d   1     -39.819  20.413  -8.943  0.00  0.00     0.017 A 
ATOM     12  C4  NON d   1     -39.568  21.420  -9.881  0.00  0.00     0.002 A 
ATOM     13  C3  NON d   1     -39.590  22.760  -9.497  0.00  0.00     0.007 A 
ATOM     14  C2  NON d   1     -39.856  23.100  -8.168  0.00  0.00    -0.061 A 
ATOM     15  C1  NON d   1     -39.920  24.556  -7.672  0.00  0.00     0.048 C 
ATOM     16  C17 NON d   1     -40.135  22.074  -7.230  0.00  0.00     0.023 A 
ENDBRANCH   7  10
ENDBRANCH   5   6
ENDBRANCH   1   5
BRANCH   3  17
ATOM     17  N3  NON d   1     -44.816  16.681  -3.649  0.00  0.00    -0.263 N 
ATOM     18  C10 NON d   1     -45.793  16.551  -4.616  0.00  0.00     0.272 C 
ATOM     19  O3  NON d   1     -45.543  16.716  -5.810  0.00  0.00    -0.266 OA
ATOM     20  H11 NON d   1     -45.007  16.555  -2.653  0.00  0.00     0.190 HD
BRANCH  18  21
ATOM     21  C11 NON d   1     -47.176  16.195  -4.166  0.00  0.00     0.066 A 
ATOM     22  C12 NON d   1     -47.568  16.632  -2.888  0.00  0.00     0.020 A 
ATOM     23  C13 NON d   1     -48.840  16.342  -2.389  0.00  0.00     0.001 A 
ATOM     24  C14 NON d   1     -49.739  15.612  -3.161  0.00  0.00     0.003 A 
ATOM     25  C15 NON d   1     -49.369  15.171  -4.432  0.00  0.00     0.037 A 
ATOM     26  C16 NON d   1     -48.093  15.462  -4.933  0.00  0.00     0.081 A 
BRANCH  26  27
ATOM     27  O4  NON d   1     -47.761  15.014  -6.184  0.00  0.00    -0.360 OA
ATOM     28  H16 NON d   1     -47.181  15.669  -6.612  0.00  0.00     0.217 HD
ENDBRANCH  26  27
ENDBRANCH  18  21
ENDBRANCH   3  17
TORSDOF 6
ENDMDL
MODEL 3
REMARK VINA RESULT:   -14.844      3.192      4.504
REMARK INTER + INTRA:         -18.637
REMARK INTER:                 -16.633
REMARK INTRA:                  -2.004
REMARK CONF_INDEPENDENT:        1.790
REMARK UNBOUND:                -2.004
REMARK  6 active torsions:
REMARK  status: ('A' for Active; 'I' for Inactive)
REMARK    1  A    between atoms: C6_6  and  C7_7 
REMARK       I    between atoms: C7_7  and  N1_9 
REMARK    2  A    between atoms: N1_9  and  C8_10 
REMARK    3  A    between atoms: C8_10  and  C9_11 
REMARK       I    between atoms: C9_11  and  N2_13 
REMARK    4  A    between atoms: N2_13  and  N3_14 
REMARK       I    between atoms: N3_14  and  C10_15 
REMARK    5  A    between atoms: C10_15  and  C11_17 
REMARK    6  A    between atoms: C16_22  and  O4_23 
ROOT
ATOM      1  C9  NON d   1     -43.396  18.641  -5.060  0.00  0.00     0.253 C 
ATOM      2  O2  NON d   1     -44.349  19.340  -5.407  0.00  0.00    -0.270 OA
ATOM      3  N2  NON d   1     -43.500  17.551  -4.216  0.00  0.00    -0.266 N 
ATOM      4  H10 NON d   1     -42.709  16.973  -3.934  0.00  0.00     0.190 HD
ENDROOT
BRANCH   1   5
ATOM      5  C8  NON d   1     -41.959  18.894  -5.520  0.00  0.00     0.227 C 
BRANCH   5   6
ATOM      6  N1  NON d   1     -41.151  19.618  -4.549  0.00  0.00    -0.348 N 
ATOM      7  C7  NON d   1     -40.579  18.931  -3.496  0.00  0.00     0.252 C 
ATOM      8  O1  NON d   1     -40.729  17.716  -3.378  0.00  0.00    -0.268 OA
ATOM      9  H7  NON d   1     -41.073  20.620  -4.670  0.00  0.00     0.163 HD
BRANCH   7  10
ATOM     10  C6  NON d   1     -39.772  19.678  -2.478  0.00  0.00     0.032 A 
ATOM     11  C5  NON d   1     -38.382  19.486  -2.489  0.00  0.00     0.017 A 
ATOM     12  C4  NON d   1     -37.556  20.147  -1.573  0.00  0.00     0.002 A 
ATOM     13  C3  NON d   1     -38.105  21.005  -0.622  0.00  0.00     0.007 A 
ATOM     14  C2  NON d   1     -39.488  21.199  -0.576  0.00  0.00    -0.061 A 
ATOM     15  C1  NON d   1     -40.168  22.147   0.430  0.00  0.00     0.048 C 
ATOM     16  C17 NON d   1     -40.315  20.546  -1.524  0.00  0.00     0.023 A 
ENDBRANCH   7  10
ENDBRANCH   5   6
ENDBRANCH   1   5
BRANCH   3  17
ATOM     17  N3  NON d   1     -44.742  17.169  -3.703  0.00  0.00    -0.263 N 
ATOM     18  C10 NON d   1     -45.747  16.848  -4.594  0.00  0.00     0.272 C 
ATOM     19  O3  NON d   1     -45.565  16.880  -5.810  0.00  0.00    -0.266 OA
ATOM     20  H11 NON d   1     -44.877  17.155  -2.691  0.00  0.00     0.190 HD
BRANCH  18  21
ATOM     21  C11 NON d   1     -47.077  16.453  -4.030  0.00  0.00     0.066 A 
ATOM     22  C12 NON d   1     -47.362  16.857  -2.713  0.00  0.00     0.020 A 
ATOM     23  C13 NON d   1     -48.579  16.528  -2.108  0.00  0.00     0.001 A 
ATOM     24  C14 NON d   1     -49.527  15.793  -2.812  0.00  0.00     0.003 A 
ATOM     25  C15 NON d   1     -49.263  15.384  -4.120  0.00  0.00     0.037 A 
ATOM     26  C16 NON d   1     -48.044  15.713  -4.726  0.00  0.00     0.081 A 
BRANCH  26  27
ATOM     27  O4  NON d   1     -47.815  15.296  -6.011  0.00  0.00    -0.360 OA
ATOM     28  H16 NON d   1     -47.453  16.039  -6.526  0.00  0.00     0.217 HD
ENDBRANCH  26  27
ENDBRANCH  18  21
ENDBRANCH   3  17
TORSDOF 6
ENDMDL
MODEL 4
REMARK VINA RESULT:   -14.811      2.229      3.201
REMARK INTER + INTRA:         -18.563
REMARK INTER:                 -16.601
REMARK INTRA:                  -1.962
REMARK CONF_INDEPENDENT:        1.790
REMARK UNBOUND:                -1.962
REMARK  6 active torsions:
REMARK  status: ('A' for Active; 'I' for Inactive)
REMARK    1  A    between atoms: C6_6  and  C7_7 
REMARK       I    between atoms: C7_7  and  N1_9 
REMARK    2  A    between atoms: N1_9  and  C8_10 
REMARK    3  A    between atoms: C8_10  and  C9_11 
REMARK       I    between atoms: C9_11  and  N2_13 
REMARK    4  A    between atoms: N2_13  and  N3_14 
REMARK       I    between atoms: N3_14  and  C10_15 
REMARK    5  A    between atoms: C10_15  and  C11_17 
REMARK    6  A    between atoms: C16_22  and  O4_23 
ROOT
ATOM      1  C9  NON d   1     -42.646  17.760  -3.662  0.00  0.00     0.253 C 
ATOM      2  O2  NON d   1     -42.684  17.633  -2.438  0.00  0.00    -0.270 OA
ATOM      3  N2  NON d   1     -43.687  17.426  -4.508  0.00  0.00    -0.266 N 
ATOM      4  H10 NON d   1     -43.653  17.536  -5.521  0.00  0.00     0.190 HD
ENDROOT
BRANCH   1   5
ATOM      5  C8  NON d   1     -41.430  18.305  -4.412  0.00  0.00     0.227 C 
BRANCH   5   6
ATOM      6  N1  NON d   1     -41.104  19.684  -4.078  0.00  0.00    -0.348 N 
ATOM      7  C7  NON d   1     -41.124  20.645  -5.069  0.00  0.00     0.252 C 
ATOM      8  O1  NON d   1     -41.431  20.355  -6.225  0.00  0.00    -0.268 OA
ATOM      9  H7  NON d   1     -40.835  19.875  -3.121  0.00  0.00     0.163 HD
BRANCH   7  10
ATOM     10  C6  NON d   1     -40.760  22.059  -4.735  0.00  0.00     0.032 A 
ATOM     11  C5  NON d   1     -40.060  22.793  -5.705  0.00  0.00     0.017 A 
ATOM     12  C4  NON d   1     -39.683  24.120  -5.472  0.00  0.00     0.002 A 
ATOM     13  C3  NON d   1     -39.990  24.736  -4.259  0.00  0.00     0.007 A 
ATOM     14  C2  NON d   1     -40.669  24.023  -3.269  0.00  0.00    -0.061 A 
ATOM     15  C1  NON d   1     -41.063  24.640  -1.914  0.00  0.00     0.048 C 
ATOM     16  C17 NON d   1     -41.070  22.687  -3.523  0.00  0.00     0.023 A 
ENDBRANCH   7  10
ENDBRANCH   5   6
ENDBRANCH   1   5
BRANCH   3  17
ATOM     17  N3  NON d   1     -44.883  16.917  -3.994  0.00  0.00    -0.263 N 
ATOM     18  C10 NON d   1     -45.987  16.878  -4.823  0.00  0.00     0.272 C 
ATOM     19  O3  NON d   1     -45.931  17.264  -5.990  0.00  0.00    -0.266 OA
ATOM     20  H11 NON d   1     -44.912  16.608  -3.021  0.00  0.00     0.190 HD
BRANCH  18  21
ATOM     21  C11 NON d   1     -47.265  16.343  -4.255  0.00  0.00     0.066 A 
ATOM     22  C12 NON d   1     -47.622  16.770  -2.963  0.00  0.00     0.020 A 
ATOM     23  C13 NON d   1     -48.797  16.318  -2.356  0.00  0.00     0.001 A 
ATOM     24  C14 NON d   1     -49.632  15.434  -3.033  0.00  0.00     0.003 A 
ATOM     25  C15 NON d   1     -49.295  15.000  -4.316  0.00  0.00     0.037 A 
ATOM     26  C16 NON d   1     -48.117  15.453  -4.924  0.00  0.00     0.081 A 
BRANCH  26  27
ATOM     27  O4  NON d   1     -47.815  15.007  -6.184  0.00  0.00    -0.360 OA
ATOM     28  H16 NON d   1     -47.535  15.764  -6.729  0.00  0.00     0.217 HD
ENDBRANCH  26  27
ENDBRANCH  18  21
ENDBRANCH   3  17
TORSDOF 6
ENDMDL
MODEL 5
REMARK VINA RESULT:   -13.340      3.345     10.106
REMARK INTER + INTRA:         -16.069
REMARK INTER:                 -15.130
REMARK INTRA:                  -0.939
REMARK CONF_INDEPENDENT:        1.790
REMARK UNBOUND:                -0.939
REMARK  6 active torsions:
REMARK  status: ('A' for Active; 'I' for Inactive)
REMARK    1  A    between atoms: C6_6  and  C7_7 
REMARK       I    between atoms: C7_7  and  N1_9 
REMARK    2  A    between atoms: N1_9  and  C8_10 
REMARK    3  A    between atoms: C8_10  and  C9_11 
REMARK       I    between atoms: C9_11  and  N2_13 
REMARK    4  A    between atoms: N2_13  and  N3_14 
REMARK       I    between atoms: N3_14  and  C10_15 
REMARK    5  A    between atoms: C10_15  and  C11_17 
REMARK    6  A    between atoms: C16_22  and  O4_23 
ROOT
ATOM      1  C9  NON d   1     -47.718  15.933  -4.581  0.00  0.00     0.253 C 
ATOM      2  O2  NON d   1     -47.568  16.562  -5.628  0.00  0.00    -0.270 OA
ATOM      3  N2  NON d   1     -46.847  15.991  -3.510  0.00  0.00    -0.266 N 
ATOM      4  H10 NON d   1     -46.978  15.471  -2.642  0.00  0.00     0.190 HD
ENDROOT
BRANCH   1   5
ATOM      5  C8  NON d   1     -48.899  14.994  -4.330  0.00  0.00     0.227 C 
BRANCH   5   6
ATOM      6  N1  NON d   1     -50.065  15.656  -3.762  0.00  0.00    -0.348 N 
ATOM      7  C7  NON d   1     -49.979  16.218  -2.503  0.00  0.00     0.252 C 
ATOM      8  O1  NON d   1     -48.929  16.182  -1.864  0.00  0.00    -0.268 OA
ATOM      9  H7  NON d   1     -50.915  15.642  -4.310  0.00  0.00     0.163 HD
BRANCH   7  10
ATOM     10  C6  NON d   1     -51.187  16.873  -1.904  0.00  0.00     0.032 A 
ATOM     11  C5  NON d   1     -50.998  17.630  -0.737  0.00  0.00     0.017 A 
ATOM     12  C4  NON d   1     -52.073  18.275  -0.115  0.00  0.00     0.002 A 
ATOM     13  C3  NON d   1     -53.359  18.167  -0.642  0.00  0.00     0.007 A 
ATOM     14  C2  NON d   1     -53.578  17.404  -1.791  0.00  0.00    -0.061 A 
ATOM     15  C1  NON d   1     -54.964  17.255  -2.446  0.00  0.00     0.048 C 
ATOM     16  C17 NON d   1     -52.480  16.775  -2.430  0.00  0.00     0.023 A 
ENDBRANCH   7  10
ENDBRANCH   5   6
ENDBRANCH   1   5
BRANCH   3  17
ATOM     17  N3  NON d   1     -45.713  16.805  -3.562  0.00  0.00    -0.263 N 
ATOM     18  C10 NON d   1     -44.978  16.830  -4.730  0.00  0.00     0.272 C 
ATOM     19  O3  NON d   1     -45.308  16.168  -5.713  0.00  0.00    -0.266 OA
ATOM     20  H11 NON d   1     -45.450  17.342  -2.733  0.00  0.00     0.190 HD
BRANCH  18  21
ATOM     21  C11 NON d   1     -43.757  17.697  -4.767  0.00  0.00     0.066 A 
ATOM     22  C12 NON d   1     -42.592  17.192  -4.163  0.00  0.00     0.020 A 
ATOM     23  C13 NON d   1     -41.409  17.936  -4.149  0.00  0.00     0.001 A 
ATOM     24  C14 NON d   1     -41.375  19.196  -4.740  0.00  0.00     0.003 A 
ATOM     25  C15 NON d   1     -42.521  19.713  -5.345  0.00  0.00     0.037 A 
ATOM     26  C16 NON d   1     -43.707  18.968  -5.358  0.00  0.00     0.081 A 
BRANCH  26  27
ATOM     27  O4  NON d   1     -44.815  19.505  -5.959  0.00  0.00    -0.360 OA
ATOM     28  H16 NON d   1     -45.611  19.077  -5.597  0.00  0.00     0.217 HD
ENDBRANCH  26  27
ENDBRANCH  18  21
ENDBRANCH   3  17
TORSDOF 6
ENDMDL
MODEL 6
REMARK VINA RESULT:   -13.219      3.353     10.200
REMARK INTER + INTRA:         -15.931
REMARK INTER:                 -15.009
REMARK INTRA:                  -0.922
REMARK CONF_INDEPENDENT:        1.790
REMARK UNBOUND:                -0.922
REMARK  6 active torsions:
REMARK  status: ('A' for Active; 'I' for Inactive)
REMARK    1  A    between atoms: C6_6  and  C7_7 
REMARK       I    between atoms: C7_7  and  N1_9 
REMARK    2  A    between atoms: N1_9  and  C8_10 
REMARK    3  A    between atoms: C8_10  and  C9_11 
REMARK       I    between atoms: C9_11  and  N2_13 
REMARK    4  A    between atoms: N2_13  and  N3_14 
REMARK       I    between atoms: N3_14  and  C10_15 
REMARK    5  A    between atoms: C10_15  and  C11_17 
REMARK    6  A    between atoms: C16_22  and  O4_23 
ROOT
ATOM      1  C9  NON d   1     -47.477  15.655  -4.853  0.00  0.00     0.253 C 
ATOM      2  O2  NON d   1     -46.755  15.379  -5.811  0.00  0.00    -0.270 OA
ATOM      3  N2  NON d   1     -47.062  16.380  -3.752  0.00  0.00    -0.266 N 
ATOM      4  H10 NON d   1     -47.666  16.610  -2.963  0.00  0.00     0.190 HD
ENDROOT
BRANCH   1   5
ATOM      5  C8  NON d   1     -48.941  15.221  -4.755  0.00  0.00     0.227 C 
BRANCH   5   6
ATOM      6  N1  NON d   1     -49.756  16.093  -3.922  0.00  0.00    -0.348 N 
ATOM      7  C7  NON d   1     -50.788  15.553  -3.181  0.00  0.00     0.252 C 
ATOM      8  O1  NON d   1     -51.016  14.344  -3.201  0.00  0.00    -0.268 OA
ATOM      9  H7  NON d   1     -49.551  17.084  -3.953  0.00  0.00     0.163 HD
BRANCH   7  10
ATOM     10  C6  NON d   1     -51.648  16.452  -2.346  0.00  0.00     0.032 A 
ATOM     11  C5  NON d   1     -53.020  16.488  -2.638  0.00  0.00     0.017 A 
ATOM     12  C4  NON d   1     -53.892  17.301  -1.906  0.00  0.00     0.002 A 
ATOM     13  C3  NON d   1     -53.407  18.102  -0.873  0.00  0.00     0.007 A 
ATOM     14  C2  NON d   1     -52.043  18.101  -0.574  0.00  0.00    -0.061 A 
ATOM     15  C1  NON d   1     -51.434  18.940   0.565  0.00  0.00     0.048 C 
ATOM     16  C17 NON d   1     -51.170  17.255  -1.304  0.00  0.00     0.023 A 
ENDBRANCH   7  10
ENDBRANCH   5   6
ENDBRANCH   1   5
BRANCH   3  17
ATOM     17  N3  NON d   1     -45.754  16.864  -3.674  0.00  0.00    -0.263 N 
ATOM     18  C10 NON d   1     -45.216  17.478  -4.788  0.00  0.00     0.272 C 
ATOM     19  O3  NON d   1     -45.864  17.615  -5.825  0.00  0.00    -0.266 OA
ATOM     20  H11 NON d   1     -45.229  16.735  -2.808  0.00  0.00     0.190 HD
BRANCH  18  21
ATOM     21  C11 NON d   1     -43.808  17.979  -4.695  0.00  0.00     0.066 A 
ATOM     22  C12 NON d   1     -43.485  19.130  -5.435  0.00  0.00     0.020 A 
ATOM     23  C13 NON d   1     -42.194  19.664  -5.407  0.00  0.00     0.001 A 
ATOM     24  C14 NON d   1     -41.207  19.053  -4.638  0.00  0.00     0.003 A 
ATOM     25  C15 NON d   1     -41.509  17.911  -3.896  0.00  0.00     0.037 A 
ATOM     26  C16 NON d   1     -42.803  17.376  -3.924  0.00  0.00     0.081 A 
BRANCH  26  27
ATOM     27  O4  NON d   1     -43.066  16.253  -3.185  0.00  0.00    -0.360 OA
ATOM     28  H16 NON d   1     -43.993  15.990  -3.326  0.00  0.00     0.217 HD
ENDBRANCH  26  27
ENDBRANCH  18  21
ENDBRANCH   3  17
TORSDOF 6
ENDMDL
