MODEL 1
REMARK VINA RESULT:   -30.530      0.000      0.000
REMARK INTER + INTRA:         -34.096
REMARK INTER:                 -32.618
REMARK INTRA:                  -1.477
REMARK CONF_INDEPENDENT:        2.088
REMARK UNBOUND:                -1.477
REMARK  7 active torsions:
REMARK  status: ('A' for Active; 'I' for Inactive)
REMARK    1  A    between atoms: O1_2  and  C2_3 
REMARK    2  A    between atoms: C3_5  and  C2_3 
REMARK    3  A    between atoms: C3_5  and  C4_6 
REMARK    4  A    between atoms: C3_5  and  N1_14 
REMARK    5  A    between atoms: C4_6  and  C5_7 
REMARK    6  A    between atoms: C8_10  and  O3_11 
REMARK    7  A    between atoms: C11_15  and  N1_14 
ROOT
ATOM      1  C3  NON d   1     -42.697  17.645  -4.173  0.00  0.00     0.185 C 
ENDROOT
BRANCH   1   2
ATOM      2  C2  NON d   1     -41.815  17.926  -2.903  0.00  0.00     0.281 C 
ATOM      3  O2  NON d   1     -42.218  18.298  -1.806  0.00  0.00    -0.263 OA
BRANCH   2   4
ATOM      4  O1  NON d   1     -40.494  17.628  -3.121  0.00  0.00    -0.325 OA
ATOM      5  C1  NON d   1     -39.553  18.573  -2.602  0.00  0.00     0.213 C 
ENDBRANCH   2   4
ENDBRANCH   1   2
BRANCH   1   6
ATOM      6  C4  NON d   1     -41.956  18.175  -5.436  0.00  0.00     0.073 C 
BRANCH   6   7
ATOM      7  C5  NON d   1     -41.410  19.584  -5.561  0.00  0.00    -0.056 A 
ATOM      8  C6  NON d   1     -40.759  19.915  -6.771  0.00  0.00     0.010 A 
ATOM      9  C7  NON d   1     -40.125  21.147  -6.949  0.00  0.00     0.037 A 
ATOM     10  C8  NON d   1     -40.122  22.060  -5.905  0.00  0.00     0.065 A 
ATOM     11  C9  NON d   1     -40.772  21.771  -4.716  0.00  0.00     0.037 A 
ATOM     12  C10 NON d   1     -41.429  20.545  -4.550  0.00  0.00     0.010 A 
BRANCH  10  13
ATOM     13  O3  NON d   1     -39.483  23.258  -6.011  0.00  0.00    -0.361 OA
ATOM     14  H9  NON d   1     -39.170  23.515  -5.129  0.00  0.00     0.217 HD
ENDBRANCH  10  13
ENDBRANCH   6   7
ENDBRANCH   1   6
BRANCH   1  15
ATOM     15  N1  NON d   1     -44.045  18.262  -4.045  0.00  0.00    -0.384 N 
ATOM     16  H12 NON d   1     -44.396  18.701  -4.906  0.00  0.00     0.159 HD
BRANCH  15  17
ATOM     17  C11 NON d   1     -45.125  17.641  -3.416  0.00  0.00     0.106 C 
ATOM     18  C12 NON d   1     -46.221  17.059  -3.947  0.00  0.00     0.117 C 
ATOM     19  C13 NON d   1     -47.271  16.588  -3.025  0.00  0.00     0.268 C 
ATOM     20  C16 NON d   1     -46.411  16.896  -5.410  0.00  0.00     0.288 C 
ATOM     21  O4  NON d   1     -47.141  16.596  -1.799  0.00  0.00    -0.267 OA
ATOM     22  N2  NON d   1     -48.416  16.168  -3.676  0.00  0.00    -0.268 N 
ATOM     23  C14 NON d   1     -49.642  15.880  -2.790  0.00  0.00     0.164 C 
ATOM     24  C15 NON d   1     -48.438  15.784  -5.020  0.00  0.00     0.354 C 
ATOM     25  O5  NON d   1     -49.385  15.111  -5.436  0.00  0.00    -0.244 OA
ATOM     26  N3  NON d   1     -47.422  16.131  -5.809  0.00  0.00    -0.153 NA
ATOM     27  O6  NON d   1     -45.600  17.409  -6.183  0.00  0.00    -0.265 OA
ENDBRANCH  15  17
ENDBRANCH   1  15
TORSDOF 7
ENDMDL
MODEL 2
REMARK VINA RESULT:   -30.230      1.127      1.338
REMARK INTER + INTRA:         -33.859
REMARK INTER:                 -32.318
REMARK INTRA:                  -1.541
REMARK CONF_INDEPENDENT:        2.088
REMARK UNBOUND:                -1.541
REMARK  7 active torsions:
REMARK  status: ('A' for Active; 'I' for Inactive)
REMARK    1  A    between atoms: O1_2  and  C2_3 
REMARK    2  A    between atoms: C3_5  and  C2_3 
REMARK    3  A    between atoms: C3_5  and  C4_6 
REMARK    4  A    between atoms: C3_5  and  N1_14 
REMARK    5  A    between atoms: C4_6  and  C5_7 
REMARK    6  A    between atoms: C8_10  and  O3_11 
REMARK    7  A    between atoms: C11_15  and  N1_14 
ROOT
ATOM      1  C3  NON d   1     -42.661  17.697  -4.018  0.00  0.00     0.185 C 
ENDROOT
BRANCH   1   2
ATOM      2  C2  NON d   1     -41.728  18.554  -3.089  0.00  0.00     0.281 C 
ATOM      3  O2  NON d   1     -41.421  19.730  -3.252  0.00  0.00    -0.263 OA
BRANCH   2   4
ATOM      4  O1  NON d   1     -41.328  17.856  -1.978  0.00  0.00    -0.325 OA
ATOM      5  C1  NON d   1     -40.018  17.285  -2.045  0.00  0.00     0.213 C 
ENDBRANCH   2   4
ENDBRANCH   1   2
BRANCH   1   6
ATOM      6  C4  NON d   1     -42.047  17.644  -5.448  0.00  0.00     0.073 C 
BRANCH   6   7
ATOM      7  C5  NON d   1     -41.121  18.708  -6.005  0.00  0.00    -0.056 A 
ATOM      8  C6  NON d   1     -41.726  19.840  -6.596  0.00  0.00     0.010 A 
ATOM      9  C7  NON d   1     -40.970  20.826  -7.236  0.00  0.00     0.037 A 
ATOM     10  C8  NON d   1     -39.593  20.678  -7.306  0.00  0.00     0.065 A 
ATOM     11  C9  NON d   1     -38.971  19.590  -6.715  0.00  0.00     0.037 A 
ATOM     12  C10 NON d   1     -39.729  18.617  -6.052  0.00  0.00     0.010 A 
BRANCH  10  13
ATOM     13  O3  NON d   1     -38.813  21.588  -7.954  0.00  0.00    -0.361 OA
ATOM     14  H9  NON d   1     -39.111  21.642  -8.876  0.00  0.00     0.217 HD
ENDBRANCH  10  13
ENDBRANCH   6   7
ENDBRANCH   1   6
BRANCH   1  15
ATOM     15  N1  NON d   1     -44.045  18.241  -4.048  0.00  0.00    -0.384 N 
ATOM     16  H12 NON d   1     -44.358  18.556  -4.975  0.00  0.00     0.159 HD
BRANCH  15  17
ATOM     17  C11 NON d   1     -45.132  17.632  -3.418  0.00  0.00     0.106 C 
ATOM     18  C12 NON d   1     -46.231  17.057  -3.949  0.00  0.00     0.117 C 
ATOM     19  C13 NON d   1     -47.287  16.599  -3.027  0.00  0.00     0.268 C 
ATOM     20  C16 NON d   1     -46.420  16.889  -5.412  0.00  0.00     0.288 C 
ATOM     21  O4  NON d   1     -47.160  16.611  -1.801  0.00  0.00    -0.267 OA
ATOM     22  N2  NON d   1     -48.434  16.185  -3.679  0.00  0.00    -0.268 N 
ATOM     23  C14 NON d   1     -49.665  15.911  -2.794  0.00  0.00     0.164 C 
ATOM     24  C15 NON d   1     -48.456  15.796  -5.021  0.00  0.00     0.354 C 
ATOM     25  O5  NON d   1     -49.408  15.128  -5.436  0.00  0.00    -0.244 OA
ATOM     26  N3  NON d   1     -47.436  16.131  -5.810  0.00  0.00    -0.153 NA
ATOM     27  O6  NON d   1     -45.603  17.391  -6.186  0.00  0.00    -0.265 OA
ENDBRANCH  15  17
ENDBRANCH   1  15
TORSDOF 7
ENDMDL
MODEL 3
REMARK VINA RESULT:   -29.518      2.098      2.875
REMARK INTER + INTRA:         -33.330
REMARK INTER:                 -31.606
REMARK INTRA:                  -1.723
REMARK CONF_INDEPENDENT:        2.088
REMARK UNBOUND:                -1.723
REMARK  7 active torsions:
REMARK  status: ('A' for Active; 'I' for Inactive)
REMARK    1  A    between atoms: O1_2  and  C2_3 
REMARK    2  A    between atoms: C3_5  and  C2_3 
REMARK    3  A    between atoms: C3_5  and  C4_6 
REMARK    4  A    between atoms: C3_5  and  N1_14 
REMARK    5  A    between atoms: C4_6  and  C5_7 
REMARK    6  A    between atoms: C8_10  and  O3_11 
REMARK    7  A    between atoms: C11_15  and  N1_14 
ROOT
ATOM      1  C3  NON d   1     -42.995  18.449  -4.424  0.00  0.00     0.185 C 
ENDROOT
BRANCH   1   2
ATOM      2  C2  NON d   1     -42.729  17.111  -5.205  0.00  0.00     0.281 C 
ATOM      3  O2  NON d   1     -43.464  16.130  -5.240  0.00  0.00    -0.263 OA
BRANCH   2   4
ATOM      4  O1  NON d   1     -41.576  17.171  -5.947  0.00  0.00    -0.325 OA
ATOM      5  C1  NON d   1     -41.003  18.474  -6.094  0.00  0.00     0.213 C 
ENDBRANCH   2   4
ENDBRANCH   1   2
BRANCH   1   6
ATOM      6  C4  NON d   1     -42.329  18.359  -3.019  0.00  0.00     0.073 C 
BRANCH   6   7
ATOM      7  C5  NON d   1     -40.836  18.490  -2.787  0.00  0.00    -0.056 A 
ATOM      8  C6  NON d   1     -40.260  19.760  -3.013  0.00  0.00     0.010 A 
ATOM      9  C7  NON d   1     -38.880  19.964  -2.935  0.00  0.00     0.037 A 
ATOM     10  C8  NON d   1     -38.056  18.887  -2.645  0.00  0.00     0.065 A 
ATOM     11  C9  NON d   1     -38.595  17.635  -2.396  0.00  0.00     0.037 A 
ATOM     12  C10 NON d   1     -39.981  17.440  -2.450  0.00  0.00     0.010 A 
BRANCH  10  13
ATOM     13  O3  NON d   1     -36.701  19.022  -2.598  0.00  0.00    -0.361 OA
ATOM     14  H9  NON d   1     -36.447  19.216  -1.682  0.00  0.00     0.217 HD
ENDBRANCH  10  13
ENDBRANCH   6   7
ENDBRANCH   1   6
BRANCH   1  15
ATOM     15  N1  NON d   1     -44.451  18.730  -4.311  0.00  0.00    -0.384 N 
ATOM     16  H12 NON d   1     -44.885  19.085  -5.173  0.00  0.00     0.159 HD
BRANCH  15  17
ATOM     17  C11 NON d   1     -45.363  17.864  -3.704  0.00  0.00     0.106 C 
ATOM     18  C12 NON d   1     -46.351  17.124  -4.249  0.00  0.00     0.117 C 
ATOM     19  C13 NON d   1     -47.248  16.388  -3.339  0.00  0.00     0.268 C 
ATOM     20  C16 NON d   1     -46.576  17.042  -5.714  0.00  0.00     0.288 C 
ATOM     21  O4  NON d   1     -47.065  16.325  -2.121  0.00  0.00    -0.267 OA
ATOM     22  N2  NON d   1     -48.321  15.806  -3.988  0.00  0.00    -0.268 N 
ATOM     23  C14 NON d   1     -49.427  15.217  -3.091  0.00  0.00     0.164 C 
ATOM     24  C15 NON d   1     -48.333  15.532  -5.358  0.00  0.00     0.354 C 
ATOM     25  O5  NON d   1     -49.153  14.722  -5.801  0.00  0.00    -0.244 OA
ATOM     26  N3  NON d   1     -47.440  16.130  -6.146  0.00  0.00    -0.153 NA
ATOM     27  O6  NON d   1     -45.914  17.761  -6.465  0.00  0.00    -0.265 OA
ENDBRANCH  15  17
ENDBRANCH   1  15
TORSDOF 7
ENDMDL
