MODEL 1
REMARK VINA RESULT:   -15.536      0.000      0.000
REMARK INTER + INTRA:         -18.362
REMARK INTER:                 -17.923
REMARK INTRA:                  -0.439
REMARK CONF_INDEPENDENT:        2.386
REMARK UNBOUND:                -0.439
REMARK  8 active torsions:
REMARK  status: ('A' for Active; 'I' for Inactive)
REMARK    1  A    between atoms: C2_2  and  O1_3 
REMARK    2  A    between atoms: C2_2  and  C9_11 
REMARK    3  A    between atoms: O1_3  and  C3_4 
REMARK       I    between atoms: C9_11  and  N1_13 
REMARK    4  A    between atoms: N1_13  and  N2_14 
REMARK       I    between atoms: N2_14  and  C10_15 
REMARK    5  A    between atoms: C10_15  and  C11_17 
REMARK    6  A    between atoms: C11_17  and  N3_18 
REMARK       I    between atoms: N3_18  and  C12_19 
REMARK       I    between atoms: C12_19  and  N4_21 
REMARK    7  A    between atoms: N4_21  and  C13_22 
REMARK    8  A    between atoms: C13_22  and  C14_23 
ROOT
ATOM      1  N2  NON d   1     -47.290  15.725  -3.706  0.00  0.00    -0.266 N 
ATOM      2  C10 NON d   1     -48.099  15.680  -4.845  0.00  0.00     0.253 C 
ATOM      3  O3  NON d   1     -47.889  16.402  -5.823  0.00  0.00    -0.270 OA
ATOM      4  H10 NON d   1     -47.457  15.163  -2.871  0.00  0.00     0.190 HD
ENDROOT
BRANCH   1   5
ATOM      5  N1  NON d   1     -46.101  16.542  -3.682  0.00  0.00    -0.265 N 
ATOM      6  C9  NON d   1     -45.279  16.594  -4.814  0.00  0.00     0.265 C 
ATOM      7  O2  NON d   1     -45.563  15.921  -5.810  0.00  0.00    -0.269 OA
ATOM      8  H9  NON d   1     -45.858  16.923  -2.771  0.00  0.00     0.190 HD
BRANCH   6   9
ATOM      9  C2  NON d   1     -44.064  17.631  -4.828  0.00  0.00     0.218 C 
ATOM     10  C1  NON d   1     -44.399  19.046  -5.334  0.00  0.00     0.050 C 
BRANCH   9  11
ATOM     11  O1  NON d   1     -43.438  17.776  -3.526  0.00  0.00    -0.337 OA
BRANCH  11  12
ATOM     12  C3  NON d   1     -42.095  18.093  -3.556  0.00  0.00     0.070 A 
ATOM     13  C4  NON d   1     -41.303  18.173  -2.398  0.00  0.00     0.040 A 
ATOM     14  C5  NON d   1     -39.943  18.486  -2.476  0.00  0.00     0.045 A 
ATOM     15  C6  NON d   1     -39.353  18.645  -3.720  0.00  0.00     0.116 A 
ATOM     16  F1  NON d   1     -38.046  18.923  -3.800  0.00  0.00    -0.206 F 
ATOM     17  C7  NON d   1     -40.103  18.490  -4.881  0.00  0.00     0.045 A 
ATOM     18  C8  NON d   1     -41.475  18.215  -4.800  0.00  0.00     0.040 A 
ENDBRANCH  11  12
ENDBRANCH   9  11
ENDBRANCH   6   9
ENDBRANCH   1   5
BRANCH   2  19
ATOM     19  C11 NON d   1     -49.253  14.633  -4.800  0.00  0.00     0.228 C 
BRANCH  19  20
ATOM     20  N3  NON d   1     -50.363  14.873  -3.850  0.00  0.00    -0.334 N 
ATOM     21  C12 NON d   1     -50.440  16.080  -3.187  0.00  0.00     0.316 C 
ATOM     22  O4  NON d   1     -49.576  16.938  -3.276  0.00  0.00    -0.247 OA
ATOM     23  N4  NON d   1     -51.584  16.219  -2.406  0.00  0.00    -0.343 N 
ATOM     24  H14 NON d   1     -51.961  15.348  -2.065  0.00  0.00     0.164 HD
ATOM     25  H13 NON d   1     -51.225  14.376  -4.014  0.00  0.00     0.164 HD
BRANCH  23  26
ATOM     26  C13 NON d   1     -51.687  17.368  -1.499  0.00  0.00     0.129 C 
BRANCH  26  27
ATOM     27  C14 NON d   1     -53.073  17.631  -0.877  0.00  0.00     0.003 C 
ATOM     28  C15 NON d   1     -54.184  17.631  -1.942  0.00  0.00     0.006 C 
ATOM     29  C16 NON d   1     -55.361  18.377  -1.316  0.00  0.00     0.000 C 
ATOM     30  C17 NON d   1     -54.773  19.215  -0.185  0.00  0.00     0.000 C 
ATOM     31  C18 NON d   1     -53.259  19.007  -0.239  0.00  0.00     0.006 C 
ENDBRANCH  26  27
ENDBRANCH  23  26
ENDBRANCH  19  20
ENDBRANCH   2  19
TORSDOF 8
ENDMDL
MODEL 2
REMARK VINA RESULT:   -12.719      3.944     10.899
REMARK INTER + INTRA:         -16.140
REMARK INTER:                 -15.106
REMARK INTRA:                  -1.035
REMARK CONF_INDEPENDENT:        2.386
REMARK UNBOUND:                -1.035
REMARK  8 active torsions:
REMARK  status: ('A' for Active; 'I' for Inactive)
REMARK    1  A    between atoms: C2_2  and  O1_3 
REMARK    2  A    between atoms: C2_2  and  C9_11 
REMARK    3  A    between atoms: O1_3  and  C3_4 
REMARK       I    between atoms: C9_11  and  N1_13 
REMARK    4  A    between atoms: N1_13  and  N2_14 
REMARK       I    between atoms: N2_14  and  C10_15 
REMARK    5  A    between atoms: C10_15  and  C11_17 
REMARK    6  A    between atoms: C11_17  and  N3_18 
REMARK       I    between atoms: N3_18  and  C12_19 
REMARK       I    between atoms: C12_19  and  N4_21 
REMARK    7  A    between atoms: N4_21  and  C13_22 
REMARK    8  A    between atoms: C13_22  and  C14_23 
ROOT
ATOM      1  N2  NON d   1     -45.621  16.474  -3.753  0.00  0.00    -0.266 N 
ATOM      2  C10 NON d   1     -45.174  17.085  -4.929  0.00  0.00     0.253 C 
ATOM      3  O3  NON d   1     -45.953  17.451  -5.812  0.00  0.00    -0.270 OA
ATOM      4  H10 NON d   1     -44.998  16.133  -3.021  0.00  0.00     0.190 HD
ENDROOT
BRANCH   1   5
ATOM      5  N1  NON d   1     -47.032  16.355  -3.480  0.00  0.00    -0.265 N 
ATOM      6  C9  NON d   1     -47.889  15.879  -4.479  0.00  0.00     0.265 C 
ATOM      7  O2  NON d   1     -47.434  15.590  -5.591  0.00  0.00    -0.269 OA
ATOM      8  H9  NON d   1     -47.339  16.771  -2.604  0.00  0.00     0.190 HD
BRANCH   6   9
ATOM      9  C2  NON d   1     -49.416  15.595  -4.105  0.00  0.00     0.218 C 
ATOM     10  C1  NON d   1     -49.989  14.255  -4.603  0.00  0.00     0.050 C 
BRANCH   9  11
ATOM     11  O1  NON d   1     -49.663  15.664  -2.676  0.00  0.00    -0.337 OA
BRANCH  11  12
ATOM     12  C3  NON d   1     -50.848  16.273  -2.317  0.00  0.00     0.070 A 
ATOM     13  C4  NON d   1     -52.098  15.861  -2.810  0.00  0.00     0.040 A 
ATOM     14  C5  NON d   1     -53.276  16.499  -2.410  0.00  0.00     0.045 A 
ATOM     15  C6  NON d   1     -53.214  17.502  -1.456  0.00  0.00     0.116 A 
ATOM     16  F1  NON d   1     -54.342  18.100  -1.053  0.00  0.00    -0.206 F 
ATOM     17  C7  NON d   1     -51.995  17.869  -0.896  0.00  0.00     0.045 A 
ATOM     18  C8  NON d   1     -50.810  17.255  -1.327  0.00  0.00     0.040 A 
ENDBRANCH  11  12
ENDBRANCH   9  11
ENDBRANCH   6   9
ENDBRANCH   1   5
BRANCH   2  19
ATOM     19  C11 NON d   1     -43.632  17.300  -5.021  0.00  0.00     0.228 C 
BRANCH  19  20
ATOM     20  N3  NON d   1     -43.129  18.692  -4.989  0.00  0.00    -0.334 N 
ATOM     21  C12 NON d   1     -41.786  18.934  -5.187  0.00  0.00     0.316 C 
ATOM     22  O4  NON d   1     -40.964  18.038  -5.297  0.00  0.00    -0.247 OA
ATOM     23  N4  NON d   1     -41.461  20.286  -5.237  0.00  0.00    -0.343 N 
ATOM     24  H14 NON d   1     -42.084  20.882  -4.713  0.00  0.00     0.164 HD
ATOM     25  H13 NON d   1     -43.776  19.421  -5.247  0.00  0.00     0.164 HD
BRANCH  23  26
ATOM     26  C13 NON d   1     -40.045  20.675  -5.243  0.00  0.00     0.129 C 
BRANCH  26  27
ATOM     27  C14 NON d   1     -39.291  20.506  -6.577  0.00  0.00     0.003 C 
ATOM     28  C15 NON d   1     -40.236  20.643  -7.785  0.00  0.00     0.006 C 
ATOM     29  C16 NON d   1     -39.514  19.975  -8.954  0.00  0.00     0.000 C 
ATOM     30  C17 NON d   1     -38.476  19.046  -8.333  0.00  0.00     0.000 C 
ATOM     31  C18 NON d   1     -38.681  19.126  -6.819  0.00  0.00     0.006 C 
ENDBRANCH  26  27
ENDBRANCH  23  26
ENDBRANCH  19  20
ENDBRANCH   2  19
TORSDOF 8
ENDMDL
