MODEL 1
REMARK VINA RESULT:   -14.069      0.000      0.000
REMARK INTER + INTRA:         -18.057
REMARK INTER:                 -16.753
REMARK INTRA:                  -1.304
REMARK CONF_INDEPENDENT:        2.685
REMARK UNBOUND:                -1.304
REMARK  9 active torsions:
REMARK  status: ('A' for Active; 'I' for Inactive)
REMARK    1  A    between atoms: C2_2  and  C3_3 
REMARK    2  A    between atoms: C3_3  and  C4_4 
REMARK       I    between atoms: C4_4  and  N1_6 
REMARK    3  A    between atoms: N1_6  and  C5_7 
REMARK    4  A    between atoms: C9_11  and  N2_12 
REMARK    5  A    between atoms: N2_12  and  C10_13 
REMARK    6  A    between atoms: C10_13  and  C11_14 
REMARK       I    between atoms: C11_14  and  N3_16 
REMARK    7  A    between atoms: N3_16  and  C12_17 
REMARK    8  A    between atoms: C15_20  and  N4_21 
REMARK       I    between atoms: N4_21  and  C16_22 
REMARK    9  A    between atoms: C16_22  and  C17_24 
ROOT
ATOM      1  C11 NON d   1     -39.234  18.769  -7.808  0.00  0.00     0.239 C 
ATOM      2  O2  NON d   1     -39.628  17.837  -8.509  0.00  0.00    -0.271 OA
ATOM      3  N3  NON d   1     -39.899  19.256  -6.666  0.00  0.00    -0.326 N 
ATOM      4  H15 NON d   1     -39.437  20.007  -6.165  0.00  0.00     0.169 HD
ENDROOT
BRANCH   3   5
ATOM      5  C12 NON d   1     -41.150  18.831  -6.089  0.00  0.00     0.034 A 
ATOM      6  C13 NON d   1     -42.206  19.754  -6.000  0.00  0.00     0.032 A 
ATOM      7  C14 NON d   1     -43.483  19.417  -5.447  0.00  0.00     0.032 A 
ATOM      8  C15 NON d   1     -43.771  18.137  -4.956  0.00  0.00     0.035 A 
ATOM      9  C24 NON d   1     -42.706  17.215  -5.046  0.00  0.00     0.032 A 
ATOM     10  C25 NON d   1     -41.427  17.557  -5.598  0.00  0.00     0.032 A 
BRANCH   8  11
ATOM     11  N4  NON d   1     -45.041  17.707  -4.384  0.00  0.00    -0.323 N 
ATOM     12  C16 NON d   1     -45.863  16.658  -4.834  0.00  0.00     0.256 C 
ATOM     13  O3  NON d   1     -45.565  15.967  -5.810  0.00  0.00    -0.267 OA
ATOM     14  H18 NON d   1     -45.348  18.228  -3.577  0.00  0.00     0.169 HD
BRANCH  12  15
ATOM     15  C17 NON d   1     -47.201  16.306  -4.126  0.00  0.00     0.032 A 
ATOM     16  C18 NON d   1     -48.059  15.437  -4.825  0.00  0.00     0.017 A 
ATOM     17  C19 NON d   1     -49.306  15.019  -4.308  0.00  0.00     0.002 A 
ATOM     18  C20 NON d   1     -49.771  15.454  -3.063  0.00  0.00     0.007 A 
ATOM     19  C21 NON d   1     -48.991  16.331  -2.325  0.00  0.00    -0.061 A 
ATOM     20  C22 NON d   1     -49.363  16.880  -0.935  0.00  0.00     0.048 C 
ATOM     21  C23 NON d   1     -47.686  16.734  -2.869  0.00  0.00     0.023 A 
ENDBRANCH  12  15
ENDBRANCH   8  11
ENDBRANCH   3   5
BRANCH   1  22
ATOM     22  C10 NON d   1     -37.860  19.493  -8.114  0.00  0.00     0.223 C 
BRANCH  22  23
ATOM     23  N2  NON d   1     -37.955  20.579  -9.135  0.00  0.00    -0.381 N 
ATOM     24  H12 NON d   1     -37.101  20.677  -9.680  0.00  0.00     0.160 HD
BRANCH  23  25
ATOM     25  C9  NON d   1     -38.658  21.780  -8.902  0.00  0.00     0.030 A 
ATOM     26  C8  NON d   1     -38.937  22.245  -7.614  0.00  0.00     0.029 A 
ATOM     27  C7  NON d   1     -39.703  23.398  -7.397  0.00  0.00     0.004 A 
ATOM     28  C6  NON d   1     -40.249  24.104  -8.470  0.00  0.00     0.029 A 
ATOM     29  C5  NON d   1     -40.053  23.667  -9.777  0.00  0.00     0.036 A 
ATOM     30  C26 NON d   1     -39.254  22.505  -9.978  0.00  0.00     0.058 A 
BRANCH  29  31
ATOM     31  N1  NON d   1     -40.618  24.357 -10.896  0.00  0.00    -0.327 N 
ATOM     32  C4  NON d   1     -40.440  24.043 -12.248  0.00  0.00     0.222 C 
ATOM     33  O1  NON d   1     -39.715  23.156 -12.690  0.00  0.00    -0.273 OA
ATOM     34  H8  NON d   1     -41.151  25.192 -10.684  0.00  0.00     0.169 HD
BRANCH  32  35
ATOM     35  C3  NON d   1     -41.254  24.927 -13.200  0.00  0.00     0.103 C 
BRANCH  35  36
ATOM     36  C2  NON d   1     -40.722  24.929 -14.645  0.00  0.00     0.005 C 
ATOM     37  C1  NON d   1     -41.815  24.919 -15.711  0.00  0.00     0.005 C 
ENDBRANCH  35  36
ENDBRANCH  32  35
ENDBRANCH  29  31
ENDBRANCH  23  25
ENDBRANCH  22  23
ENDBRANCH   1  22
TORSDOF 9
ENDMDL
MODEL 2
REMARK VINA RESULT:   -13.447      1.293      2.039
REMARK INTER + INTRA:         -17.423
REMARK INTER:                 -16.132
REMARK INTRA:                  -1.291
REMARK CONF_INDEPENDENT:        2.685
REMARK UNBOUND:                -1.291
REMARK  9 active torsions:
REMARK  status: ('A' for Active; 'I' for Inactive)
REMARK    1  A    between atoms: C2_2  and  C3_3 
REMARK    2  A    between atoms: C3_3  and  C4_4 
REMARK       I    between atoms: C4_4  and  N1_6 
REMARK    3  A    between atoms: N1_6  and  C5_7 
REMARK    4  A    between atoms: C9_11  and  N2_12 
REMARK    5  A    between atoms: N2_12  and  C10_13 
REMARK    6  A    between atoms: C10_13  and  C11_14 
REMARK       I    between atoms: C11_14  and  N3_16 
REMARK    7  A    between atoms: N3_16  and  C12_17 
REMARK    8  A    between atoms: C15_20  and  N4_21 
REMARK       I    between atoms: N4_21  and  C16_22 
REMARK    9  A    between atoms: C16_22  and  C17_24 
ROOT
ATOM      1  C11 NON d   1     -39.602  19.478  -7.732  0.00  0.00     0.239 C 
ATOM      2  O2  NON d   1     -40.318  19.284  -8.714  0.00  0.00    -0.271 OA
ATOM      3  N3  NON d   1     -40.002  19.293  -6.394  0.00  0.00    -0.326 N 
ATOM      4  H15 NON d   1     -39.292  19.457  -5.688  0.00  0.00     0.169 HD
ENDROOT
BRANCH   3   5
ATOM      5  C12 NON d   1     -41.283  18.888  -5.873  0.00  0.00     0.034 A 
ATOM      6  C13 NON d   1     -41.380  17.673  -5.175  0.00  0.00     0.032 A 
ATOM      7  C14 NON d   1     -42.611  17.196  -4.619  0.00  0.00     0.032 A 
ATOM      8  C15 NON d   1     -43.809  17.913  -4.731  0.00  0.00     0.035 A 
ATOM      9  C24 NON d   1     -43.706  19.132  -5.435  0.00  0.00     0.032 A 
ATOM     10  C25 NON d   1     -42.472  19.605  -5.992  0.00  0.00     0.032 A 
BRANCH   8  11
ATOM     11  N4  NON d   1     -45.102  17.507  -4.191  0.00  0.00    -0.323 N 
ATOM     12  C16 NON d   1     -46.003  16.584  -4.751  0.00  0.00     0.256 C 
ATOM     13  O3  NON d   1     -45.767  16.001  -5.810  0.00  0.00    -0.267 OA
ATOM     14  H18 NON d   1     -45.361  17.945  -3.320  0.00  0.00     0.169 HD
BRANCH  12  15
ATOM     15  C17 NON d   1     -47.356  16.244  -4.065  0.00  0.00     0.032 A 
ATOM     16  C18 NON d   1     -48.197  15.358  -4.764  0.00  0.00     0.017 A 
ATOM     17  C19 NON d   1     -49.453  14.948  -4.266  0.00  0.00     0.002 A 
ATOM     18  C20 NON d   1     -49.946  15.408  -3.040  0.00  0.00     0.007 A 
ATOM     19  C21 NON d   1     -49.185  16.302  -2.304  0.00  0.00    -0.061 A 
ATOM     20  C22 NON d   1     -49.588  16.880  -0.935  0.00  0.00     0.048 C 
ATOM     21  C23 NON d   1     -47.869  16.697  -2.828  0.00  0.00     0.023 A 
ENDBRANCH  12  15
ENDBRANCH   8  11
ENDBRANCH   3   5
BRANCH   1  22
ATOM     22  C10 NON d   1     -38.090  19.917  -7.900  0.00  0.00     0.223 C 
BRANCH  22  23
ATOM     23  N2  NON d   1     -37.907  21.217  -8.615  0.00  0.00    -0.381 N 
ATOM     24  H12 NON d   1     -38.272  22.006  -8.086  0.00  0.00     0.160 HD
BRANCH  23  25
ATOM     25  C9  NON d   1     -38.014  21.333 -10.016  0.00  0.00     0.030 A 
ATOM     26  C8  NON d   1     -37.039  20.835 -10.885  0.00  0.00     0.029 A 
ATOM     27  C7  NON d   1     -37.120  21.027 -12.270  0.00  0.00     0.004 A 
ATOM     28  C6  NON d   1     -38.166  21.762 -12.829  0.00  0.00     0.029 A 
ATOM     29  C5  NON d   1     -39.143  22.331 -12.017  0.00  0.00     0.036 A 
ATOM     30  C26 NON d   1     -39.056  22.107 -10.613  0.00  0.00     0.058 A 
BRANCH  29  31
ATOM     31  N1  NON d   1     -40.216  23.108 -12.559  0.00  0.00    -0.327 N 
ATOM     32  C4  NON d   1     -40.687  24.333 -12.074  0.00  0.00     0.222 C 
ATOM     33  O1  NON d   1     -40.291  24.906 -11.063  0.00  0.00    -0.273 OA
ATOM     34  H8  NON d   1     -40.719  22.696 -13.334  0.00  0.00     0.169 HD
BRANCH  32  35
ATOM     35  C3  NON d   1     -41.795  24.953 -12.934  0.00  0.00     0.103 C 
BRANCH  35  36
ATOM     36  C2  NON d   1     -41.295  25.501 -14.283  0.00  0.00     0.005 C 
ATOM     37  C1  NON d   1     -39.815  25.873 -14.293  0.00  0.00     0.005 C 
ENDBRANCH  35  36
ENDBRANCH  32  35
ENDBRANCH  29  31
ENDBRANCH  23  25
ENDBRANCH  22  23
ENDBRANCH   1  22
TORSDOF 9
ENDMDL
MODEL 3
REMARK VINA RESULT:   -13.135      2.316     11.239
REMARK INTER + INTRA:         -16.922
REMARK INTER:                 -15.820
REMARK INTRA:                  -1.102
REMARK CONF_INDEPENDENT:        2.685
REMARK UNBOUND:                -1.102
REMARK  9 active torsions:
REMARK  status: ('A' for Active; 'I' for Inactive)
REMARK    1  A    between atoms: C2_2  and  C3_3 
REMARK    2  A    between atoms: C3_3  and  C4_4 
REMARK       I    between atoms: C4_4  and  N1_6 
REMARK    3  A    between atoms: N1_6  and  C5_7 
REMARK    4  A    between atoms: C9_11  and  N2_12 
REMARK    5  A    between atoms: N2_12  and  C10_13 
REMARK    6  A    between atoms: C10_13  and  C11_14 
REMARK       I    between atoms: C11_14  and  N3_16 
REMARK    7  A    between atoms: N3_16  and  C12_17 
REMARK    8  A    between atoms: C15_20  and  N4_21 
REMARK       I    between atoms: N4_21  and  C16_22 
REMARK    9  A    between atoms: C16_22  and  C17_24 
ROOT
ATOM      1  C11 NON d   1     -39.613  18.964  -4.090  0.00  0.00     0.239 C 
ATOM      2  O2  NON d   1     -39.031  20.017  -3.833  0.00  0.00    -0.271 OA
ATOM      3  N3  NON d   1     -39.985  18.544  -5.382  0.00  0.00    -0.326 N 
ATOM      4  H15 NON d   1     -40.427  17.634  -5.447  0.00  0.00     0.169 HD
ENDROOT
BRANCH   3   5
ATOM      5  C12 NON d   1     -39.815  19.219  -6.645  0.00  0.00     0.034 A 
ATOM      6  C13 NON d   1     -40.835  20.071  -7.102  0.00  0.00     0.032 A 
ATOM      7  C14 NON d   1     -40.749  20.785  -8.340  0.00  0.00     0.032 A 
ATOM      8  C15 NON d   1     -39.635  20.686  -9.185  0.00  0.00     0.035 A 
ATOM      9  C24 NON d   1     -38.615  19.827  -8.721  0.00  0.00     0.032 A 
ATOM     10  C25 NON d   1     -38.706  19.112  -7.481  0.00  0.00     0.032 A 
BRANCH   8  11
ATOM     11  N4  NON d   1     -39.461  21.380 -10.455  0.00  0.00    -0.323 N 
ATOM     12  C16 NON d   1     -38.246  21.701 -11.087  0.00  0.00     0.256 C 
ATOM     13  O3  NON d   1     -37.156  21.407 -10.595  0.00  0.00    -0.267 OA
ATOM     14  H18 NON d   1     -40.315  21.650 -10.918  0.00  0.00     0.169 HD
BRANCH  12  15
ATOM     15  C17 NON d   1     -38.207  22.450 -12.449  0.00  0.00     0.032 A 
ATOM     16  C18 NON d   1     -37.024  22.307 -13.198  0.00  0.00     0.017 A 
ATOM     17  C19 NON d   1     -36.841  22.919 -14.458  0.00  0.00     0.002 A 
ATOM     18  C20 NON d   1     -37.831  23.720 -15.038  0.00  0.00     0.007 A 
ATOM     19  C21 NON d   1     -39.016  23.927 -14.350  0.00  0.00    -0.061 A 
ATOM     20  C22 NON d   1     -40.198  24.766 -14.869  0.00  0.00     0.048 C 
ATOM     21  C23 NON d   1     -39.196  23.260 -13.052  0.00  0.00     0.023 A 
ENDBRANCH  12  15
ENDBRANCH   8  11
ENDBRANCH   3   5
BRANCH   1  22
ATOM     22  C10 NON d   1     -39.960  17.925  -2.948  0.00  0.00     0.223 C 
BRANCH  22  23
ATOM     23  N2  NON d   1     -41.378  17.977  -2.483  0.00  0.00    -0.381 N 
ATOM     24  H12 NON d   1     -41.538  17.407  -1.655  0.00  0.00     0.160 HD
BRANCH  23  25
ATOM     25  C9  NON d   1     -42.467  18.052  -3.377  0.00  0.00     0.030 A 
ATOM     26  C8  NON d   1     -42.541  19.017  -4.386  0.00  0.00     0.029 A 
ATOM     27  C7  NON d   1     -43.663  19.129  -5.216  0.00  0.00     0.004 A 
ATOM     28  C6  NON d   1     -44.770  18.299  -5.036  0.00  0.00     0.029 A 
ATOM     29  C5  NON d   1     -44.785  17.351  -4.017  0.00  0.00     0.036 A 
ATOM     30  C26 NON d   1     -43.626  17.238  -3.196  0.00  0.00     0.058 A 
BRANCH  29  31
ATOM     31  N1  NON d   1     -45.914  16.501  -3.793  0.00  0.00    -0.327 N 
ATOM     32  C4  NON d   1     -46.946  16.228  -4.697  0.00  0.00     0.222 C 
ATOM     33  O1  NON d   1     -47.078  16.728  -5.810  0.00  0.00    -0.273 OA
ATOM     34  H8  NON d   1     -45.999  16.107  -2.864  0.00  0.00     0.169 HD
BRANCH  32  35
ATOM     35  C3  NON d   1     -47.964  15.204  -4.181  0.00  0.00     0.103 C 
BRANCH  35  36
ATOM     36  C2  NON d   1     -49.042  15.813  -3.266  0.00  0.00     0.005 C 
ATOM     37  C1  NON d   1     -48.501  16.806  -2.242  0.00  0.00     0.005 C 
ENDBRANCH  35  36
ENDBRANCH  32  35
ENDBRANCH  29  31
ENDBRANCH  23  25
ENDBRANCH  22  23
ENDBRANCH   1  22
TORSDOF 9
ENDMDL
MODEL 4
REMARK VINA RESULT:   -13.065      2.173      4.337
REMARK INTER + INTRA:         -18.137
REMARK INTER:                 -15.750
REMARK INTRA:                  -2.387
REMARK CONF_INDEPENDENT:        2.685
REMARK UNBOUND:                -2.387
REMARK  9 active torsions:
REMARK  status: ('A' for Active; 'I' for Inactive)
REMARK    1  A    between atoms: C2_2  and  C3_3 
REMARK    2  A    between atoms: C3_3  and  C4_4 
REMARK       I    between atoms: C4_4  and  N1_6 
REMARK    3  A    between atoms: N1_6  and  C5_7 
REMARK    4  A    between atoms: C9_11  and  N2_12 
REMARK    5  A    between atoms: N2_12  and  C10_13 
REMARK    6  A    between atoms: C10_13  and  C11_14 
REMARK       I    between atoms: C11_14  and  N3_16 
REMARK    7  A    between atoms: N3_16  and  C12_17 
REMARK    8  A    between atoms: C15_20  and  N4_21 
REMARK       I    between atoms: N4_21  and  C16_22 
REMARK    9  A    between atoms: C16_22  and  C17_24 
ROOT
ATOM      1  C11 NON d   1     -39.213  18.791  -7.754  0.00  0.00     0.239 C 
ATOM      2  O2  NON d   1     -39.576  17.825  -8.424  0.00  0.00    -0.271 OA
ATOM      3  N3  NON d   1     -39.907  19.305  -6.641  0.00  0.00    -0.326 N 
ATOM      4  H15 NON d   1     -39.469  20.085  -6.162  0.00  0.00     0.169 HD
ENDROOT
BRANCH   3   5
ATOM      5  C12 NON d   1     -41.156  18.873  -6.065  0.00  0.00     0.034 A 
ATOM      6  C13 NON d   1     -42.225  19.782  -6.002  0.00  0.00     0.032 A 
ATOM      7  C14 NON d   1     -43.502  19.437  -5.452  0.00  0.00     0.032 A 
ATOM      8  C15 NON d   1     -43.775  18.161  -4.939  0.00  0.00     0.035 A 
ATOM      9  C24 NON d   1     -42.696  17.253  -5.005  0.00  0.00     0.032 A 
ATOM     10  C25 NON d   1     -41.419  17.604  -5.554  0.00  0.00     0.032 A 
BRANCH   8  11
ATOM     11  N4  NON d   1     -45.044  17.723  -4.370  0.00  0.00    -0.323 N 
ATOM     12  C16 NON d   1     -45.863  16.676  -4.827  0.00  0.00     0.256 C 
ATOM     13  O3  NON d   1     -45.566  15.995  -5.810  0.00  0.00    -0.267 OA
ATOM     14  H18 NON d   1     -45.351  18.237  -3.558  0.00  0.00     0.169 HD
BRANCH  12  15
ATOM     15  C17 NON d   1     -47.200  16.315  -4.121  0.00  0.00     0.032 A 
ATOM     16  C18 NON d   1     -48.050  15.437  -4.818  0.00  0.00     0.017 A 
ATOM     17  C19 NON d   1     -49.293  15.010  -4.303  0.00  0.00     0.002 A 
ATOM     18  C20 NON d   1     -49.764  15.445  -3.059  0.00  0.00     0.007 A 
ATOM     19  C21 NON d   1     -48.993  16.330  -2.322  0.00  0.00    -0.061 A 
ATOM     20  C22 NON d   1     -49.372  16.880  -0.935  0.00  0.00     0.048 C 
ATOM     21  C23 NON d   1     -47.691  16.743  -2.866  0.00  0.00     0.023 A 
ENDBRANCH  12  15
ENDBRANCH   8  11
ENDBRANCH   3   5
BRANCH   1  22
ATOM     22  C10 NON d   1     -37.852  19.536  -8.068  0.00  0.00     0.223 C 
BRANCH  22  23
ATOM     23  N2  NON d   1     -37.961  20.594  -9.117  0.00  0.00    -0.381 N 
ATOM     24  H12 NON d   1     -37.081  20.753  -9.602  0.00  0.00     0.160 HD
BRANCH  23  25
ATOM     25  C9  NON d   1     -38.775  21.736  -8.961  0.00  0.00     0.030 A 
ATOM     26  C8  NON d   1     -39.096  22.577 -10.029  0.00  0.00     0.029 A 
ATOM     27  C7  NON d   1     -39.839  23.749  -9.845  0.00  0.00     0.004 A 
ATOM     28  C6  NON d   1     -40.254  24.139  -8.571  0.00  0.00     0.029 A 
ATOM     29  C5  NON d   1     -39.924  23.375  -7.455  0.00  0.00     0.036 A 
ATOM     30  C26 NON d   1     -39.185  22.175  -7.665  0.00  0.00     0.058 A 
BRANCH  29  31
ATOM     31  N1  NON d   1     -40.315  23.760  -6.134  0.00  0.00    -0.327 N 
ATOM     32  C4  NON d   1     -40.404  22.927  -5.013  0.00  0.00     0.222 C 
ATOM     33  O1  NON d   1     -40.219  21.714  -5.004  0.00  0.00    -0.273 OA
ATOM     34  H8  NON d   1     -40.614  24.720  -6.018  0.00  0.00     0.169 HD
BRANCH  32  35
ATOM     35  C3  NON d   1     -40.770  23.667  -3.721  0.00  0.00     0.103 C 
BRANCH  35  36
ATOM     36  C2  NON d   1     -40.434  22.877  -2.442  0.00  0.00     0.005 C 
ATOM     37  C1  NON d   1     -40.378  23.732  -1.179  0.00  0.00     0.005 C 
ENDBRANCH  35  36
ENDBRANCH  32  35
ENDBRANCH  29  31
ENDBRANCH  23  25
ENDBRANCH  22  23
ENDBRANCH   1  22
TORSDOF 9
ENDMDL
MODEL 5
REMARK VINA RESULT:   -12.913      3.977      6.291
REMARK INTER + INTRA:         -18.056
REMARK INTER:                 -15.597
REMARK INTRA:                  -2.458
REMARK CONF_INDEPENDENT:        2.685
REMARK UNBOUND:                -2.458
REMARK  9 active torsions:
REMARK  status: ('A' for Active; 'I' for Inactive)
REMARK    1  A    between atoms: C2_2  and  C3_3 
REMARK    2  A    between atoms: C3_3  and  C4_4 
REMARK       I    between atoms: C4_4  and  N1_6 
REMARK    3  A    between atoms: N1_6  and  C5_7 
REMARK    4  A    between atoms: C9_11  and  N2_12 
REMARK    5  A    between atoms: N2_12  and  C10_13 
REMARK    6  A    between atoms: C10_13  and  C11_14 
REMARK       I    between atoms: C11_14  and  N3_16 
REMARK    7  A    between atoms: N3_16  and  C12_17 
REMARK    8  A    between atoms: C15_20  and  N4_21 
REMARK       I    between atoms: N4_21  and  C16_22 
REMARK    9  A    between atoms: C16_22  and  C17_24 
ROOT
ATOM      1  C11 NON d   1     -39.418  19.377  -7.094  0.00  0.00     0.239 C 
ATOM      2  O2  NON d   1     -39.932  18.880  -8.096  0.00  0.00    -0.271 OA
ATOM      3  N3  NON d   1     -40.023  19.436  -5.824  0.00  0.00    -0.326 N 
ATOM      4  H15 NON d   1     -39.465  19.843  -5.081  0.00  0.00     0.169 HD
ENDROOT
BRANCH   3   5
ATOM      5  C12 NON d   1     -41.330  18.986  -5.414  0.00  0.00     0.034 A 
ATOM      6  C13 NON d   1     -41.431  17.860  -4.580  0.00  0.00     0.032 A 
ATOM      7  C14 NON d   1     -42.687  17.347  -4.120  0.00  0.00     0.032 A 
ATOM      8  C15 NON d   1     -43.908  17.938  -4.470  0.00  0.00     0.035 A 
ATOM      9  C24 NON d   1     -43.801  19.068  -5.310  0.00  0.00     0.032 A 
ATOM     10  C25 NON d   1     -42.541  19.577  -5.770  0.00  0.00     0.032 A 
BRANCH   8  11
ATOM     11  N4  NON d   1     -45.228  17.488  -4.044  0.00  0.00    -0.323 N 
ATOM     12  C16 NON d   1     -46.087  16.610  -4.727  0.00  0.00     0.256 C 
ATOM     13  O3  NON d   1     -45.784  16.112  -5.813  0.00  0.00    -0.267 OA
ATOM     14  H18 NON d   1     -45.542  17.856  -3.159  0.00  0.00     0.169 HD
BRANCH  12  15
ATOM     15  C17 NON d   1     -47.477  16.214  -4.154  0.00  0.00     0.032 A 
ATOM     16  C18 NON d   1     -48.181  15.227  -4.867  0.00  0.00     0.017 A 
ATOM     17  C19 NON d   1     -49.451  14.756  -4.466  0.00  0.00     0.002 A 
ATOM     18  C20 NON d   1     -50.096  15.255  -3.329  0.00  0.00     0.007 A 
ATOM     19  C21 NON d   1     -49.475  16.247  -2.587  0.00  0.00    -0.061 A 
ATOM     20  C22 NON d   1     -50.054  16.878  -1.307  0.00  0.00     0.048 C 
ATOM     21  C23 NON d   1     -48.143  16.705  -3.007  0.00  0.00     0.023 A 
ENDBRANCH  12  15
ENDBRANCH   8  11
ENDBRANCH   3   5
BRANCH   1  22
ATOM     22  C10 NON d   1     -37.950  19.968  -7.139  0.00  0.00     0.223 C 
BRANCH  22  23
ATOM     23  N2  NON d   1     -36.895  19.022  -6.667  0.00  0.00    -0.381 N 
ATOM     24  H12 NON d   1     -36.641  18.338  -7.377  0.00  0.00     0.160 HD
BRANCH  23  25
ATOM     25  C9  NON d   1     -36.833  18.557  -5.337  0.00  0.00     0.030 A 
ATOM     26  C8  NON d   1     -36.190  17.366  -4.990  0.00  0.00     0.029 A 
ATOM     27  C7  NON d   1     -36.204  16.878  -3.677  0.00  0.00     0.004 A 
ATOM     28  C6  NON d   1     -36.898  17.552  -2.672  0.00  0.00     0.029 A 
ATOM     29  C5  NON d   1     -37.603  18.717  -2.959  0.00  0.00     0.036 A 
ATOM     30  C26 NON d   1     -37.561  19.209  -4.295  0.00  0.00     0.058 A 
BRANCH  29  31
ATOM     31  N1  NON d   1     -38.342  19.419  -1.955  0.00  0.00    -0.327 N 
ATOM     32  C4  NON d   1     -39.424  20.282  -2.163  0.00  0.00     0.222 C 
ATOM     33  O1  NON d   1     -39.871  20.621  -3.255  0.00  0.00    -0.273 OA
ATOM     34  H8  NON d   1     -38.006  19.325  -1.004  0.00  0.00     0.169 HD
BRANCH  32  35
ATOM     35  C3  NON d   1     -40.054  20.808  -0.868  0.00  0.00     0.103 C 
BRANCH  35  36
ATOM     36  C2  NON d   1     -39.486  22.164  -0.413  0.00  0.00     0.005 C 
ATOM     37  C1  NON d   1     -40.102  23.367  -1.122  0.00  0.00     0.005 C 
ENDBRANCH  35  36
ENDBRANCH  32  35
ENDBRANCH  29  31
ENDBRANCH  23  25
ENDBRANCH  22  23
ENDBRANCH   1  22
TORSDOF 9
ENDMDL
MODEL 6
REMARK VINA RESULT:   -12.882      4.111      6.670
REMARK INTER + INTRA:         -17.012
REMARK INTER:                 -15.566
REMARK INTRA:                  -1.446
REMARK CONF_INDEPENDENT:        2.685
REMARK UNBOUND:                -1.446
REMARK  9 active torsions:
REMARK  status: ('A' for Active; 'I' for Inactive)
REMARK    1  A    between atoms: C2_2  and  C3_3 
REMARK    2  A    between atoms: C3_3  and  C4_4 
REMARK       I    between atoms: C4_4  and  N1_6 
REMARK    3  A    between atoms: N1_6  and  C5_7 
REMARK    4  A    between atoms: C9_11  and  N2_12 
REMARK    5  A    between atoms: N2_12  and  C10_13 
REMARK    6  A    between atoms: C10_13  and  C11_14 
REMARK       I    between atoms: C11_14  and  N3_16 
REMARK    7  A    between atoms: N3_16  and  C12_17 
REMARK    8  A    between atoms: C15_20  and  N4_21 
REMARK       I    between atoms: N4_21  and  C16_22 
REMARK    9  A    between atoms: C16_22  and  C17_24 
ROOT
ATOM      1  C11 NON d   1     -40.153  19.488  -6.564  0.00  0.00     0.239 C 
ATOM      2  O2  NON d   1     -40.810  19.499  -7.604  0.00  0.00    -0.271 OA
ATOM      3  N3  NON d   1     -40.636  19.064  -5.310  0.00  0.00    -0.326 N 
ATOM      4  H15 NON d   1     -39.969  19.076  -4.546  0.00  0.00     0.169 HD
ENDROOT
BRANCH   3   5
ATOM      5  C12 NON d   1     -41.952  18.597  -4.950  0.00  0.00     0.034 A 
ATOM      6  C13 NON d   1     -42.069  17.516  -4.060  0.00  0.00     0.032 A 
ATOM      7  C14 NON d   1     -43.335  16.991  -3.644  0.00  0.00     0.032 A 
ATOM      8  C15 NON d   1     -44.550  17.523  -4.096  0.00  0.00     0.035 A 
ATOM      9  C24 NON d   1     -44.425  18.607  -4.992  0.00  0.00     0.032 A 
ATOM     10  C25 NON d   1     -43.156  19.128  -5.408  0.00  0.00     0.032 A 
BRANCH   8  11
ATOM     11  N4  NON d   1     -45.879  17.056  -3.721  0.00  0.00    -0.323 N 
ATOM     12  C16 NON d   1     -46.918  16.667  -4.585  0.00  0.00     0.256 C 
ATOM     13  O3  NON d   1     -46.791  16.687  -5.810  0.00  0.00    -0.267 OA
ATOM     14  H18 NON d   1     -46.055  17.012  -2.728  0.00  0.00     0.169 HD
BRANCH  12  15
ATOM     15  C17 NON d   1     -48.295  16.189  -4.044  0.00  0.00     0.032 A 
ATOM     16  C18 NON d   1     -48.681  14.885  -4.406  0.00  0.00     0.017 A 
ATOM     17  C19 NON d   1     -49.899  14.307  -3.986  0.00  0.00     0.002 A 
ATOM     18  C20 NON d   1     -50.809  15.006  -3.184  0.00  0.00     0.007 A 
ATOM     19  C21 NON d   1     -50.509  16.305  -2.806  0.00  0.00    -0.061 A 
ATOM     20  C22 NON d   1     -51.402  17.187  -1.914  0.00  0.00     0.048 C 
ATOM     21  C23 NON d   1     -49.225  16.879  -3.233  0.00  0.00     0.023 A 
ENDBRANCH  12  15
ENDBRANCH   8  11
ENDBRANCH   3   5
BRANCH   1  22
ATOM     22  C10 NON d   1     -38.629  19.918  -6.557  0.00  0.00     0.223 C 
BRANCH  22  23
ATOM     23  N2  NON d   1     -38.232  20.748  -5.380  0.00  0.00    -0.381 N 
ATOM     24  H12 NON d   1     -37.517  20.299  -4.812  0.00  0.00     0.160 HD
BRANCH  23  25
ATOM     25  C9  NON d   1     -39.154  21.543  -4.667  0.00  0.00     0.030 A 
ATOM     26  C8  NON d   1     -40.056  22.398  -5.306  0.00  0.00     0.029 A 
ATOM     27  C7  NON d   1     -40.911  23.239  -4.583  0.00  0.00     0.004 A 
ATOM     28  C6  NON d   1     -40.864  23.278  -3.189  0.00  0.00     0.029 A 
ATOM     29  C5  NON d   1     -39.953  22.490  -2.491  0.00  0.00     0.036 A 
ATOM     30  C26 NON d   1     -39.106  21.626  -3.242  0.00  0.00     0.058 A 
BRANCH  29  31
ATOM     31  N1  NON d   1     -39.865  22.524  -1.063  0.00  0.00    -0.327 N 
ATOM     32  C4  NON d   1     -40.802  23.074  -0.181  0.00  0.00     0.222 C 
ATOM     33  O1  NON d   1     -41.825  23.673  -0.501  0.00  0.00    -0.273 OA
ATOM     34  H8  NON d   1     -39.009  22.166  -0.659  0.00  0.00     0.169 HD
BRANCH  32  35
ATOM     35  C3  NON d   1     -40.453  22.870   1.298  0.00  0.00     0.103 C 
BRANCH  35  36
ATOM     36  C2  NON d   1     -38.977  22.504   1.538  0.00  0.00     0.005 C 
ATOM     37  C1  NON d   1     -38.181  23.576   2.277  0.00  0.00     0.005 C 
ENDBRANCH  35  36
ENDBRANCH  32  35
ENDBRANCH  29  31
ENDBRANCH  23  25
ENDBRANCH  22  23
ENDBRANCH   1  22
TORSDOF 9
ENDMDL
MODEL 7
REMARK VINA RESULT:   -12.760      1.842      2.352
REMARK INTER + INTRA:         -16.971
REMARK INTER:                 -15.445
REMARK INTRA:                  -1.526
REMARK CONF_INDEPENDENT:        2.685
REMARK UNBOUND:                -1.526
REMARK  9 active torsions:
REMARK  status: ('A' for Active; 'I' for Inactive)
REMARK    1  A    between atoms: C2_2  and  C3_3 
REMARK    2  A    between atoms: C3_3  and  C4_4 
REMARK       I    between atoms: C4_4  and  N1_6 
REMARK    3  A    between atoms: N1_6  and  C5_7 
REMARK    4  A    between atoms: C9_11  and  N2_12 
REMARK    5  A    between atoms: N2_12  and  C10_13 
REMARK    6  A    between atoms: C10_13  and  C11_14 
REMARK       I    between atoms: C11_14  and  N3_16 
REMARK    7  A    between atoms: N3_16  and  C12_17 
REMARK    8  A    between atoms: C15_20  and  N4_21 
REMARK       I    between atoms: N4_21  and  C16_22 
REMARK    9  A    between atoms: C16_22  and  C17_24 
ROOT
ATOM      1  C11 NON d   1     -38.692  20.148  -4.415  0.00  0.00     0.239 C 
ATOM      2  O2  NON d   1     -39.220  21.092  -3.829  0.00  0.00    -0.271 OA
ATOM      3  N3  NON d   1     -39.333  18.933  -4.728  0.00  0.00    -0.326 N 
ATOM      4  H15 NON d   1     -38.784  18.258  -5.248  0.00  0.00     0.169 HD
ENDROOT
BRANCH   3   5
ATOM      5  C12 NON d   1     -40.677  18.507  -4.426  0.00  0.00     0.034 A 
ATOM      6  C13 NON d   1     -41.734  18.973  -5.227  0.00  0.00     0.032 A 
ATOM      7  C14 NON d   1     -43.097  18.597  -5.004  0.00  0.00     0.032 A 
ATOM      8  C15 NON d   1     -43.475  17.733  -3.967  0.00  0.00     0.035 A 
ATOM      9  C24 NON d   1     -42.409  17.270  -3.165  0.00  0.00     0.032 A 
ATOM     10  C25 NON d   1     -41.045  17.651  -3.391  0.00  0.00     0.032 A 
BRANCH   8  11
ATOM     11  N4  NON d   1     -44.833  17.294  -3.673  0.00  0.00    -0.323 N 
ATOM     12  C16 NON d   1     -45.815  16.893  -4.596  0.00  0.00     0.256 C 
ATOM     13  O3  NON d   1     -45.603  16.877  -5.810  0.00  0.00    -0.267 OA
ATOM     14  H18 NON d   1     -45.078  17.280  -2.694  0.00  0.00     0.169 HD
BRANCH  12  15
ATOM     15  C17 NON d   1     -47.233  16.447  -4.141  0.00  0.00     0.032 A 
ATOM     16  C18 NON d   1     -47.881  15.512  -4.969  0.00  0.00     0.017 A 
ATOM     17  C19 NON d   1     -49.168  15.006  -4.683  0.00  0.00     0.002 A 
ATOM     18  C20 NON d   1     -49.887  15.413  -3.553  0.00  0.00     0.007 A 
ATOM     19  C21 NON d   1     -49.323  16.350  -2.702  0.00  0.00    -0.061 A 
ATOM     20  C22 NON d   1     -49.986  16.879  -1.416  0.00  0.00     0.048 C 
ATOM     21  C23 NON d   1     -47.972  16.846  -3.004  0.00  0.00     0.023 A 
ENDBRANCH  12  15
ENDBRANCH   8  11
ENDBRANCH   3   5
BRANCH   1  22
ATOM     22  C10 NON d   1     -37.201  20.245  -4.937  0.00  0.00     0.223 C 
BRANCH  22  23
ATOM     23  N2  NON d   1     -37.081  20.500  -6.404  0.00  0.00    -0.381 N 
ATOM     24  H12 NON d   1     -36.389  21.214  -6.620  0.00  0.00     0.160 HD
BRANCH  23  25
ATOM     25  C9  NON d   1     -38.191  20.461  -7.274  0.00  0.00     0.030 A 
ATOM     26  C8  NON d   1     -38.889  19.280  -7.542  0.00  0.00     0.029 A 
ATOM     27  C7  NON d   1     -39.940  19.241  -8.467  0.00  0.00     0.004 A 
ATOM     28  C6  NON d   1     -40.302  20.381  -9.186  0.00  0.00     0.029 A 
ATOM     29  C5  NON d   1     -39.615  21.578  -9.006  0.00  0.00     0.036 A 
ATOM     30  C26 NON d   1     -38.563  21.604  -8.045  0.00  0.00     0.058 A 
BRANCH  29  31
ATOM     31  N1  NON d   1     -39.948  22.758  -9.743  0.00  0.00    -0.327 N 
ATOM     32  C4  NON d   1     -39.063  23.580 -10.449  0.00  0.00     0.222 C 
ATOM     33  O1  NON d   1     -37.843  23.449 -10.495  0.00  0.00    -0.273 OA
ATOM     34  H8  NON d   1     -40.914  23.056  -9.696  0.00  0.00     0.169 HD
BRANCH  32  35
ATOM     35  C3  NON d   1     -39.750  24.721 -11.208  0.00  0.00     0.103 C 
BRANCH  35  36
ATOM     36  C2  NON d   1     -40.859  24.246 -12.164  0.00  0.00     0.005 C 
ATOM     37  C1  NON d   1     -40.442  24.211 -13.632  0.00  0.00     0.005 C 
ENDBRANCH  35  36
ENDBRANCH  32  35
ENDBRANCH  29  31
ENDBRANCH  23  25
ENDBRANCH  22  23
ENDBRANCH   1  22
TORSDOF 9
ENDMDL
MODEL 8
REMARK VINA RESULT:   -12.754      3.108      5.623
REMARK INTER + INTRA:         -17.784
REMARK INTER:                 -15.438
REMARK INTRA:                  -2.345
REMARK CONF_INDEPENDENT:        2.685
REMARK UNBOUND:                -2.345
REMARK  9 active torsions:
REMARK  status: ('A' for Active; 'I' for Inactive)
REMARK    1  A    between atoms: C2_2  and  C3_3 
REMARK    2  A    between atoms: C3_3  and  C4_4 
REMARK       I    between atoms: C4_4  and  N1_6 
REMARK    3  A    between atoms: N1_6  and  C5_7 
REMARK    4  A    between atoms: C9_11  and  N2_12 
REMARK    5  A    between atoms: N2_12  and  C10_13 
REMARK    6  A    between atoms: C10_13  and  C11_14 
REMARK       I    between atoms: C11_14  and  N3_16 
REMARK    7  A    between atoms: N3_16  and  C12_17 
REMARK    8  A    between atoms: C15_20  and  N4_21 
REMARK       I    between atoms: N4_21  and  C16_22 
REMARK    9  A    between atoms: C16_22  and  C17_24 
ROOT
ATOM      1  C11 NON d   1     -39.535  19.598  -7.597  0.00  0.00     0.239 C 
ATOM      2  O2  NON d   1     -40.251  19.444  -8.586  0.00  0.00    -0.271 OA
ATOM      3  N3  NON d   1     -39.937  19.365  -6.267  0.00  0.00    -0.326 N 
ATOM      4  H15 NON d   1     -39.227  19.498  -5.555  0.00  0.00     0.169 HD
ENDROOT
BRANCH   3   5
ATOM      5  C12 NON d   1     -41.221  18.946  -5.763  0.00  0.00     0.034 A 
ATOM      6  C13 NON d   1     -41.296  17.781  -4.980  0.00  0.00     0.032 A 
ATOM      7  C14 NON d   1     -42.527  17.295  -4.433  0.00  0.00     0.032 A 
ATOM      8  C15 NON d   1     -43.748  17.952  -4.640  0.00  0.00     0.035 A 
ATOM      9  C24 NON d   1     -43.666  19.120  -5.429  0.00  0.00     0.032 A 
ATOM     10  C25 NON d   1     -42.431  19.602  -5.976  0.00  0.00     0.032 A 
BRANCH   8  11
ATOM     11  N4  NON d   1     -45.043  17.533  -4.117  0.00  0.00    -0.323 N 
ATOM     12  C16 NON d   1     -45.956  16.650  -4.720  0.00  0.00     0.256 C 
ATOM     13  O3  NON d   1     -45.731  16.120  -5.810  0.00  0.00    -0.267 OA
ATOM     14  H18 NON d   1     -45.294  17.927  -3.223  0.00  0.00     0.169 HD
BRANCH  12  15
ATOM     15  C17 NON d   1     -47.311  16.290  -4.048  0.00  0.00     0.032 A 
ATOM     16  C18 NON d   1     -48.135  15.398  -4.759  0.00  0.00     0.017 A 
ATOM     17  C19 NON d   1     -49.391  14.969  -4.274  0.00  0.00     0.002 A 
ATOM     18  C20 NON d   1     -49.899  15.417  -3.050  0.00  0.00     0.007 A 
ATOM     19  C21 NON d   1     -49.155  16.316  -2.303  0.00  0.00    -0.061 A 
ATOM     20  C22 NON d   1     -49.577  16.881  -0.933  0.00  0.00     0.048 C 
ATOM     21  C23 NON d   1     -47.840  16.729  -2.813  0.00  0.00     0.023 A 
ENDBRANCH  12  15
ENDBRANCH   8  11
ENDBRANCH   3   5
BRANCH   1  22
ATOM     22  C10 NON d   1     -38.022  20.037  -7.748  0.00  0.00     0.223 C 
BRANCH  22  23
ATOM     23  N2  NON d   1     -37.768  21.476  -7.436  0.00  0.00    -0.381 N 
ATOM     24  H12 NON d   1     -36.778  21.681  -7.324  0.00  0.00     0.160 HD
BRANCH  23  25
ATOM     25  C9  NON d   1     -38.634  22.241  -6.626  0.00  0.00     0.030 A 
ATOM     26  C8  NON d   1     -39.125  23.487  -7.025  0.00  0.00     0.029 A 
ATOM     27  C7  NON d   1     -39.920  24.270  -6.179  0.00  0.00     0.004 A 
ATOM     28  C6  NON d   1     -40.220  23.843  -4.884  0.00  0.00     0.029 A 
ATOM     29  C5  NON d   1     -39.721  22.635  -4.405  0.00  0.00     0.036 A 
ATOM     30  C26 NON d   1     -38.931  21.844  -5.287  0.00  0.00     0.058 A 
BRANCH  29  31
ATOM     31  N1  NON d   1     -39.993  22.181  -3.075  0.00  0.00    -0.327 N 
ATOM     32  C4  NON d   1     -39.951  20.859  -2.619  0.00  0.00     0.222 C 
ATOM     33  O1  NON d   1     -39.733  19.868  -3.310  0.00  0.00    -0.273 OA
ATOM     34  H8  NON d   1     -40.305  22.885  -2.418  0.00  0.00     0.169 HD
BRANCH  32  35
ATOM     35  C3  NON d   1     -40.209  20.716  -1.115  0.00  0.00     0.103 C 
BRANCH  35  36
ATOM     36  C2  NON d   1     -39.679  21.898  -0.283  0.00  0.00     0.005 C 
ATOM     37  C1  NON d   1     -40.493  22.190   0.974  0.00  0.00     0.005 C 
ENDBRANCH  35  36
ENDBRANCH  32  35
ENDBRANCH  29  31
ENDBRANCH  23  25
ENDBRANCH  22  23
ENDBRANCH   1  22
TORSDOF 9
ENDMDL
MODEL 9
REMARK VINA RESULT:   -12.585      2.158     11.001
REMARK INTER + INTRA:         -16.552
REMARK INTER:                 -15.269
REMARK INTRA:                  -1.282
REMARK CONF_INDEPENDENT:        2.685
REMARK UNBOUND:                -1.282
REMARK  9 active torsions:
REMARK  status: ('A' for Active; 'I' for Inactive)
REMARK    1  A    between atoms: C2_2  and  C3_3 
REMARK    2  A    between atoms: C3_3  and  C4_4 
REMARK       I    between atoms: C4_4  and  N1_6 
REMARK    3  A    between atoms: N1_6  and  C5_7 
REMARK    4  A    between atoms: C9_11  and  N2_12 
REMARK    5  A    between atoms: N2_12  and  C10_13 
REMARK    6  A    between atoms: C10_13  and  C11_14 
REMARK       I    between atoms: C11_14  and  N3_16 
REMARK    7  A    between atoms: N3_16  and  C12_17 
REMARK    8  A    between atoms: C15_20  and  N4_21 
REMARK       I    between atoms: N4_21  and  C16_22 
REMARK    9  A    between atoms: C16_22  and  C17_24 
ROOT
ATOM      1  C11 NON d   1     -40.358  20.940  -3.721  0.00  0.00     0.239 C 
ATOM      2  O2  NON d   1     -41.201  21.836  -3.700  0.00  0.00    -0.271 OA
ATOM      3  N3  NON d   1     -39.652  20.524  -4.866  0.00  0.00    -0.326 N 
ATOM      4  H15 NON d   1     -38.959  19.797  -4.726  0.00  0.00     0.169 HD
ENDROOT
BRANCH   3   5
ATOM      5  C12 NON d   1     -39.758  20.996  -6.224  0.00  0.00     0.034 A 
ATOM      6  C13 NON d   1     -39.023  22.129  -6.610  0.00  0.00     0.032 A 
ATOM      7  C14 NON d   1     -39.064  22.663  -7.939  0.00  0.00     0.032 A 
ATOM      8  C15 NON d   1     -39.843  22.088  -8.951  0.00  0.00     0.035 A 
ATOM      9  C24 NON d   1     -40.582  20.951  -8.557  0.00  0.00     0.032 A 
ATOM     10  C25 NON d   1     -40.539  20.421  -7.225  0.00  0.00     0.032 A 
BRANCH   8  11
ATOM     11  N4  NON d   1     -39.939  22.559 -10.328  0.00  0.00    -0.323 N 
ATOM     12  C16 NON d   1     -40.014  23.894 -10.765  0.00  0.00     0.256 C 
ATOM     13  O3  NON d   1     -40.005  24.841  -9.977  0.00  0.00    -0.267 OA
ATOM     14  H18 NON d   1     -39.950  21.836 -11.031  0.00  0.00     0.169 HD
BRANCH  12  15
ATOM     15  C17 NON d   1     -40.115  24.256 -12.273  0.00  0.00     0.032 A 
ATOM     16  C18 NON d   1     -39.049  23.826 -13.084  0.00  0.00     0.017 A 
ATOM     17  C19 NON d   1     -39.001  24.071 -14.474  0.00  0.00     0.002 A 
ATOM     18  C20 NON d   1     -40.017  24.771 -15.134  0.00  0.00     0.007 A 
ATOM     19  C21 NON d   1     -41.091  25.247 -14.398  0.00  0.00    -0.061 A 
ATOM     20  C22 NON d   1     -42.287  26.017 -14.987  0.00  0.00     0.048 C 
ATOM     21  C23 NON d   1     -41.133  24.959 -12.957  0.00  0.00     0.023 A 
ENDBRANCH  12  15
ENDBRANCH   8  11
ENDBRANCH   3   5
BRANCH   1  22
ATOM     22  C10 NON d   1     -39.942  20.183  -2.394  0.00  0.00     0.223 C 
BRANCH  22  23
ATOM     23  N2  NON d   1     -40.773  18.979  -2.090  0.00  0.00    -0.381 N 
ATOM     24  H12 NON d   1     -40.351  18.385  -1.380  0.00  0.00     0.160 HD
BRANCH  23  25
ATOM     25  C9  NON d   1     -41.513  18.298  -3.079  0.00  0.00     0.030 A 
ATOM     26  C8  NON d   1     -40.991  18.021  -4.345  0.00  0.00     0.029 A 
ATOM     27  C7  NON d   1     -41.764  17.414  -5.343  0.00  0.00     0.004 A 
ATOM     28  C6  NON d   1     -43.105  17.099  -5.115  0.00  0.00     0.029 A 
ATOM     29  C5  NON d   1     -43.703  17.396  -3.894  0.00  0.00     0.036 A 
ATOM     30  C26 NON d   1     -42.895  17.994  -2.885  0.00  0.00     0.058 A 
BRANCH  29  31
ATOM     31  N1  NON d   1     -45.081  17.106  -3.638  0.00  0.00    -0.327 N 
ATOM     32  C4  NON d   1     -46.071  16.845  -4.592  0.00  0.00     0.222 C 
ATOM     33  O1  NON d   1     -45.923  16.887  -5.810  0.00  0.00    -0.273 OA
ATOM     34  H8  NON d   1     -45.375  17.154  -2.671  0.00  0.00     0.169 HD
BRANCH  32  35
ATOM     35  C3  NON d   1     -47.432  16.484  -3.987  0.00  0.00     0.103 C 
BRANCH  35  36
ATOM     36  C2  NON d   1     -48.132  15.312  -4.699  0.00  0.00     0.005 C 
ATOM     37  C1  NON d   1     -49.534  15.012  -4.175  0.00  0.00     0.005 C 
ENDBRANCH  35  36
ENDBRANCH  32  35
ENDBRANCH  29  31
ENDBRANCH  23  25
ENDBRANCH  22  23
ENDBRANCH   1  22
TORSDOF 9
ENDMDL
