MODEL 1
REMARK VINA RESULT:   -13.804      0.000      0.000
REMARK INTER + INTRA:         -18.937
REMARK INTER:                 -17.682
REMARK INTRA:                  -1.254
REMARK CONF_INDEPENDENT:        3.878
REMARK UNBOUND:                -1.254
REMARK  13 active torsions:
REMARK  status: ('A' for Active; 'I' for Inactive)
REMARK    1  A    between atoms: O1_2  and  C2_3 
REMARK    2  A    between atoms: C2_3  and  C3_4 
REMARK    3  A    between atoms: C3_4  and  O2_5 
REMARK    4  A    between atoms: O2_5  and  C4_6 
REMARK    5  A    between atoms: C9_11  and  C10_12 
REMARK       I    between atoms: C10_12  and  N1_14 
REMARK    6  A    between atoms: N1_14  and  C11_15 
REMARK    7  A    between atoms: C11_15  and  N2_17 
REMARK    8  A    between atoms: N2_17  and  C12_18 
REMARK    9  A    between atoms: C17_23  and  C18_24 
REMARK       I    between atoms: C18_24  and  N3_26 
REMARK   10  A    between atoms: N3_26  and  C19_27 
REMARK   11  A    between atoms: C19_27  and  C20_28 
REMARK   12  A    between atoms: C20_28  and  C21_29 
REMARK   13  A    between atoms: C21_29  and  O5_30 
ROOT
ATOM      1  C11 NON d   1     -46.092  16.835  -4.195  0.00  0.00     0.179 C 
ATOM      2  S1  NON d   1     -46.414  17.125  -5.807  0.00  0.00    -0.040 SA
ENDROOT
BRANCH   1   3
ATOM      3  N1  NON d   1     -44.792  17.069  -3.763  0.00  0.00    -0.299 N 
ATOM      4  C10 NON d   1     -43.859  17.941  -4.315  0.00  0.00     0.260 C 
ATOM      5  O3  NON d   1     -44.102  18.616  -5.315  0.00  0.00    -0.267 OA
ATOM      6  H12 NON d   1     -44.499  16.447  -3.021  0.00  0.00     0.171 HD
BRANCH   4   7
ATOM      7  C9  NON d   1     -42.523  17.998  -3.665  0.00  0.00     0.065 A 
ATOM      8  C8  NON d   1     -42.407  18.005  -2.265  0.00  0.00     0.020 A 
ATOM      9  C7  NON d   1     -41.146  18.069  -1.663  0.00  0.00     0.001 A 
ATOM     10  C6  NON d   1     -39.995  18.134  -2.447  0.00  0.00     0.003 A 
ATOM     11  C5  NON d   1     -40.100  18.138  -3.837  0.00  0.00     0.038 A 
ATOM     12  C4  NON d   1     -41.358  18.090  -4.443  0.00  0.00     0.084 A 
BRANCH  12  13
ATOM     13  O2  NON d   1     -41.396  18.004  -5.811  0.00  0.00    -0.348 OA
BRANCH  13  14
ATOM     14  C3  NON d   1     -40.319  18.754  -6.404  0.00  0.00     0.201 C 
BRANCH  14  15
ATOM     15  C2  NON d   1     -40.913  19.922  -7.196  0.00  0.00     0.193 C 
BRANCH  15  16
ATOM     16  O1  NON d   1     -40.691  19.800  -8.608  0.00  0.00    -0.394 OA
ATOM     17  C1  NON d   1     -40.101  20.958  -9.187  0.00  0.00     0.201 C 
ENDBRANCH  15  16
ENDBRANCH  14  15
ENDBRANCH  13  14
ENDBRANCH  12  13
ENDBRANCH   4   7
ENDBRANCH   1   3
BRANCH   1  18
ATOM     18  N2  NON d   1     -46.966  16.486  -3.192  0.00  0.00    -0.332 N 
ATOM     19  H13 NON d   1     -46.696  16.881  -2.290  0.00  0.00     0.168 HD
BRANCH  18  20
ATOM     20  C12 NON d   1     -48.257  15.918  -3.218  0.00  0.00     0.050 A 
ATOM     21  C13 NON d   1     -48.508  15.095  -4.332  0.00  0.00     0.030 A 
ATOM     22  C14 NON d   1     -49.731  14.445  -4.497  0.00  0.00     0.002 A 
ATOM     23  C15 NON d   1     -50.741  14.628  -3.560  0.00  0.00     0.001 A 
ATOM     24  C16 NON d   1     -50.531  15.480  -2.475  0.00  0.00     0.019 A 
ATOM     25  C17 NON d   1     -49.297  16.137  -2.301  0.00  0.00     0.058 A 
BRANCH  25  26
ATOM     26  C18 NON d   1     -49.254  17.203  -1.266  0.00  0.00     0.253 C 
ATOM     27  O4  NON d   1     -48.190  17.715  -0.940  0.00  0.00    -0.268 OA
ATOM     28  N3  NON d   1     -50.486  17.567  -0.748  0.00  0.00    -0.357 N 
ATOM     29  H18 NON d   1     -51.244  16.914  -0.900  0.00  0.00     0.162 HD
BRANCH  28  30
ATOM     30  C19 NON d   1     -50.558  18.380   0.451  0.00  0.00     0.125 C 
BRANCH  30  31
ATOM     31  C20 NON d   1     -51.905  19.083   0.572  0.00  0.00     0.046 C 
BRANCH  31  32
ATOM     32  C21 NON d   1     -52.899  18.552  -0.452  0.00  0.00     0.165 C 
BRANCH  32  33
ATOM     33  O5  NON d   1     -54.010  19.433  -0.546  0.00  0.00    -0.401 OA
ATOM     34  H25 NON d   1     -53.659  20.341  -0.531  0.00  0.00     0.209 HD
ENDBRANCH  32  33
ENDBRANCH  31  32
ENDBRANCH  30  31
ENDBRANCH  28  30
ENDBRANCH  25  26
ENDBRANCH  18  20
ENDBRANCH   1  18
TORSDOF 13
ENDMDL
