MODEL 1
REMARK VINA RESULT:   -29.729      0.000      0.000
REMARK INTER + INTRA:         -32.129
REMARK INTER:                 -31.519
REMARK INTRA:                  -0.611
REMARK CONF_INDEPENDENT:        1.790
REMARK UNBOUND:                -0.611
REMARK  6 active torsions:
REMARK  status: ('A' for Active; 'I' for Inactive)
REMARK    1  A    between atoms: C2_2  and  C3_3 
REMARK    2  A    between atoms: C6_6  and  C7_7 
REMARK    3  A    between atoms: C7_7  and  C8_8 
REMARK    4  A    between atoms: C10_12  and  N2_13 
REMARK    5  A    between atoms: N2_13  and  C11_14 
REMARK    6  A    between atoms: C15_18  and  N3_19 
ROOT
ATOM      1  C8  NON d   1     -40.163  19.453  -2.466  0.00  0.00     0.085 A 
ATOM      2  C9  NON d   1     -40.161  19.515  -3.997  0.00  0.00     0.295 A 
ATOM      3  O1  NON d   1     -39.299  20.187  -4.568  0.00  0.00    -0.265 OA
ATOM      4  N1  NON d   1     -41.119  18.822  -4.736  0.00  0.00    -0.023 NA
ATOM      5  C10 NON d   1     -41.951  18.060  -4.085  0.00  0.00     0.711 A 
ATOM      6  N4  NON d   1     -41.920  17.969  -2.744  0.00  0.00    -0.153 N 
ATOM      7  C17 NON d   1     -41.125  18.684  -1.921  0.00  0.00     0.271 A 
ATOM      8  O2  NON d   1     -41.510  18.375  -0.772  0.00  0.00    -0.267 OA
ATOM      9  H17 NON d   1     -42.204  17.134  -2.260  0.00  0.00     0.187 HD
ENDROOT
BRANCH   5  10
ATOM     10  N2  NON d   1     -42.910  17.336  -4.757  0.00  0.00    -0.190 N 
ATOM     11  H10 NON d   1     -42.559  16.979  -5.637  0.00  0.00     0.184 HD
BRANCH  10  12
ATOM     12  C11 NON d   1     -44.256  17.038  -4.471  0.00  0.00     0.051 A 
ATOM     13  C12 NON d   1     -44.765  17.378  -3.208  0.00  0.00     0.030 A 
ATOM     14  C13 NON d   1     -46.128  17.255  -2.913  0.00  0.00     0.004 A 
ATOM     15  C14 NON d   1     -47.023  16.817  -3.889  0.00  0.00     0.023 A 
ATOM     16  C15 NON d   1     -46.551  16.418  -5.133  0.00  0.00     0.008 A 
ATOM     17  C16 NON d   1     -45.178  16.518  -5.395  0.00  0.00     0.053 A 
BRANCH  16  18
ATOM     18  N3  NON d   1     -47.440  16.165  -6.185  0.00  0.00    -0.303 NA
ATOM     19  H14 NON d   1     -47.006  15.730  -6.997  0.00  0.00     0.124 HD
ATOM     20  H15 NON d   1     -48.323  15.748  -5.923  0.00  0.00     0.124 HD
ENDBRANCH  16  18
ENDBRANCH  10  12
ENDBRANCH   5  10
BRANCH   1  21
ATOM     21  C7  NON d   1     -39.051  20.273  -1.836  0.00  0.00     0.088 C 
BRANCH  21  22
ATOM     22  C6  NON d   1     -39.296  21.383  -0.821  0.00  0.00    -0.054 C 
ATOM     23  C5  NON d   1     -40.235  22.388  -1.102  0.00  0.00     0.008 C 
ATOM     24  C4  NON d   1     -40.538  23.380  -0.158  0.00  0.00     0.007 C 
ATOM     25  C3  NON d   1     -39.932  23.379   1.107  0.00  0.00    -0.059 C 
ATOM     26  C19 NON d   1     -38.915  22.455   1.337  0.00  0.00     0.007 C 
ATOM     27  C18 NON d   1     -38.572  21.514   0.363  0.00  0.00     0.008 C 
BRANCH  25  28
ATOM     28  C2  NON d   1     -40.360  24.382   2.149  0.00  0.00     0.034 C 
ATOM     29  C1  NON d   1     -41.204  25.555   1.616  0.00  0.00     0.010 C 
ENDBRANCH  25  28
ENDBRANCH  21  22
ENDBRANCH   1  21
TORSDOF 6
ENDMDL
MODEL 2
REMARK VINA RESULT:   -29.254      0.852      1.500
REMARK INTER + INTRA:         -31.682
REMARK INTER:                 -31.044
REMARK INTRA:                  -0.638
REMARK CONF_INDEPENDENT:        1.790
REMARK UNBOUND:                -0.638
REMARK  6 active torsions:
REMARK  status: ('A' for Active; 'I' for Inactive)
REMARK    1  A    between atoms: C2_2  and  C3_3 
REMARK    2  A    between atoms: C6_6  and  C7_7 
REMARK    3  A    between atoms: C7_7  and  C8_8 
REMARK    4  A    between atoms: C10_12  and  N2_13 
REMARK    5  A    between atoms: N2_13  and  C11_14 
REMARK    6  A    between atoms: C15_18  and  N3_19 
ROOT
ATOM      1  C8  NON d   1     -40.018  19.753  -3.117  0.00  0.00     0.085 A 
ATOM      2  C9  NON d   1     -40.114  18.263  -2.772  0.00  0.00     0.295 A 
ATOM      3  O1  NON d   1     -39.342  17.792  -1.934  0.00  0.00    -0.265 OA
ATOM      4  N1  NON d   1     -41.059  17.450  -3.395  0.00  0.00    -0.023 NA
ATOM      5  C10 NON d   1     -41.906  18.019  -4.206  0.00  0.00     0.711 A 
ATOM      6  N4  NON d   1     -41.851  19.336  -4.471  0.00  0.00    -0.153 N 
ATOM      7  C17 NON d   1     -40.908  20.192  -4.027  0.00  0.00     0.271 A 
ATOM      8  O2  NON d   1     -41.171  21.270  -4.606  0.00  0.00    -0.267 OA
ATOM      9  H17 NON d   1     -42.672  19.867  -4.707  0.00  0.00     0.187 HD
ENDROOT
BRANCH   5  10
ATOM     10  N2  NON d   1     -42.875  17.274  -4.841  0.00  0.00    -0.190 N 
ATOM     11  H10 NON d   1     -42.534  16.880  -5.708  0.00  0.00     0.184 HD
BRANCH  10  12
ATOM     12  C11 NON d   1     -44.220  16.995  -4.530  0.00  0.00     0.051 A 
ATOM     13  C12 NON d   1     -44.705  17.356  -3.264  0.00  0.00     0.030 A 
ATOM     14  C13 NON d   1     -46.065  17.252  -2.947  0.00  0.00     0.004 A 
ATOM     15  C14 NON d   1     -46.980  16.814  -3.904  0.00  0.00     0.023 A 
ATOM     16  C15 NON d   1     -46.532  16.395  -5.150  0.00  0.00     0.008 A 
ATOM     17  C16 NON d   1     -45.161  16.475  -5.434  0.00  0.00     0.053 A 
BRANCH  16  18
ATOM     18  N3  NON d   1     -47.439  16.139  -6.185  0.00  0.00    -0.303 NA
ATOM     19  H14 NON d   1     -47.108  16.423  -7.106  0.00  0.00     0.124 HD
ATOM     20  H15 NON d   1     -47.874  15.227  -6.172  0.00  0.00     0.124 HD
ENDBRANCH  16  18
ENDBRANCH  10  12
ENDBRANCH   5  10
BRANCH   1  21
ATOM     21  C7  NON d   1     -38.928  20.474  -2.343  0.00  0.00     0.088 C 
BRANCH  21  22
ATOM     22  C6  NON d   1     -39.208  21.437  -1.196  0.00  0.00    -0.054 C 
ATOM     23  C5  NON d   1     -40.323  22.286  -1.258  0.00  0.00     0.008 C 
ATOM     24  C4  NON d   1     -40.650  23.131  -0.185  0.00  0.00     0.007 C 
ATOM     25  C3  NON d   1     -39.887  23.128   0.991  0.00  0.00    -0.059 C 
ATOM     26  C19 NON d   1     -38.715  22.375   1.001  0.00  0.00     0.007 C 
ATOM     27  C18 NON d   1     -38.360  21.590  -0.099  0.00  0.00     0.008 C 
BRANCH  25  28
ATOM     28  C2  NON d   1     -40.325  23.954   2.176  0.00  0.00     0.034 C 
ATOM     29  C1  NON d   1     -41.073  25.253   1.823  0.00  0.00     0.010 C 
ENDBRANCH  25  28
ENDBRANCH  21  22
ENDBRANCH   1  21
TORSDOF 6
ENDMDL
MODEL 3
REMARK VINA RESULT:   -29.157      0.566      1.995
REMARK INTER + INTRA:         -31.509
REMARK INTER:                 -30.947
REMARK INTRA:                  -0.562
REMARK CONF_INDEPENDENT:        1.790
REMARK UNBOUND:                -0.562
REMARK  6 active torsions:
REMARK  status: ('A' for Active; 'I' for Inactive)
REMARK    1  A    between atoms: C2_2  and  C3_3 
REMARK    2  A    between atoms: C6_6  and  C7_7 
REMARK    3  A    between atoms: C7_7  and  C8_8 
REMARK    4  A    between atoms: C10_12  and  N2_13 
REMARK    5  A    between atoms: N2_13  and  C11_14 
REMARK    6  A    between atoms: C15_18  and  N3_19 
ROOT
ATOM      1  C8  NON d   1     -39.995  19.846  -3.158  0.00  0.00     0.085 A 
ATOM      2  C9  NON d   1     -40.942  19.025  -2.278  0.00  0.00     0.295 A 
ATOM      3  O1  NON d   1     -40.855  19.123  -1.052  0.00  0.00    -0.265 OA
ATOM      4  N1  NON d   1     -41.889  18.179  -2.852  0.00  0.00    -0.023 NA
ATOM      5  C10 NON d   1     -41.995  18.182  -4.151  0.00  0.00     0.711 A 
ATOM      6  N4  NON d   1     -41.195  18.940  -4.921  0.00  0.00    -0.153 N 
ATOM      7  C17 NON d   1     -40.166  19.697  -4.486  0.00  0.00     0.271 A 
ATOM      8  O2  NON d   1     -39.631  20.124  -5.533  0.00  0.00    -0.267 OA
ATOM      9  H17 NON d   1     -41.496  19.300  -5.810  0.00  0.00     0.187 HD
ENDROOT
BRANCH   5  10
ATOM     10  N2  NON d   1     -42.922  17.381  -4.779  0.00  0.00    -0.190 N 
ATOM     11  H10 NON d   1     -42.549  16.973  -5.627  0.00  0.00     0.184 HD
BRANCH  10  12
ATOM     12  C11 NON d   1     -44.262  17.062  -4.487  0.00  0.00     0.051 A 
ATOM     13  C12 NON d   1     -44.770  17.394  -3.222  0.00  0.00     0.030 A 
ATOM     14  C13 NON d   1     -46.130  17.249  -2.919  0.00  0.00     0.004 A 
ATOM     15  C14 NON d   1     -47.022  16.798  -3.891  0.00  0.00     0.023 A 
ATOM     16  C15 NON d   1     -46.550  16.406  -5.138  0.00  0.00     0.008 A 
ATOM     17  C16 NON d   1     -45.180  16.527  -5.406  0.00  0.00     0.053 A 
BRANCH  16  18
ATOM     18  N3  NON d   1     -47.440  16.138  -6.185  0.00  0.00    -0.303 NA
ATOM     19  H14 NON d   1     -46.988  15.817  -7.040  0.00  0.00     0.124 HD
ATOM     20  H15 NON d   1     -48.264  15.608  -5.936  0.00  0.00     0.124 HD
ENDBRANCH  16  18
ENDBRANCH  10  12
ENDBRANCH   5  10
BRANCH   1  21
ATOM     21  C7  NON d   1     -39.030  20.704  -2.357  0.00  0.00     0.088 C 
BRANCH  21  22
ATOM     22  C6  NON d   1     -39.474  21.679  -1.273  0.00  0.00    -0.054 C 
ATOM     23  C5  NON d   1     -39.166  21.414   0.070  0.00  0.00     0.008 C 
ATOM     24  C4  NON d   1     -39.496  22.328   1.082  0.00  0.00     0.007 C 
ATOM     25  C3  NON d   1     -40.116  23.549   0.776  0.00  0.00    -0.059 C 
ATOM     26  C19 NON d   1     -40.527  23.754  -0.539  0.00  0.00     0.007 C 
ATOM     27  C18 NON d   1     -40.257  22.805  -1.529  0.00  0.00     0.008 C 
BRANCH  25  28
ATOM     28  C2  NON d   1     -40.351  24.568   1.863  0.00  0.00     0.034 C 
ATOM     29  C1  NON d   1     -39.215  24.693   2.895  0.00  0.00     0.010 C 
ENDBRANCH  25  28
ENDBRANCH  21  22
ENDBRANCH   1  21
TORSDOF 6
ENDMDL
MODEL 4
REMARK VINA RESULT:   -28.883      4.095      6.288
REMARK INTER + INTRA:         -31.272
REMARK INTER:                 -30.673
REMARK INTRA:                  -0.599
REMARK CONF_INDEPENDENT:        1.790
REMARK UNBOUND:                -0.599
REMARK  6 active torsions:
REMARK  status: ('A' for Active; 'I' for Inactive)
REMARK    1  A    between atoms: C2_2  and  C3_3 
REMARK    2  A    between atoms: C6_6  and  C7_7 
REMARK    3  A    between atoms: C7_7  and  C8_8 
REMARK    4  A    between atoms: C10_12  and  N2_13 
REMARK    5  A    between atoms: N2_13  and  C11_14 
REMARK    6  A    between atoms: C15_18  and  N3_19 
ROOT
ATOM      1  C8  NON d   1     -40.323  20.191  -5.845  0.00  0.00     0.085 A 
ATOM      2  C9  NON d   1     -41.462  20.339  -4.831  0.00  0.00     0.295 A 
ATOM      3  O1  NON d   1     -41.669  21.442  -4.321  0.00  0.00    -0.265 OA
ATOM      4  N1  NON d   1     -42.254  19.244  -4.489  0.00  0.00    -0.023 NA
ATOM      5  C10 NON d   1     -42.046  18.125  -5.124  0.00  0.00     0.711 A 
ATOM      6  N4  NON d   1     -41.077  18.010  -6.050  0.00  0.00    -0.153 N 
ATOM      7  C17 NON d   1     -40.174  18.960  -6.370  0.00  0.00     0.271 A 
ATOM      8  O2  NON d   1     -39.400  18.393  -7.173  0.00  0.00    -0.267 OA
ATOM      9  H17 NON d   1     -41.153  17.374  -6.825  0.00  0.00     0.187 HD
ENDROOT
BRANCH   5  10
ATOM     10  N2  NON d   1     -42.805  17.011  -4.845  0.00  0.00    -0.190 N 
ATOM     11  H10 NON d   1     -42.257  16.162  -4.904  0.00  0.00     0.184 HD
BRANCH  10  12
ATOM     12  C11 NON d   1     -44.167  16.837  -4.534  0.00  0.00     0.051 A 
ATOM     13  C12 NON d   1     -44.626  17.254  -3.275  0.00  0.00     0.030 A 
ATOM     14  C13 NON d   1     -45.990  17.257  -2.959  0.00  0.00     0.004 A 
ATOM     15  C14 NON d   1     -46.933  16.870  -3.911  0.00  0.00     0.023 A 
ATOM     16  C15 NON d   1     -46.516  16.398  -5.149  0.00  0.00     0.008 A 
ATOM     17  C16 NON d   1     -45.143  16.371  -5.431  0.00  0.00     0.053 A 
BRANCH  16  18
ATOM     18  N3  NON d   1     -47.439  16.191  -6.181  0.00  0.00    -0.303 NA
ATOM     19  H14 NON d   1     -47.407  16.901  -6.912  0.00  0.00     0.124 HD
ATOM     20  H15 NON d   1     -47.499  15.246  -6.534  0.00  0.00     0.124 HD
ENDBRANCH  16  18
ENDBRANCH  10  12
ENDBRANCH   5  10
BRANCH   1  21
ATOM     21  C7  NON d   1     -39.569  21.488  -6.087  0.00  0.00     0.088 C 
BRANCH  21  22
ATOM     22  C6  NON d   1     -39.671  22.292  -7.377  0.00  0.00    -0.054 C 
ATOM     23  C5  NON d   1     -39.455  21.657  -8.610  0.00  0.00     0.008 C 
ATOM     24  C4  NON d   1     -39.615  22.352  -9.819  0.00  0.00     0.007 C 
ATOM     25  C3  NON d   1     -40.024  23.694  -9.830  0.00  0.00    -0.059 C 
ATOM     26  C19 NON d   1     -40.120  24.351  -8.605  0.00  0.00     0.007 C 
ATOM     27  C18 NON d   1     -39.890  23.669  -7.408  0.00  0.00     0.008 C 
BRANCH  25  28
ATOM     28  C2  NON d   1     -40.306  24.385 -11.141  0.00  0.00     0.034 C 
ATOM     29  C1  NON d   1     -39.894  23.594 -12.396  0.00  0.00     0.010 C 
ENDBRANCH  25  28
ENDBRANCH  21  22
ENDBRANCH   1  21
TORSDOF 6
ENDMDL
MODEL 5
REMARK VINA RESULT:   -28.456      1.674      2.048
REMARK INTER + INTRA:         -30.872
REMARK INTER:                 -30.246
REMARK INTRA:                  -0.626
REMARK CONF_INDEPENDENT:        1.790
REMARK UNBOUND:                -0.626
REMARK  6 active torsions:
REMARK  status: ('A' for Active; 'I' for Inactive)
REMARK    1  A    between atoms: C2_2  and  C3_3 
REMARK    2  A    between atoms: C6_6  and  C7_7 
REMARK    3  A    between atoms: C7_7  and  C8_8 
REMARK    4  A    between atoms: C10_12  and  N2_13 
REMARK    5  A    between atoms: N2_13  and  C11_14 
REMARK    6  A    between atoms: C15_18  and  N3_19 
ROOT
ATOM      1  C8  NON d   1     -40.458  20.545  -4.301  0.00  0.00     0.085 A 
ATOM      2  C9  NON d   1     -41.044  20.154  -5.661  0.00  0.00     0.295 A 
ATOM      3  O1  NON d   1     -40.774  20.840  -6.649  0.00  0.00    -0.265 OA
ATOM      4  N1  NON d   1     -41.872  19.038  -5.782  0.00  0.00    -0.023 NA
ATOM      5  C10 NON d   1     -42.052  18.301  -4.723  0.00  0.00     0.711 A 
ATOM      6  N4  NON d   1     -41.496  18.619  -3.540  0.00  0.00    -0.153 N 
ATOM      7  C17 NON d   1     -40.785  19.735  -3.276  0.00  0.00     0.271 A 
ATOM      8  O2  NON d   1     -40.572  19.682  -2.044  0.00  0.00    -0.267 OA
ATOM      9  H17 NON d   1     -41.246  17.918  -2.864  0.00  0.00     0.187 HD
ENDROOT
BRANCH   5  10
ATOM     10  N2  NON d   1     -42.844  17.176  -4.780  0.00  0.00    -0.190 N 
ATOM     11  H10 NON d   1     -42.330  16.375  -5.125  0.00  0.00     0.184 HD
BRANCH  10  12
ATOM     12  C11 NON d   1     -44.202  16.949  -4.487  0.00  0.00     0.051 A 
ATOM     13  C12 NON d   1     -44.683  17.306  -3.218  0.00  0.00     0.030 A 
ATOM     14  C13 NON d   1     -46.049  17.254  -2.914  0.00  0.00     0.004 A 
ATOM     15  C14 NON d   1     -46.973  16.874  -3.887  0.00  0.00     0.023 A 
ATOM     16  C15 NON d   1     -46.532  16.460  -5.138  0.00  0.00     0.008 A 
ATOM     17  C16 NON d   1     -45.157  16.487  -5.409  0.00  0.00     0.053 A 
BRANCH  16  18
ATOM     18  N3  NON d   1     -47.440  16.264  -6.185  0.00  0.00    -0.303 NA
ATOM     19  H14 NON d   1     -47.046  16.430  -7.110  0.00  0.00     0.124 HD
ATOM     20  H15 NON d   1     -48.004  15.427  -6.126  0.00  0.00     0.124 HD
ENDBRANCH  16  18
ENDBRANCH  10  12
ENDBRANCH   5  10
BRANCH   1  21
ATOM     21  C7  NON d   1     -39.587  21.788  -4.364  0.00  0.00     0.088 C 
BRANCH  21  22
ATOM     22  C6  NON d   1     -39.689  22.937  -3.367  0.00  0.00    -0.054 C 
ATOM     23  C5  NON d   1     -39.990  24.230  -3.824  0.00  0.00     0.008 C 
ATOM     24  C4  NON d   1     -40.164  25.293  -2.925  0.00  0.00     0.007 C 
ATOM     25  C3  NON d   1     -40.072  25.088  -1.541  0.00  0.00    -0.059 C 
ATOM     26  C19 NON d   1     -39.656  23.834  -1.099  0.00  0.00     0.007 C 
ATOM     27  C18 NON d   1     -39.416  22.799  -2.007  0.00  0.00     0.008 C 
BRANCH  25  28
ATOM     28  C2  NON d   1     -40.382  26.216  -0.589  0.00  0.00     0.034 C 
ATOM     29  C1  NON d   1     -41.228  25.821   0.636  0.00  0.00     0.010 C 
ENDBRANCH  25  28
ENDBRANCH  21  22
ENDBRANCH   1  21
TORSDOF 6
ENDMDL
MODEL 6
REMARK VINA RESULT:   -27.875      4.677      7.129
REMARK INTER + INTRA:         -30.185
REMARK INTER:                 -29.665
REMARK INTRA:                  -0.520
REMARK CONF_INDEPENDENT:        1.790
REMARK UNBOUND:                -0.520
REMARK  6 active torsions:
REMARK  status: ('A' for Active; 'I' for Inactive)
REMARK    1  A    between atoms: C2_2  and  C3_3 
REMARK    2  A    between atoms: C6_6  and  C7_7 
REMARK    3  A    between atoms: C7_7  and  C8_8 
REMARK    4  A    between atoms: C10_12  and  N2_13 
REMARK    5  A    between atoms: N2_13  and  C11_14 
REMARK    6  A    between atoms: C15_18  and  N3_19 
ROOT
ATOM      1  C8  NON d   1     -39.304  19.815  -6.588  0.00  0.00     0.085 A 
ATOM      2  C9  NON d   1     -40.524  19.751  -7.512  0.00  0.00     0.295 A 
ATOM      3  O1  NON d   1     -40.352  19.771  -8.733  0.00  0.00    -0.265 OA
ATOM      4  N1  NON d   1     -41.811  19.673  -6.983  0.00  0.00    -0.023 NA
ATOM      5  C10 NON d   1     -41.928  19.568  -5.690  0.00  0.00     0.711 A 
ATOM      6  N4  NON d   1     -40.853  19.575  -4.882  0.00  0.00    -0.153 N 
ATOM      7  C17 NON d   1     -39.576  19.771  -5.270  0.00  0.00     0.271 A 
ATOM      8  O2  NON d   1     -38.931  19.821  -4.198  0.00  0.00    -0.267 OA
ATOM      9  H17 NON d   1     -40.844  19.088  -4.002  0.00  0.00     0.187 HD
ENDROOT
BRANCH   5  10
ATOM     10  N2  NON d   1     -43.171  19.469  -5.105  0.00  0.00    -0.190 N 
ATOM     11  H10 NON d   1     -43.523  20.375  -4.821  0.00  0.00     0.184 HD
BRANCH  10  12
ATOM     12  C11 NON d   1     -44.004  18.372  -4.811  0.00  0.00     0.051 A 
ATOM     13  C12 NON d   1     -43.789  17.669  -3.615  0.00  0.00     0.030 A 
ATOM     14  C13 NON d   1     -44.674  16.672  -3.186  0.00  0.00     0.004 A 
ATOM     15  C14 NON d   1     -45.816  16.377  -3.929  0.00  0.00     0.023 A 
ATOM     16  C15 NON d   1     -46.034  17.011  -5.146  0.00  0.00     0.008 A 
ATOM     17  C16 NON d   1     -45.117  17.981  -5.573  0.00  0.00     0.053 A 
BRANCH  16  18
ATOM     18  N3  NON d   1     -47.260  16.877  -5.810  0.00  0.00    -0.303 NA
ATOM     19  H14 NON d   1     -48.007  17.448  -5.418  0.00  0.00     0.124 HD
ATOM     20  H15 NON d   1     -47.217  16.899  -6.820  0.00  0.00     0.124 HD
ENDBRANCH  16  18
ENDBRANCH  10  12
ENDBRANCH   5  10
BRANCH   1  21
ATOM     21  C7  NON d   1     -37.989  19.903  -7.343  0.00  0.00     0.088 C 
BRANCH  21  22
ATOM     22  C6  NON d   1     -37.805  20.718  -8.618  0.00  0.00    -0.054 C 
ATOM     23  C5  NON d   1     -37.095  20.169  -9.698  0.00  0.00     0.008 C 
ATOM     24  C4  NON d   1     -36.973  20.864 -10.911  0.00  0.00     0.007 C 
ATOM     25  C3  NON d   1     -37.582  22.115 -11.089  0.00  0.00    -0.059 C 
ATOM     26  C19 NON d   1     -38.181  22.707  -9.980  0.00  0.00     0.007 C 
ATOM     27  C18 NON d   1     -38.237  22.037  -8.755  0.00  0.00     0.008 C 
BRANCH  25  28
ATOM     28  C2  NON d   1     -37.540  22.788 -12.438  0.00  0.00     0.034 C 
ATOM     29  C1  NON d   1     -38.682  22.399 -13.396  0.00  0.00     0.010 C 
ENDBRANCH  25  28
ENDBRANCH  21  22
ENDBRANCH   1  21
TORSDOF 6
ENDMDL
MODEL 7
REMARK VINA RESULT:   -27.703      3.010      4.013
REMARK INTER + INTRA:         -30.099
REMARK INTER:                 -29.493
REMARK INTRA:                  -0.606
REMARK CONF_INDEPENDENT:        1.790
REMARK UNBOUND:                -0.606
REMARK  6 active torsions:
REMARK  status: ('A' for Active; 'I' for Inactive)
REMARK    1  A    between atoms: C2_2  and  C3_3 
REMARK    2  A    between atoms: C6_6  and  C7_7 
REMARK    3  A    between atoms: C7_7  and  C8_8 
REMARK    4  A    between atoms: C10_12  and  N2_13 
REMARK    5  A    between atoms: N2_13  and  C11_14 
REMARK    6  A    between atoms: C15_18  and  N3_19 
ROOT
ATOM      1  C8  NON d   1     -40.306  20.452  -3.947  0.00  0.00     0.085 A 
ATOM      2  C9  NON d   1     -40.795  19.487  -2.862  0.00  0.00     0.295 A 
ATOM      3  O1  NON d   1     -40.437  19.666  -1.696  0.00  0.00    -0.265 OA
ATOM      4  N1  NON d   1     -41.633  18.421  -3.187  0.00  0.00    -0.023 NA
ATOM      5  C10 NON d   1     -42.048  18.332  -4.419  0.00  0.00     0.711 A 
ATOM      6  N4  NON d   1     -41.656  19.209  -5.360  0.00  0.00    -0.153 N 
ATOM      7  C17 NON d   1     -40.755  20.199  -5.190  0.00  0.00     0.271 A 
ATOM      8  O2  NON d   1     -40.604  20.679  -6.336  0.00  0.00    -0.267 OA
ATOM      9  H17 NON d   1     -42.239  19.444  -6.145  0.00  0.00     0.187 HD
ENDROOT
BRANCH   5  10
ATOM     10  N2  NON d   1     -42.891  17.312  -4.801  0.00  0.00    -0.190 N 
ATOM     11  H10 NON d   1     -42.436  16.671  -5.439  0.00  0.00     0.184 HD
BRANCH  10  12
ATOM     12  C11 NON d   1     -44.236  17.022  -4.502  0.00  0.00     0.051 A 
ATOM     13  C12 NON d   1     -44.732  17.368  -3.236  0.00  0.00     0.030 A 
ATOM     14  C13 NON d   1     -46.093  17.254  -2.928  0.00  0.00     0.004 A 
ATOM     15  C14 NON d   1     -46.999  16.819  -3.895  0.00  0.00     0.023 A 
ATOM     16  C15 NON d   1     -46.541  16.414  -5.142  0.00  0.00     0.008 A 
ATOM     17  C16 NON d   1     -45.169  16.505  -5.417  0.00  0.00     0.053 A 
BRANCH  16  18
ATOM     18  N3  NON d   1     -47.440  16.163  -6.185  0.00  0.00    -0.303 NA
ATOM     19  H14 NON d   1     -47.124  16.497  -7.094  0.00  0.00     0.124 HD
ATOM     20  H15 NON d   1     -47.836  15.233  -6.208  0.00  0.00     0.124 HD
ENDBRANCH  16  18
ENDBRANCH  10  12
ENDBRANCH   5  10
BRANCH   1  21
ATOM     21  C7  NON d   1     -39.400  21.544  -3.406  0.00  0.00     0.088 C 
BRANCH  21  22
ATOM     22  C6  NON d   1     -39.288  22.930  -4.030  0.00  0.00    -0.054 C 
ATOM     23  C5  NON d   1     -38.661  23.083  -5.276  0.00  0.00     0.008 C 
ATOM     24  C4  NON d   1     -38.609  24.334  -5.911  0.00  0.00     0.007 C 
ATOM     25  C3  NON d   1     -39.209  25.461  -5.331  0.00  0.00    -0.059 C 
ATOM     26  C19 NON d   1     -39.723  25.330  -4.044  0.00  0.00     0.007 C 
ATOM     27  C18 NON d   1     -39.707  24.096  -3.389  0.00  0.00     0.008 C 
BRANCH  25  28
ATOM     28  C2  NON d   1     -39.246  26.767  -6.086  0.00  0.00     0.034 C 
ATOM     29  C1  NON d   1     -40.642  27.195  -6.578  0.00  0.00     0.010 C 
ENDBRANCH  25  28
ENDBRANCH  21  22
ENDBRANCH   1  21
TORSDOF 6
ENDMDL
MODEL 8
REMARK VINA RESULT:   -27.141      4.259      5.890
REMARK INTER + INTRA:         -29.572
REMARK INTER:                 -28.930
REMARK INTRA:                  -0.641
REMARK CONF_INDEPENDENT:        1.790
REMARK UNBOUND:                -0.641
REMARK  6 active torsions:
REMARK  status: ('A' for Active; 'I' for Inactive)
REMARK    1  A    between atoms: C2_2  and  C3_3 
REMARK    2  A    between atoms: C6_6  and  C7_7 
REMARK    3  A    between atoms: C7_7  and  C8_8 
REMARK    4  A    between atoms: C10_12  and  N2_13 
REMARK    5  A    between atoms: N2_13  and  C11_14 
REMARK    6  A    between atoms: C15_18  and  N3_19 
ROOT
ATOM      1  C8  NON d   1     -41.048  18.703  -5.078  0.00  0.00     0.085 A 
ATOM      2  C9  NON d   1     -40.881  17.940  -3.760  0.00  0.00     0.295 A 
ATOM      3  O1  NON d   1     -39.745  17.669  -3.366  0.00  0.00    -0.265 OA
ATOM      4  N1  NON d   1     -41.996  17.558  -3.016  0.00  0.00    -0.023 NA
ATOM      5  C10 NON d   1     -43.166  17.948  -3.436  0.00  0.00     0.711 A 
ATOM      6  N4  NON d   1     -43.307  18.660  -4.568  0.00  0.00    -0.153 N 
ATOM      7  C17 NON d   1     -42.319  18.977  -5.430  0.00  0.00     0.271 A 
ATOM      8  O2  NON d   1     -42.907  19.526  -6.387  0.00  0.00    -0.267 OA
ATOM      9  H17 NON d   1     -44.058  19.317  -4.694  0.00  0.00     0.187 HD
ENDROOT
BRANCH   5  10
ATOM     10  N2  NON d   1     -44.306  17.618  -2.737  0.00  0.00    -0.190 N 
ATOM     11  H10 NON d   1     -44.158  17.668  -1.737  0.00  0.00     0.184 HD
BRANCH  10  12
ATOM     12  C11 NON d   1     -45.590  17.207  -3.143  0.00  0.00     0.051 A 
ATOM     13  C12 NON d   1     -46.678  17.472  -2.299  0.00  0.00     0.030 A 
ATOM     14  C13 NON d   1     -47.996  17.234  -2.708  0.00  0.00     0.004 A 
ATOM     15  C14 NON d   1     -48.258  16.753  -3.991  0.00  0.00     0.023 A 
ATOM     16  C15 NON d   1     -47.206  16.426  -4.837  0.00  0.00     0.008 A 
ATOM     17  C16 NON d   1     -45.893  16.640  -4.392  0.00  0.00     0.053 A 
BRANCH  16  18
ATOM     18  N3  NON d   1     -47.440  16.130  -6.185  0.00  0.00    -0.303 NA
ATOM     19  H14 NON d   1     -48.371  15.761  -6.372  0.00  0.00     0.124 HD
ATOM     20  H15 NON d   1     -47.140  16.832  -6.847  0.00  0.00     0.124 HD
ENDBRANCH  16  18
ENDBRANCH  10  12
ENDBRANCH   5  10
BRANCH   1  21
ATOM     21  C7  NON d   1     -39.725  19.028  -5.749  0.00  0.00     0.088 C 
BRANCH  21  22
ATOM     22  C6  NON d   1     -39.583  20.035  -6.884  0.00  0.00    -0.054 C 
ATOM     23  C5  NON d   1     -40.178  21.301  -6.770  0.00  0.00     0.008 C 
ATOM     24  C4  NON d   1     -40.003  22.276  -7.764  0.00  0.00     0.007 C 
ATOM     25  C3  NON d   1     -39.202  22.022  -8.888  0.00  0.00    -0.059 C 
ATOM     26  C19 NON d   1     -38.714  20.728  -9.056  0.00  0.00     0.007 C 
ATOM     27  C18 NON d   1     -38.952  19.744  -8.094  0.00  0.00     0.008 C 
BRANCH  25  28
ATOM     28  C2  NON d   1     -38.930  23.123  -9.883  0.00  0.00     0.034 C 
ATOM     29  C1  NON d   1     -38.123  22.694 -11.123  0.00  0.00     0.010 C 
ENDBRANCH  25  28
ENDBRANCH  21  22
ENDBRANCH   1  21
TORSDOF 6
ENDMDL
