MODEL 1
REMARK VINA RESULT:    -7.890      0.000      0.000
REMARK INTER + INTRA:         -14.158
REMARK INTER:                  -9.978
REMARK INTRA:                  -4.180
REMARK CONF_INDEPENDENT:        2.088
REMARK UNBOUND:                -4.180
REMARK  7 active torsions:
REMARK  status: ('A' for Active; 'I' for Inactive)
REMARK       I    between atoms: C2_2  and  N1_4 
REMARK    1  A    between atoms: C3_5  and  N1_4 
REMARK    2  A    between atoms: C4_6  and  O2_7 
REMARK    3  A    between atoms: O2_7  and  C5_8 
REMARK    4  A    between atoms: C23_28  and  C24_29 
REMARK    5  A    between atoms: C24_29  and  O5_30 
REMARK    6  A    between atoms: C25_31  and  O6_32 
REMARK    7  A    between atoms: C26_33  and  O7_34 
ROOT
ATOM      1  C5  NON d   1     -40.734  24.147   0.482  0.00  0.00     0.072 C 
ATOM      2  C6  NON d   1     -41.128  24.846  -0.653  0.00  0.00     0.037 C 
ATOM      3  C7  NON d   1     -41.064  24.230  -1.919  0.00  0.00     0.011 C 
ATOM      4  C8  NON d   1     -40.609  22.903  -2.071  0.00  0.00    -0.047 C 
ATOM      5  C9  NON d   1     -40.092  22.253  -0.943  0.00  0.00    -0.049 C 
ATOM      6  C10 NON d   1     -40.136  22.896   0.318  0.00  0.00     0.044 C 
ATOM      7  C11 NON d   1     -39.572  20.839  -0.991  0.00  0.00     0.039 C 
ATOM      8  C12 NON d   1     -39.524  20.187  -2.375  0.00  0.00     0.010 C 
ATOM      9  C13 NON d   1     -40.688  20.625  -3.256  0.00  0.00    -0.000 C 
ATOM     10  C14 NON d   1     -40.771  19.934  -4.626  0.00  0.00     0.006 C 
ATOM     11  C15 NON d   1     -40.529  18.433  -4.760  0.00  0.00     0.013 C 
ATOM     12  C16 NON d   1     -40.739  18.200  -6.269  0.00  0.00     0.079 C 
ATOM     13  C17 NON d   1     -40.502  19.590  -6.859  0.00  0.00     0.135 C 
ATOM     14  O3  NON d   1     -40.690  19.880  -8.032  0.00  0.00    -0.297 OA
ATOM     15  C18 NON d   1     -39.962  20.540  -5.795  0.00  0.00     0.021 C 
ATOM     16  C19 NON d   1     -38.437  20.327  -5.845  0.00  0.00     0.024 C 
ATOM     17  C20 NON d   1     -40.288  22.025  -5.901  0.00  0.00     0.018 C 
ATOM     18  C21 NON d   1     -39.957  22.736  -4.570  0.00  0.00     0.011 C 
ATOM     19  C22 NON d   1     -40.796  22.176  -3.401  0.00  0.00     0.024 C 
ENDROOT
BRANCH   1  20
ATOM     20  O2  NON d   1     -40.879  24.699   1.740  0.00  0.00    -0.318 OA
BRANCH  20  21
ATOM     21  C4  NON d   1     -39.603  24.925   2.405  0.00  0.00     0.292 C 
ATOM     22  C3  NON d   1     -38.997  26.306   2.006  0.00  0.00     0.171 C 
ATOM     23  C26 NON d   1     -38.394  27.146   3.142  0.00  0.00     0.177 C 
ATOM     24  C25 NON d   1     -39.103  27.035   4.493  0.00  0.00     0.180 C 
ATOM     25  C23 NON d   1     -40.108  25.863   4.592  0.00  0.00     0.179 C 
ATOM     26  O4  NON d   1     -39.670  24.729   3.830  0.00  0.00    -0.349 OA
BRANCH  22  27
ATOM     27  N1  NON d   1     -37.982  26.125   0.947  0.00  0.00    -0.349 N 
ATOM     28  C2  NON d   1     -38.199  26.511  -0.349  0.00  0.00     0.214 C 
ATOM     29  C1  NON d   1     -37.008  26.287  -1.240  0.00  0.00     0.117 C 
ATOM     30  O1  NON d   1     -39.248  27.010  -0.745  0.00  0.00    -0.274 OA
ATOM     31  H4  NON d   1     -37.027  26.010   1.259  0.00  0.00     0.163 HD
ENDBRANCH  22  27
BRANCH  23  32
ATOM     32  O7  NON d   1     -36.985  26.857   3.320  0.00  0.00    -0.391 OA
ATOM     33  H35 NON d   1     -36.955  26.102   3.940  0.00  0.00     0.210 HD
ENDBRANCH  23  32
BRANCH  24  34
ATOM     34  O6  NON d   1     -38.115  27.003   5.541  0.00  0.00    -0.390 OA
ATOM     35  H33 NON d   1     -37.520  26.255   5.316  0.00  0.00     0.210 HD
ENDBRANCH  24  34
BRANCH  25  36
ATOM     36  C24 NON d   1     -40.265  25.440   6.071  0.00  0.00     0.198 C 
BRANCH  36  37
ATOM     37  O5  NON d   1     -40.481  24.033   6.188  0.00  0.00    -0.398 OA
ATOM     38  H31 NON d   1     -39.936  23.615   5.498  0.00  0.00     0.209 HD
ENDBRANCH  36  37
ENDBRANCH  25  36
ENDBRANCH  20  21
ENDBRANCH   1  20
TORSDOF 7
ENDMDL
MODEL 2
REMARK VINA RESULT:    -7.684      6.649      9.586
REMARK INTER + INTRA:         -13.990
REMARK INTER:                  -9.772
REMARK INTRA:                  -4.218
REMARK CONF_INDEPENDENT:        2.088
REMARK UNBOUND:                -4.218
REMARK  7 active torsions:
REMARK  status: ('A' for Active; 'I' for Inactive)
REMARK       I    between atoms: C2_2  and  N1_4 
REMARK    1  A    between atoms: C3_5  and  N1_4 
REMARK    2  A    between atoms: C4_6  and  O2_7 
REMARK    3  A    between atoms: O2_7  and  C5_8 
REMARK    4  A    between atoms: C23_28  and  C24_29 
REMARK    5  A    between atoms: C24_29  and  O5_30 
REMARK    6  A    between atoms: C25_31  and  O6_32 
REMARK    7  A    between atoms: C26_33  and  O7_34 
ROOT
ATOM      1  C5  NON d   1     -40.222  19.481  -7.356  0.00  0.00     0.072 C 
ATOM      2  C6  NON d   1     -41.067  20.515  -7.743  0.00  0.00     0.037 C 
ATOM      3  C7  NON d   1     -40.689  21.383  -8.787  0.00  0.00     0.011 C 
ATOM      4  C8  NON d   1     -39.461  21.230  -9.465  0.00  0.00    -0.047 C 
ATOM      5  C9  NON d   1     -38.562  20.269  -8.984  0.00  0.00    -0.049 C 
ATOM      6  C10 NON d   1     -38.944  19.424  -7.914  0.00  0.00     0.044 C 
ATOM      7  C11 NON d   1     -37.219  20.024  -9.626  0.00  0.00     0.039 C 
ATOM      8  C12 NON d   1     -36.836  20.972 -10.765  0.00  0.00     0.010 C 
ATOM      9  C13 NON d   1     -38.043  21.379 -11.602  0.00  0.00    -0.000 C 
ATOM     10  C14 NON d   1     -37.728  22.246 -12.832  0.00  0.00     0.006 C 
ATOM     11  C15 NON d   1     -36.533  21.926 -13.727  0.00  0.00     0.013 C 
ATOM     12  C16 NON d   1     -36.634  23.019 -14.809  0.00  0.00     0.079 C 
ATOM     13  C17 NON d   1     -37.455  24.104 -14.115  0.00  0.00     0.135 C 
ATOM     14  O3  NON d   1     -37.872  25.111 -14.670  0.00  0.00    -0.297 OA
ATOM     15  C18 NON d   1     -37.637  23.777 -12.637  0.00  0.00     0.021 C 
ATOM     16  C19 NON d   1     -36.389  24.378 -11.964  0.00  0.00     0.024 C 
ATOM     17  C20 NON d   1     -38.898  24.256 -11.927  0.00  0.00     0.018 C 
ATOM     18  C21 NON d   1     -39.050  23.533 -10.570  0.00  0.00     0.011 C 
ATOM     19  C22 NON d   1     -39.193  22.006 -10.753  0.00  0.00     0.024 C 
ENDROOT
BRANCH   1  20
ATOM     20  O2  NON d   1     -40.616  18.564  -6.402  0.00  0.00    -0.318 OA
BRANCH  20  21
ATOM     21  C4  NON d   1     -40.642  19.127  -5.059  0.00  0.00     0.292 C 
ATOM     22  C3  NON d   1     -40.800  18.009  -3.983  0.00  0.00     0.171 C 
ATOM     23  C26 NON d   1     -39.908  18.123  -2.736  0.00  0.00     0.177 C 
ATOM     24  C25 NON d   1     -38.511  18.699  -2.975  0.00  0.00     0.180 C 
ATOM     25  C23 NON d   1     -38.325  19.371  -4.356  0.00  0.00     0.179 C 
ATOM     26  O4  NON d   1     -39.532  20.008  -4.798  0.00  0.00    -0.349 OA
BRANCH  22  27
ATOM     27  N1  NON d   1     -42.212  17.912  -3.560  0.00  0.00    -0.349 N 
ATOM     28  C2  NON d   1     -43.163  17.285  -4.320  0.00  0.00     0.214 C 
ATOM     29  C1  NON d   1     -44.518  17.254  -3.667  0.00  0.00     0.117 C 
ATOM     30  O1  NON d   1     -42.936  16.778  -5.415  0.00  0.00    -0.274 OA
ATOM     31  H4  NON d   1     -42.392  18.032  -2.571  0.00  0.00     0.163 HD
ENDBRANCH  22  27
BRANCH  23  32
ATOM     32  O7  NON d   1     -40.563  18.881  -1.689  0.00  0.00    -0.391 OA
ATOM     33  H35 NON d   1     -39.941  18.866  -0.935  0.00  0.00     0.210 HD
ENDBRANCH  23  32
BRANCH  24  34
ATOM     34  O6  NON d   1     -38.175  19.578  -1.884  0.00  0.00    -0.390 OA
ATOM     35  H33 NON d   1     -38.505  19.130  -1.076  0.00  0.00     0.210 HD
ENDBRANCH  24  34
BRANCH  25  36
ATOM     36  C24 NON d   1     -37.205  20.432  -4.267  0.00  0.00     0.198 C 
BRANCH  36  37
ATOM     37  O5  NON d   1     -37.645  21.594  -3.560  0.00  0.00    -0.398 OA
ATOM     38  H31 NON d   1     -38.493  21.355  -3.147  0.00  0.00     0.209 HD
ENDBRANCH  36  37
ENDBRANCH  25  36
ENDBRANCH  20  21
ENDBRANCH   1  20
TORSDOF 7
ENDMDL
MODEL 3
REMARK VINA RESULT:    -7.608      1.595      2.028
REMARK INTER + INTRA:         -14.429
REMARK INTER:                  -9.696
REMARK INTRA:                  -4.734
REMARK CONF_INDEPENDENT:        2.088
REMARK UNBOUND:                -4.734
REMARK  7 active torsions:
REMARK  status: ('A' for Active; 'I' for Inactive)
REMARK       I    between atoms: C2_2  and  N1_4 
REMARK    1  A    between atoms: C3_5  and  N1_4 
REMARK    2  A    between atoms: C4_6  and  O2_7 
REMARK    3  A    between atoms: O2_7  and  C5_8 
REMARK    4  A    between atoms: C23_28  and  C24_29 
REMARK    5  A    between atoms: C24_29  and  O5_30 
REMARK    6  A    between atoms: C25_31  and  O6_32 
REMARK    7  A    between atoms: C26_33  and  O7_34 
ROOT
ATOM      1  C5  NON d   1     -40.396  25.233  -0.220  0.00  0.00     0.072 C 
ATOM      2  C6  NON d   1     -40.633  25.754  -1.487  0.00  0.00     0.037 C 
ATOM      3  C7  NON d   1     -40.617  24.907  -2.613  0.00  0.00     0.011 C 
ATOM      4  C8  NON d   1     -40.368  23.523  -2.491  0.00  0.00    -0.047 C 
ATOM      5  C9  NON d   1     -40.003  23.031  -1.231  0.00  0.00    -0.049 C 
ATOM      6  C10 NON d   1     -39.994  23.901  -0.114  0.00  0.00     0.044 C 
ATOM      7  C11 NON d   1     -39.707  21.572  -0.987  0.00  0.00     0.039 C 
ATOM      8  C12 NON d   1     -39.708  20.670  -2.223  0.00  0.00     0.010 C 
ATOM      9  C13 NON d   1     -40.754  21.098  -3.245  0.00  0.00    -0.000 C 
ATOM     10  C14 NON d   1     -40.892  20.179  -4.469  0.00  0.00     0.006 C 
ATOM     11  C15 NON d   1     -40.881  18.660  -4.311  0.00  0.00     0.013 C 
ATOM     12  C16 NON d   1     -41.067  18.179  -5.763  0.00  0.00     0.079 C 
ATOM     13  C17 NON d   1     -40.594  19.382  -6.578  0.00  0.00     0.135 C 
ATOM     14  O3  NON d   1     -40.690  19.468  -7.794  0.00  0.00    -0.297 OA
ATOM     15  C18 NON d   1     -39.954  20.427  -5.672  0.00  0.00     0.021 C 
ATOM     16  C19 NON d   1     -38.480  19.989  -5.580  0.00  0.00     0.024 C 
ATOM     17  C20 NON d   1     -40.041  21.896  -6.067  0.00  0.00     0.018 C 
ATOM     18  C21 NON d   1     -39.654  22.791  -4.868  0.00  0.00     0.011 C 
ATOM     19  C22 NON d   1     -40.614  22.591  -3.676  0.00  0.00     0.024 C 
ENDROOT
BRANCH   1  20
ATOM     20  O2  NON d   1     -40.501  26.029   0.904  0.00  0.00    -0.318 OA
BRANCH  20  21
ATOM     21  C4  NON d   1     -40.593  25.255   2.134  0.00  0.00     0.292 C 
ATOM     22  C3  NON d   1     -39.317  25.439   3.012  0.00  0.00     0.171 C 
ATOM     23  C26 NON d   1     -39.542  25.644   4.518  0.00  0.00     0.177 C 
ATOM     24  C25 NON d   1     -40.796  26.435   4.896  0.00  0.00     0.180 C 
ATOM     25  C23 NON d   1     -41.803  26.627   3.738  0.00  0.00     0.179 C 
ATOM     26  O4  NON d   1     -41.815  25.494   2.858  0.00  0.00    -0.349 OA
BRANCH  22  27
ATOM     27  N1  NON d   1     -38.397  24.300   2.811  0.00  0.00    -0.349 N 
ATOM     28  C2  NON d   1     -37.443  24.294   1.828  0.00  0.00     0.214 C 
ATOM     29  C1  NON d   1     -36.582  23.060   1.848  0.00  0.00     0.117 C 
ATOM     30  O1  NON d   1     -37.286  25.208   1.024  0.00  0.00    -0.274 OA
ATOM     31  H4  NON d   1     -38.276  23.679   3.600  0.00  0.00     0.163 HD
ENDBRANCH  22  27
BRANCH  23  32
ATOM     32  O7  NON d   1     -39.546  24.379   5.226  0.00  0.00    -0.391 OA
ATOM     33  H35 NON d   1     -40.437  24.005   5.076  0.00  0.00     0.210 HD
ENDBRANCH  23  32
BRANCH  24  34
ATOM     34  O6  NON d   1     -41.399  25.830   6.056  0.00  0.00    -0.390 OA
ATOM     35  H33 NON d   1     -41.691  24.940   5.765  0.00  0.00     0.210 HD
ENDBRANCH  24  34
BRANCH  25  36
ATOM     36  C24 NON d   1     -43.223  26.825   4.316  0.00  0.00     0.198 C 
BRANCH  36  37
ATOM     37  O5  NON d   1     -43.714  25.622   4.910  0.00  0.00    -0.398 OA
ATOM     38  H31 NON d   1     -42.995  24.970   4.837  0.00  0.00     0.209 HD
ENDBRANCH  36  37
ENDBRANCH  25  36
ENDBRANCH  20  21
ENDBRANCH   1  20
TORSDOF 7
ENDMDL
MODEL 4
REMARK VINA RESULT:    -7.369      1.590      3.215
REMARK INTER + INTRA:         -13.652
REMARK INTER:                  -9.457
REMARK INTRA:                  -4.194
REMARK CONF_INDEPENDENT:        2.088
REMARK UNBOUND:                -4.194
REMARK  7 active torsions:
REMARK  status: ('A' for Active; 'I' for Inactive)
REMARK       I    between atoms: C2_2  and  N1_4 
REMARK    1  A    between atoms: C3_5  and  N1_4 
REMARK    2  A    between atoms: C4_6  and  O2_7 
REMARK    3  A    between atoms: O2_7  and  C5_8 
REMARK    4  A    between atoms: C23_28  and  C24_29 
REMARK    5  A    between atoms: C24_29  and  O5_30 
REMARK    6  A    between atoms: C25_31  and  O6_32 
REMARK    7  A    between atoms: C26_33  and  O7_34 
ROOT
ATOM      1  C5  NON d   1     -41.070  24.152  -0.317  0.00  0.00     0.072 C 
ATOM      2  C6  NON d   1     -41.194  24.867  -1.503  0.00  0.00     0.037 C 
ATOM      3  C7  NON d   1     -40.949  24.235  -2.738  0.00  0.00     0.011 C 
ATOM      4  C8  NON d   1     -40.580  22.875  -2.810  0.00  0.00    -0.047 C 
ATOM      5  C9  NON d   1     -40.332  22.199  -1.608  0.00  0.00    -0.049 C 
ATOM      6  C10 NON d   1     -40.554  22.856  -0.374  0.00  0.00     0.044 C 
ATOM      7  C11 NON d   1     -39.925  20.747  -1.566  0.00  0.00     0.039 C 
ATOM      8  C12 NON d   1     -39.677  20.079  -2.921  0.00  0.00     0.010 C 
ATOM      9  C13 NON d   1     -40.622  20.598  -3.998  0.00  0.00    -0.000 C 
ATOM     10  C14 NON d   1     -40.509  19.901  -5.363  0.00  0.00     0.006 C 
ATOM     11  C15 NON d   1     -40.366  18.384  -5.456  0.00  0.00     0.013 C 
ATOM     12  C16 NON d   1     -40.315  18.152  -6.979  0.00  0.00     0.079 C 
ATOM     13  C17 NON d   1     -39.865  19.512  -7.510  0.00  0.00     0.135 C 
ATOM     14  O3  NON d   1     -39.812  19.803  -8.696  0.00  0.00    -0.297 OA
ATOM     15  C18 NON d   1     -39.454  20.428  -6.362  0.00  0.00     0.021 C 
ATOM     16  C19 NON d   1     -37.967  20.095  -6.133  0.00  0.00     0.024 C 
ATOM     17  C20 NON d   1     -39.637  21.933  -6.519  0.00  0.00     0.018 C 
ATOM     18  C21 NON d   1     -39.498  22.630  -5.148  0.00  0.00     0.011 C 
ATOM     19  C22 NON d   1     -40.578  22.150  -4.154  0.00  0.00     0.024 C 
ENDROOT
BRANCH   1  20
ATOM     20  O2  NON d   1     -41.398  24.727   0.895  0.00  0.00    -0.318 OA
BRANCH  20  21
ATOM     21  C4  NON d   1     -40.359  25.616   1.394  0.00  0.00     0.292 C 
ATOM     22  C3  NON d   1     -40.130  25.413   2.924  0.00  0.00     0.171 C 
ATOM     23  C26 NON d   1     -38.670  25.368   3.401  0.00  0.00     0.177 C 
ATOM     24  C25 NON d   1     -37.680  24.717   2.434  0.00  0.00     0.180 C 
ATOM     25  C23 NON d   1     -38.232  24.499   1.005  0.00  0.00     0.179 C 
ATOM     26  O4  NON d   1     -39.141  25.543   0.628  0.00  0.00    -0.349 OA
BRANCH  22  27
ATOM     27  N1  NON d   1     -40.855  26.452   3.684  0.00  0.00    -0.349 N 
ATOM     28  C2  NON d   1     -42.026  26.191   4.347  0.00  0.00     0.214 C 
ATOM     29  C1  NON d   1     -42.555  27.380   5.102  0.00  0.00     0.117 C 
ATOM     30  O1  NON d   1     -42.581  25.097   4.345  0.00  0.00    -0.274 OA
ATOM     31  H4  NON d   1     -40.314  27.258   3.967  0.00  0.00     0.163 HD
ENDBRANCH  22  27
BRANCH  23  32
ATOM     32  O7  NON d   1     -38.192  26.688   3.755  0.00  0.00    -0.391 OA
ATOM     33  H35 NON d   1     -37.281  26.551   4.083  0.00  0.00     0.210 HD
ENDBRANCH  23  32
BRANCH  24  34
ATOM     34  O6  NON d   1     -36.453  25.473   2.441  0.00  0.00    -0.390 OA
ATOM     35  H33 NON d   1     -36.336  25.772   3.368  0.00  0.00     0.210 HD
ENDBRANCH  24  34
BRANCH  25  36
ATOM     36  C24 NON d   1     -37.060  24.469  -0.003  0.00  0.00     0.198 C 
BRANCH  36  37
ATOM     37  O5  NON d   1     -36.432  25.748  -0.106  0.00  0.00    -0.398 OA
ATOM     38  H31 NON d   1     -36.945  26.350   0.461  0.00  0.00     0.209 HD
ENDBRANCH  36  37
ENDBRANCH  25  36
ENDBRANCH  20  21
ENDBRANCH   1  20
TORSDOF 7
ENDMDL
MODEL 5
REMARK VINA RESULT:    -7.247      1.443      2.447
REMARK INTER + INTRA:         -14.488
REMARK INTER:                  -9.335
REMARK INTRA:                  -5.153
REMARK CONF_INDEPENDENT:        2.088
REMARK UNBOUND:                -5.153
REMARK  7 active torsions:
REMARK  status: ('A' for Active; 'I' for Inactive)
REMARK       I    between atoms: C2_2  and  N1_4 
REMARK    1  A    between atoms: C3_5  and  N1_4 
REMARK    2  A    between atoms: C4_6  and  O2_7 
REMARK    3  A    between atoms: O2_7  and  C5_8 
REMARK    4  A    between atoms: C23_28  and  C24_29 
REMARK    5  A    between atoms: C24_29  and  O5_30 
REMARK    6  A    between atoms: C25_31  and  O6_32 
REMARK    7  A    between atoms: C26_33  and  O7_34 
ROOT
ATOM      1  C5  NON d   1     -40.589  23.256   0.820  0.00  0.00     0.072 C 
ATOM      2  C6  NON d   1     -40.055  21.972   0.854  0.00  0.00     0.037 C 
ATOM      3  C7  NON d   1     -39.921  21.231  -0.336  0.00  0.00     0.011 C 
ATOM      4  C8  NON d   1     -40.315  21.761  -1.583  0.00  0.00    -0.047 C 
ATOM      5  C9  NON d   1     -40.969  22.999  -1.592  0.00  0.00    -0.049 C 
ATOM      6  C10 NON d   1     -41.124  23.720  -0.383  0.00  0.00     0.044 C 
ATOM      7  C11 NON d   1     -41.440  23.657  -2.865  0.00  0.00     0.039 C 
ATOM      8  C12 NON d   1     -41.273  22.837  -4.147  0.00  0.00     0.010 C 
ATOM      9  C13 NON d   1     -40.007  21.989  -4.124  0.00  0.00    -0.000 C 
ATOM     10  C14 NON d   1     -39.710  21.215  -5.418  0.00  0.00     0.006 C 
ATOM     11  C15 NON d   1     -39.891  21.877  -6.782  0.00  0.00     0.013 C 
ATOM     12  C16 NON d   1     -39.461  20.757  -7.749  0.00  0.00     0.079 C 
ATOM     13  C17 NON d   1     -39.649  19.496  -6.906  0.00  0.00     0.135 C 
ATOM     14  O3  NON d   1     -39.303  18.377  -7.258  0.00  0.00    -0.297 OA
ATOM     15  C18 NON d   1     -40.361  19.825  -5.599  0.00  0.00     0.021 C 
ATOM     16  C19 NON d   1     -41.856  19.734  -5.955  0.00  0.00     0.024 C 
ATOM     17  C20 NON d   1     -40.062  18.980  -4.366  0.00  0.00     0.018 C 
ATOM     18  C21 NON d   1     -40.599  19.683  -3.099  0.00  0.00     0.011 C 
ATOM     19  C22 NON d   1     -39.921  21.052  -2.878  0.00  0.00     0.024 C 
ENDROOT
BRANCH   1  20
ATOM     20  O2  NON d   1     -40.640  24.033   1.960  0.00  0.00    -0.318 OA
BRANCH  20  21
ATOM     21  C4  NON d   1     -39.323  24.289   2.525  0.00  0.00     0.292 C 
ATOM     22  C3  NON d   1     -38.382  24.963   1.478  0.00  0.00     0.171 C 
ATOM     23  C26 NON d   1     -37.523  26.134   1.979  0.00  0.00     0.177 C 
ATOM     24  C25 NON d   1     -38.175  27.024   3.040  0.00  0.00     0.180 C 
ATOM     25  C23 NON d   1     -39.455  26.430   3.673  0.00  0.00     0.179 C 
ATOM     26  O4  NON d   1     -39.376  25.001   3.776  0.00  0.00    -0.349 OA
BRANCH  22  27
ATOM     27  N1  NON d   1     -37.503  23.948   0.862  0.00  0.00    -0.349 N 
ATOM     28  C2  NON d   1     -37.504  23.700  -0.486  0.00  0.00     0.214 C 
ATOM     29  C1  NON d   1     -36.487  22.670  -0.898  0.00  0.00     0.117 C 
ATOM     30  O1  NON d   1     -38.241  24.271  -1.284  0.00  0.00    -0.274 OA
ATOM     31  H4  NON d   1     -36.691  23.675   1.399  0.00  0.00     0.163 HD
ENDBRANCH  22  27
BRANCH  23  32
ATOM     32  O7  NON d   1     -36.240  25.673   2.469  0.00  0.00    -0.391 OA
ATOM     33  H35 NON d   1     -36.383  25.475   3.416  0.00  0.00     0.210 HD
ENDBRANCH  23  32
BRANCH  24  34
ATOM     34  O6  NON d   1     -37.186  27.380   4.025  0.00  0.00    -0.390 OA
ATOM     35  H33 NON d   1     -36.947  26.538   4.470  0.00  0.00     0.210 HD
ENDBRANCH  24  34
BRANCH  25  36
ATOM     36  C24 NON d   1     -39.654  27.022   5.087  0.00  0.00     0.198 C 
BRANCH  36  37
ATOM     37  O5  NON d   1     -38.604  26.622   5.969  0.00  0.00    -0.398 OA
ATOM     38  H31 NON d   1     -38.063  25.981   5.476  0.00  0.00     0.209 HD
ENDBRANCH  36  37
ENDBRANCH  25  36
ENDBRANCH  20  21
ENDBRANCH   1  20
TORSDOF 7
ENDMDL
MODEL 6
REMARK VINA RESULT:    -7.148      3.138      9.881
REMARK INTER + INTRA:         -14.174
REMARK INTER:                  -9.236
REMARK INTRA:                  -4.938
REMARK CONF_INDEPENDENT:        2.088
REMARK UNBOUND:                -4.938
REMARK  7 active torsions:
REMARK  status: ('A' for Active; 'I' for Inactive)
REMARK       I    between atoms: C2_2  and  N1_4 
REMARK    1  A    between atoms: C3_5  and  N1_4 
REMARK    2  A    between atoms: C4_6  and  O2_7 
REMARK    3  A    between atoms: O2_7  and  C5_8 
REMARK    4  A    between atoms: C23_28  and  C24_29 
REMARK    5  A    between atoms: C24_29  and  O5_30 
REMARK    6  A    between atoms: C25_31  and  O6_32 
REMARK    7  A    between atoms: C26_33  and  O7_34 
ROOT
ATOM      1  C5  NON d   1     -38.311  19.393  -4.698  0.00  0.00     0.072 C 
ATOM      2  C6  NON d   1     -38.775  18.716  -3.575  0.00  0.00     0.037 C 
ATOM      3  C7  NON d   1     -39.183  19.437  -2.435  0.00  0.00     0.011 C 
ATOM      4  C8  NON d   1     -39.138  20.847  -2.399  0.00  0.00    -0.047 C 
ATOM      5  C9  NON d   1     -38.550  21.512  -3.482  0.00  0.00    -0.049 C 
ATOM      6  C10 NON d   1     -38.117  20.773  -4.609  0.00  0.00     0.044 C 
ATOM      7  C11 NON d   1     -38.442  23.015  -3.546  0.00  0.00     0.039 C 
ATOM      8  C12 NON d   1     -38.903  23.776  -2.301  0.00  0.00     0.010 C 
ATOM      9  C13 NON d   1     -40.092  23.103  -1.625  0.00  0.00    -0.000 C 
ATOM     10  C14 NON d   1     -40.683  23.862  -0.427  0.00  0.00     0.006 C 
ATOM     11  C15 NON d   1     -40.878  25.376  -0.480  0.00  0.00     0.013 C 
ATOM     12  C16 NON d   1     -41.502  25.674   0.897  0.00  0.00     0.079 C 
ATOM     13  C17 NON d   1     -41.064  24.471   1.732  0.00  0.00     0.135 C 
ATOM     14  O3  NON d   1     -41.450  24.248   2.870  0.00  0.00    -0.297 OA
ATOM     15  C18 NON d   1     -40.053  23.625   0.965  0.00  0.00     0.021 C 
ATOM     16  C19 NON d   1     -38.695  24.272   1.298  0.00  0.00     0.024 C 
ATOM     17  C20 NON d   1     -39.999  22.125   1.229  0.00  0.00     0.018 C 
ATOM     18  C21 NON d   1     -39.180  21.421   0.124  0.00  0.00     0.011 C 
ATOM     19  C22 NON d   1     -39.826  21.607  -1.267  0.00  0.00     0.024 C 
ENDROOT
BRANCH   1  20
ATOM     20  O2  NON d   1     -37.997  18.711  -5.857  0.00  0.00    -0.318 OA
BRANCH  20  21
ATOM     21  C4  NON d   1     -38.979  18.915  -6.913  0.00  0.00     0.292 C 
ATOM     22  C3  NON d   1     -40.252  19.633  -6.367  0.00  0.00     0.171 C 
ATOM     23  C26 NON d   1     -40.831  20.762  -7.234  0.00  0.00     0.177 C 
ATOM     24  C25 NON d   1     -39.803  21.601  -7.997  0.00  0.00     0.180 C 
ATOM     25  C23 NON d   1     -38.382  20.991  -8.034  0.00  0.00     0.179 C 
ATOM     26  O4  NON d   1     -38.426  19.557  -8.078  0.00  0.00    -0.349 OA
BRANCH  22  27
ATOM     27  N1  NON d   1     -41.313  18.641  -6.094  0.00  0.00    -0.349 N 
ATOM     28  C2  NON d   1     -41.975  18.588  -4.895  0.00  0.00     0.214 C 
ATOM     29  C1  NON d   1     -43.054  17.540  -4.862  0.00  0.00     0.117 C 
ATOM     30  O1  NON d   1     -41.732  19.331  -3.949  0.00  0.00    -0.274 OA
ATOM     31  H4  NON d   1     -41.752  18.223  -6.903  0.00  0.00     0.163 HD
ENDBRANCH  22  27
BRANCH  23  32
ATOM     32  O7  NON d   1     -41.817  20.255  -8.167  0.00  0.00    -0.391 OA
ATOM     33  H35 NON d   1     -41.808  20.884  -8.916  0.00  0.00     0.210 HD
ENDBRANCH  23  32
BRANCH  24  34
ATOM     34  O6  NON d   1     -40.315  21.886  -9.313  0.00  0.00    -0.390 OA
ATOM     35  H33 NON d   1     -40.444  21.010  -9.738  0.00  0.00     0.210 HD
ENDBRANCH  24  34
BRANCH  25  36
ATOM     36  C24 NON d   1     -37.631  21.506  -9.283  0.00  0.00     0.198 C 
BRANCH  36  37
ATOM     37  O5  NON d   1     -38.220  21.004 -10.485  0.00  0.00    -0.398 OA
ATOM     38  H31 NON d   1     -38.962  20.438 -10.209  0.00  0.00     0.209 HD
ENDBRANCH  36  37
ENDBRANCH  25  36
ENDBRANCH  20  21
ENDBRANCH   1  20
TORSDOF 7
ENDMDL
MODEL 7
REMARK VINA RESULT:    -7.135      5.485      7.996
REMARK INTER + INTRA:         -13.973
REMARK INTER:                  -9.223
REMARK INTRA:                  -4.750
REMARK CONF_INDEPENDENT:        2.088
REMARK UNBOUND:                -4.750
REMARK  7 active torsions:
REMARK  status: ('A' for Active; 'I' for Inactive)
REMARK       I    between atoms: C2_2  and  N1_4 
REMARK    1  A    between atoms: C3_5  and  N1_4 
REMARK    2  A    between atoms: C4_6  and  O2_7 
REMARK    3  A    between atoms: O2_7  and  C5_8 
REMARK    4  A    between atoms: C23_28  and  C24_29 
REMARK    5  A    between atoms: C24_29  and  O5_30 
REMARK    6  A    between atoms: C25_31  and  O6_32 
REMARK    7  A    between atoms: C26_33  and  O7_34 
ROOT
ATOM      1  C5  NON d   1     -40.367  21.487  -4.380  0.00  0.00     0.072 C 
ATOM      2  C6  NON d   1     -39.231  22.287  -4.438  0.00  0.00     0.037 C 
ATOM      3  C7  NON d   1     -38.588  22.511  -5.671  0.00  0.00     0.011 C 
ATOM      4  C8  NON d   1     -39.071  21.943  -6.869  0.00  0.00    -0.047 C 
ATOM      5  C9  NON d   1     -40.135  21.036  -6.782  0.00  0.00    -0.049 C 
ATOM      6  C10 NON d   1     -40.753  20.797  -5.530  0.00  0.00     0.044 C 
ATOM      7  C11 NON d   1     -40.727  20.363  -7.995  0.00  0.00     0.039 C 
ATOM      8  C12 NON d   1     -40.019  20.632  -9.325  0.00  0.00     0.010 C 
ATOM      9  C13 NON d   1     -39.468  22.050  -9.405  0.00  0.00    -0.000 C 
ATOM     10  C14 NON d   1     -38.834  22.435 -10.751  0.00  0.00     0.006 C 
ATOM     11  C15 NON d   1     -39.497  22.038 -12.068  0.00  0.00     0.013 C 
ATOM     12  C16 NON d   1     -38.540  22.645 -13.112  0.00  0.00     0.079 C 
ATOM     13  C17 NON d   1     -37.234  22.784 -12.331  0.00  0.00     0.135 C 
ATOM     14  O3  NON d   1     -36.234  23.343 -12.757  0.00  0.00    -0.297 OA
ATOM     15  C18 NON d   1     -37.344  22.092 -10.976  0.00  0.00     0.021 C 
ATOM     16  C19 NON d   1     -36.942  20.634 -11.268  0.00  0.00     0.024 C 
ATOM     17  C20 NON d   1     -36.534  22.635  -9.805  0.00  0.00     0.018 C 
ATOM     18  C21 NON d   1     -37.047  22.031  -8.479  0.00  0.00     0.011 C 
ATOM     19  C22 NON d   1     -38.522  22.407  -8.216  0.00  0.00     0.024 C 
ENDROOT
BRANCH   1  20
ATOM     20  O2  NON d   1     -41.065  21.333  -3.198  0.00  0.00    -0.318 OA
BRANCH  20  21
ATOM     21  C4  NON d   1     -40.597  20.200  -2.413  0.00  0.00     0.292 C 
ATOM     22  C3  NON d   1     -40.509  18.909  -3.284  0.00  0.00     0.171 C 
ATOM     23  C26 NON d   1     -39.254  18.040  -3.101  0.00  0.00     0.177 C 
ATOM     24  C25 NON d   1     -37.960  18.803  -2.812  0.00  0.00     0.180 C 
ATOM     25  C23 NON d   1     -38.165  20.289  -2.431  0.00  0.00     0.179 C 
ATOM     26  O4  NON d   1     -39.381  20.479  -1.693  0.00  0.00    -0.349 OA
BRANCH  22  27
ATOM     27  N1  NON d   1     -41.709  18.074  -3.073  0.00  0.00    -0.349 N 
ATOM     28  C2  NON d   1     -42.715  17.990  -4.000  0.00  0.00     0.214 C 
ATOM     29  C1  NON d   1     -43.808  17.036  -3.602  0.00  0.00     0.117 C 
ATOM     30  O1  NON d   1     -42.719  18.610  -5.059  0.00  0.00    -0.274 OA
ATOM     31  H4  NON d   1     -41.624  17.332  -2.391  0.00  0.00     0.163 HD
ENDBRANCH  22  27
BRANCH  23  32
ATOM     32  O7  NON d   1     -39.454  17.037  -2.075  0.00  0.00    -0.391 OA
ATOM     33  H35 NON d   1     -39.192  17.470  -1.238  0.00  0.00     0.210 HD
ENDBRANCH  23  32
BRANCH  24  34
ATOM     34  O6  NON d   1     -37.201  18.081  -1.822  0.00  0.00    -0.390 OA
ATOM     35  H33 NON d   1     -37.737  18.123  -1.000  0.00  0.00     0.210 HD
ENDBRANCH  24  34
BRANCH  25  36
ATOM     36  C24 NON d   1     -36.977  20.770  -1.569  0.00  0.00     0.198 C 
BRANCH  36  37
ATOM     37  O5  NON d   1     -36.949  20.104  -0.305  0.00  0.00    -0.398 OA
ATOM     38  H31 NON d   1     -37.741  19.538  -0.278  0.00  0.00     0.209 HD
ENDBRANCH  36  37
ENDBRANCH  25  36
ENDBRANCH  20  21
ENDBRANCH   1  20
TORSDOF 7
ENDMDL
MODEL 8
REMARK VINA RESULT:    -6.934      1.889      3.203
REMARK INTER + INTRA:         -14.005
REMARK INTER:                  -9.022
REMARK INTRA:                  -4.983
REMARK CONF_INDEPENDENT:        2.088
REMARK UNBOUND:                -4.983
REMARK  7 active torsions:
REMARK  status: ('A' for Active; 'I' for Inactive)
REMARK       I    between atoms: C2_2  and  N1_4 
REMARK    1  A    between atoms: C3_5  and  N1_4 
REMARK    2  A    between atoms: C4_6  and  O2_7 
REMARK    3  A    between atoms: O2_7  and  C5_8 
REMARK    4  A    between atoms: C23_28  and  C24_29 
REMARK    5  A    between atoms: C24_29  and  O5_30 
REMARK    6  A    between atoms: C25_31  and  O6_32 
REMARK    7  A    between atoms: C26_33  and  O7_34 
ROOT
ATOM      1  C5  NON d   1     -40.586  23.880  -1.623  0.00  0.00     0.072 C 
ATOM      2  C6  NON d   1     -40.690  22.509  -1.416  0.00  0.00     0.037 C 
ATOM      3  C7  NON d   1     -40.524  21.617  -2.494  0.00  0.00     0.011 C 
ATOM      4  C8  NON d   1     -40.247  22.081  -3.798  0.00  0.00    -0.047 C 
ATOM      5  C9  NON d   1     -40.273  23.463  -4.022  0.00  0.00    -0.049 C 
ATOM      6  C10 NON d   1     -40.470  24.347  -2.933  0.00  0.00     0.044 C 
ATOM      7  C11 NON d   1     -39.999  24.069  -5.376  0.00  0.00     0.039 C 
ATOM      8  C12 NON d   1     -39.810  23.080  -6.529  0.00  0.00     0.010 C 
ATOM      9  C13 NON d   1     -39.103  21.806  -6.082  0.00  0.00    -0.000 C 
ATOM     10  C14 NON d   1     -38.780  20.806  -7.203  0.00  0.00     0.006 C 
ATOM     11  C15 NON d   1     -38.230  21.286  -8.544  0.00  0.00     0.013 C 
ATOM     12  C16 NON d   1     -38.043  19.964  -9.313  0.00  0.00     0.079 C 
ATOM     13  C17 NON d   1     -39.000  19.017  -8.591  0.00  0.00     0.135 C 
ATOM     14  O3  NON d   1     -39.075  17.817  -8.810  0.00  0.00    -0.297 OA
ATOM     15  C18 NON d   1     -39.870  19.785  -7.601  0.00  0.00     0.021 C 
ATOM     16  C19 NON d   1     -41.070  20.255  -8.444  0.00  0.00     0.024 C 
ATOM     17  C20 NON d   1     -40.357  19.073  -6.344  0.00  0.00     0.018 C 
ATOM     18  C21 NON d   1     -40.906  20.103  -5.331  0.00  0.00     0.011 C 
ATOM     19  C22 NON d   1     -39.814  21.100  -4.885  0.00  0.00     0.024 C 
ENDROOT
BRANCH   1  20
ATOM     20  O2  NON d   1     -40.650  24.763  -0.563  0.00  0.00    -0.318 OA
BRANCH  20  21
ATOM     21  C4  NON d   1     -40.247  24.158   0.698  0.00  0.00     0.292 C 
ATOM     22  C3  NON d   1     -38.729  24.389   0.974  0.00  0.00     0.171 C 
ATOM     23  C26 NON d   1     -38.344  24.796   2.405  0.00  0.00     0.177 C 
ATOM     24  C25 NON d   1     -39.351  25.690   3.130  0.00  0.00     0.180 C 
ATOM     25  C23 NON d   1     -40.734  25.782   2.443  0.00  0.00     0.179 C 
ATOM     26  O4  NON d   1     -41.086  24.548   1.802  0.00  0.00    -0.349 OA
BRANCH  22  27
ATOM     27  N1  NON d   1     -37.957  23.190   0.588  0.00  0.00    -0.349 N 
ATOM     28  C2  NON d   1     -37.421  23.035  -0.663  0.00  0.00     0.214 C 
ATOM     29  C1  NON d   1     -36.626  21.767  -0.813  0.00  0.00     0.117 C 
ATOM     30  O1  NON d   1     -37.553  23.854  -1.568  0.00  0.00    -0.274 OA
ATOM     31  H4  NON d   1     -37.568  22.646   1.347  0.00  0.00     0.163 HD
ENDBRANCH  22  27
BRANCH  23  32
ATOM     32  O7  NON d   1     -38.063  23.634   3.224  0.00  0.00    -0.391 OA
ATOM     33  H35 NON d   1     -37.740  23.992   4.074  0.00  0.00     0.210 HD
ENDBRANCH  23  32
BRANCH  24  34
ATOM     34  O6  NON d   1     -39.446  25.269   4.505  0.00  0.00    -0.390 OA
ATOM     35  H33 NON d   1     -39.771  24.344   4.473  0.00  0.00     0.210 HD
ENDBRANCH  24  34
BRANCH  25  36
ATOM     36  C24 NON d   1     -41.813  26.123   3.497  0.00  0.00     0.198 C 
BRANCH  36  37
ATOM     37  O5  NON d   1     -42.060  25.014   4.363  0.00  0.00    -0.398 OA
ATOM     38  H31 NON d   1     -41.402  24.335   4.131  0.00  0.00     0.209 HD
ENDBRANCH  36  37
ENDBRANCH  25  36
ENDBRANCH  20  21
ENDBRANCH   1  20
TORSDOF 7
ENDMDL
MODEL 9
REMARK VINA RESULT:    -6.692      2.720     10.154
REMARK INTER + INTRA:         -13.426
REMARK INTER:                  -8.780
REMARK INTRA:                  -4.646
REMARK CONF_INDEPENDENT:        2.088
REMARK UNBOUND:                -4.646
REMARK  7 active torsions:
REMARK  status: ('A' for Active; 'I' for Inactive)
REMARK       I    between atoms: C2_2  and  N1_4 
REMARK    1  A    between atoms: C3_5  and  N1_4 
REMARK    2  A    between atoms: C4_6  and  O2_7 
REMARK    3  A    between atoms: O2_7  and  C5_8 
REMARK    4  A    between atoms: C23_28  and  C24_29 
REMARK    5  A    between atoms: C24_29  and  O5_30 
REMARK    6  A    between atoms: C25_31  and  O6_32 
REMARK    7  A    between atoms: C26_33  and  O7_34 
ROOT
ATOM      1  C5  NON d   1     -40.831  22.673  -4.046  0.00  0.00     0.072 C 
ATOM      2  C6  NON d   1     -40.455  21.757  -3.070  0.00  0.00     0.037 C 
ATOM      3  C7  NON d   1     -40.315  22.169  -1.730  0.00  0.00     0.011 C 
ATOM      4  C8  NON d   1     -40.553  23.505  -1.341  0.00  0.00    -0.047 C 
ATOM      5  C9  NON d   1     -40.804  24.446  -2.348  0.00  0.00    -0.049 C 
ATOM      6  C10 NON d   1     -40.912  24.022  -3.695  0.00  0.00     0.044 C 
ATOM      7  C11 NON d   1     -41.065  25.901  -2.048  0.00  0.00     0.039 C 
ATOM      8  C12 NON d   1     -40.919  26.323  -0.585  0.00  0.00     0.010 C 
ATOM      9  C13 NON d   1     -41.376  25.230   0.375  0.00  0.00    -0.000 C 
ATOM     10  C14 NON d   1     -41.362  25.614   1.863  0.00  0.00     0.006 C 
ATOM     11  C15 NON d   1     -41.865  26.980   2.322  0.00  0.00     0.013 C 
ATOM     12  C16 NON d   1     -41.684  26.899   3.850  0.00  0.00     0.079 C 
ATOM     13  C17 NON d   1     -40.623  25.811   4.005  0.00  0.00     0.135 C 
ATOM     14  O3  NON d   1     -40.270  25.344   5.079  0.00  0.00    -0.297 OA
ATOM     15  C18 NON d   1     -40.043  25.429   2.648  0.00  0.00     0.021 C 
ATOM     16  C19 NON d   1     -38.894  26.432   2.436  0.00  0.00     0.024 C 
ATOM     17  C20 NON d   1     -39.543  24.005   2.436  0.00  0.00     0.018 C 
ATOM     18  C21 NON d   1     -39.333  23.735   0.929  0.00  0.00     0.011 C 
ATOM     19  C22 NON d   1     -40.654  23.867   0.139  0.00  0.00     0.024 C 
ENDROOT
BRANCH   1  20
ATOM     20  O2  NON d   1     -41.065  22.268  -5.345  0.00  0.00    -0.318 OA
BRANCH  20  21
ATOM     21  C4  NON d   1     -40.169  21.203  -5.772  0.00  0.00     0.292 C 
ATOM     22  C3  NON d   1     -40.951  20.067  -6.500  0.00  0.00     0.171 C 
ATOM     23  C26 NON d   1     -40.315  19.505  -7.781  0.00  0.00     0.177 C 
ATOM     24  C25 NON d   1     -39.554  20.519  -8.639  0.00  0.00     0.180 C 
ATOM     25  C23 NON d   1     -39.269  21.866  -7.934  0.00  0.00     0.179 C 
ATOM     26  O4  NON d   1     -39.042  21.686  -6.528  0.00  0.00    -0.349 OA
BRANCH  22  27
ATOM     27  N1  NON d   1     -41.214  18.954  -5.564  0.00  0.00    -0.349 N 
ATOM     28  C2  NON d   1     -42.441  18.757  -4.987  0.00  0.00     0.214 C 
ATOM     29  C1  NON d   1     -42.495  17.531  -4.117  0.00  0.00     0.117 C 
ATOM     30  O1  NON d   1     -43.408  19.489  -5.174  0.00  0.00    -0.274 OA
ATOM     31  H4  NON d   1     -40.573  18.173  -5.608  0.00  0.00     0.163 HD
ENDBRANCH  22  27
BRANCH  23  32
ATOM     32  O7  NON d   1     -39.447  18.383  -7.489  0.00  0.00    -0.391 OA
ATOM     33  H35 NON d   1     -38.786  18.376  -8.210  0.00  0.00     0.210 HD
ENDBRANCH  23  32
BRANCH  24  34
ATOM     34  O6  NON d   1     -38.357  19.898  -9.146  0.00  0.00    -0.390 OA
ATOM     35  H33 NON d   1     -37.802  19.718  -8.357  0.00  0.00     0.210 HD
ENDBRANCH  24  34
BRANCH  25  36
ATOM     36  C24 NON d   1     -38.019  22.523  -8.561  0.00  0.00     0.198 C 
BRANCH  36  37
ATOM     37  O5  NON d   1     -36.851  21.731  -8.342  0.00  0.00    -0.398 OA
ATOM     38  H31 NON d   1     -37.114  21.022  -7.728  0.00  0.00     0.209 HD
ENDBRANCH  36  37
ENDBRANCH  25  36
ENDBRANCH  20  21
ENDBRANCH   1  20
TORSDOF 7
ENDMDL
