MODEL 1
REMARK VINA RESULT:   -31.219      0.000      0.000
REMARK INTER + INTRA:         -34.139
REMARK INTER:                 -33.009
REMARK INTRA:                  -1.130
REMARK CONF_INDEPENDENT:        1.790
REMARK UNBOUND:                -1.130
REMARK  6 active torsions:
REMARK  status: ('A' for Active; 'I' for Inactive)
REMARK    1  A    between atoms: C1_2  and  C2_3 
REMARK       I    between atoms: C1_2  and  N3_15 
REMARK    2  A    between atoms: C2_3  and  S1_4 
REMARK    3  A    between atoms: S1_4  and  C3_5 
REMARK    4  A    between atoms: C3_5  and  C4_6 
REMARK    5  A    between atoms: N3_15  and  C11_16 
REMARK    6  A    between atoms: C15_20  and  C16_21 
ROOT
ATOM      1  O1  NON d   1     -40.162  18.012  -4.455  0.00  0.00    -0.272 OA
ATOM      2  C1  NON d   1     -40.567  17.703  -3.333  0.00  0.00     0.231 C 
ATOM      3  N3  NON d   1     -41.899  17.479  -3.018  0.00  0.00    -0.327 N 
ATOM      4  H10 NON d   1     -42.110  16.904  -2.211  0.00  0.00     0.169 HD
ENDROOT
BRANCH   2   5
ATOM      5  C2  NON d   1     -39.622  17.532  -2.149  0.00  0.00     0.177 C 
BRANCH   5   6
ATOM      6  S1  NON d   1     -37.927  18.119  -2.535  0.00  0.00    -0.152 SA
BRANCH   6   7
ATOM      7  C3  NON d   1     -38.268  19.784  -3.177  0.00  0.00     0.152 C 
BRANCH   7   8
ATOM      8  C4  NON d   1     -39.076  20.715  -2.331  0.00  0.00     0.114 A 
ATOM      9  N1  NON d   1     -39.743  21.758  -2.794  0.00  0.00    -0.233 NA
ATOM     10  C5  NON d   1     -40.283  22.382  -1.695  0.00  0.00     0.085 A 
ATOM     11  C6  NON d   1     -41.061  23.546  -1.610  0.00  0.00     0.034 A 
ATOM     12  C10 NON d   1     -39.942  21.708  -0.531  0.00  0.00     0.062 A 
ATOM     13  C7  NON d   1     -41.432  24.015  -0.343  0.00  0.00     0.002 A 
ATOM     14  C8  NON d   1     -41.044  23.335   0.814  0.00  0.00     0.002 A 
ATOM     15  C9  NON d   1     -40.297  22.153   0.744  0.00  0.00     0.032 A 
ATOM     16  N2  NON d   1     -39.236  20.616  -0.970  0.00  0.00    -0.342 N 
ATOM     17  H9  NON d   1     -38.817  19.906  -0.377  0.00  0.00     0.167 HD
ENDBRANCH   7   8
ENDBRANCH   6   7
ENDBRANCH   5   6
ENDBRANCH   2   5
BRANCH   3  18
ATOM     18  C11 NON d   1     -42.988  17.826  -3.853  0.00  0.00     0.035 A 
ATOM     19  C12 NON d   1     -42.967  18.963  -4.664  0.00  0.00     0.029 A 
ATOM     20  C13 NON d   1     -44.054  19.289  -5.470  0.00  0.00     0.003 A 
ATOM     21  C14 NON d   1     -45.181  18.476  -5.472  0.00  0.00     0.014 A 
ATOM     22  C15 NON d   1     -45.244  17.334  -4.657  0.00  0.00    -0.004 A 
ATOM     23  C19 NON d   1     -44.140  17.030  -3.834  0.00  0.00     0.043 A 
BRANCH  22  24
ATOM     24  C16 NON d   1     -46.433  16.473  -4.680  0.00  0.00     0.088 A 
ATOM     25  C17 NON d   1     -47.040  15.790  -3.588  0.00  0.00     0.053 A 
ATOM     26  C18 NON d   1     -48.128  15.137  -4.110  0.00  0.00     0.111 A 
ATOM     27  N4  NON d   1     -48.135  15.439  -5.436  0.00  0.00    -0.289 N 
ATOM     28  N5  NON d   1     -47.122  16.237  -5.811  0.00  0.00    -0.175 NA
ATOM     29  H16 NON d   1     -48.799  15.140  -6.141  0.00  0.00     0.188 HD
ENDBRANCH  22  24
ENDBRANCH   3  18
TORSDOF 6
ENDMDL
MODEL 2
REMARK VINA RESULT:   -30.972      4.488      9.052
REMARK INTER + INTRA:         -33.555
REMARK INTER:                 -32.762
REMARK INTRA:                  -0.793
REMARK CONF_INDEPENDENT:        1.790
REMARK UNBOUND:                -0.793
REMARK  6 active torsions:
REMARK  status: ('A' for Active; 'I' for Inactive)
REMARK    1  A    between atoms: C1_2  and  C2_3 
REMARK       I    between atoms: C1_2  and  N3_15 
REMARK    2  A    between atoms: C2_3  and  S1_4 
REMARK    3  A    between atoms: S1_4  and  C3_5 
REMARK    4  A    between atoms: C3_5  and  C4_6 
REMARK    5  A    between atoms: N3_15  and  C11_16 
REMARK    6  A    between atoms: C15_20  and  C16_21 
ROOT
ATOM      1  O1  NON d   1     -40.035  18.745  -4.487  0.00  0.00    -0.272 OA
ATOM      2  C1  NON d   1     -41.109  18.788  -5.090  0.00  0.00     0.231 C 
ATOM      3  N3  NON d   1     -41.233  19.042  -6.448  0.00  0.00    -0.327 N 
ATOM      4  H10 NON d   1     -42.067  18.718  -6.922  0.00  0.00     0.169 HD
ENDROOT
BRANCH   2   5
ATOM      5  C2  NON d   1     -42.442  18.561  -4.388  0.00  0.00     0.177 C 
BRANCH   5   6
ATOM      6  S1  NON d   1     -43.373  17.161  -5.122  0.00  0.00    -0.152 SA
BRANCH   6   7
ATOM      7  C3  NON d   1     -45.024  17.897  -5.312  0.00  0.00     0.152 C 
BRANCH   7   8
ATOM      8  C4  NON d   1     -46.192  17.172  -4.728  0.00  0.00     0.114 A 
ATOM      9  N1  NON d   1     -47.089  16.505  -5.435  0.00  0.00    -0.233 NA
ATOM     10  C5  NON d   1     -48.023  16.053  -4.535  0.00  0.00     0.085 A 
ATOM     11  C6  NON d   1     -49.197  15.315  -4.747  0.00  0.00     0.034 A 
ATOM     12  C10 NON d   1     -47.696  16.449  -3.246  0.00  0.00     0.062 A 
ATOM     13  C7  NON d   1     -50.024  15.038  -3.651  0.00  0.00     0.002 A 
ATOM     14  C8  NON d   1     -49.685  15.480  -2.369  0.00  0.00     0.002 A 
ATOM     15  C9  NON d   1     -48.501  16.188  -2.135  0.00  0.00     0.032 A 
ATOM     16  N2  NON d   1     -46.494  17.096  -3.389  0.00  0.00    -0.342 N 
ATOM     17  H9  NON d   1     -45.964  17.532  -2.640  0.00  0.00     0.167 HD
ENDBRANCH   7   8
ENDBRANCH   6   7
ENDBRANCH   5   6
ENDBRANCH   2   5
BRANCH   3  18
ATOM     18  C11 NON d   1     -40.192  19.542  -7.267  0.00  0.00     0.035 A 
ATOM     19  C12 NON d   1     -38.927  18.949  -7.303  0.00  0.00     0.029 A 
ATOM     20  C13 NON d   1     -37.916  19.465  -8.109  0.00  0.00     0.003 A 
ATOM     21  C14 NON d   1     -38.161  20.587  -8.893  0.00  0.00     0.014 A 
ATOM     22  C15 NON d   1     -39.415  21.217  -8.869  0.00  0.00    -0.004 A 
ATOM     23  C19 NON d   1     -40.422  20.691  -8.033  0.00  0.00     0.043 A 
BRANCH  22  24
ATOM     24  C16 NON d   1     -39.668  22.391  -9.714  0.00  0.00     0.088 A 
ATOM     25  C17 NON d   1     -39.306  22.583 -11.078  0.00  0.00     0.053 A 
ATOM     26  C18 NON d   1     -39.778  23.824 -11.422  0.00  0.00     0.111 A 
ATOM     27  N4  NON d   1     -40.380  24.310 -10.304  0.00  0.00    -0.289 N 
ATOM     28  N5  NON d   1     -40.324  23.473  -9.256  0.00  0.00    -0.175 NA
ATOM     29  H16 NON d   1     -40.849  25.201 -10.185  0.00  0.00     0.188 HD
ENDBRANCH  22  24
ENDBRANCH   3  18
TORSDOF 6
ENDMDL
MODEL 3
REMARK VINA RESULT:   -30.410      6.080      7.602
REMARK INTER + INTRA:         -32.745
REMARK INTER:                 -32.199
REMARK INTRA:                  -0.546
REMARK CONF_INDEPENDENT:        1.790
REMARK UNBOUND:                -0.546
REMARK  6 active torsions:
REMARK  status: ('A' for Active; 'I' for Inactive)
REMARK    1  A    between atoms: C1_2  and  C2_3 
REMARK       I    between atoms: C1_2  and  N3_15 
REMARK    2  A    between atoms: C2_3  and  S1_4 
REMARK    3  A    between atoms: S1_4  and  C3_5 
REMARK    4  A    between atoms: C3_5  and  C4_6 
REMARK    5  A    between atoms: N3_15  and  C11_16 
REMARK    6  A    between atoms: C15_20  and  C16_21 
ROOT
ATOM      1  O1  NON d   1     -40.604  19.550  -5.396  0.00  0.00    -0.272 OA
ATOM      2  C1  NON d   1     -41.465  19.828  -6.232  0.00  0.00     0.231 C 
ATOM      3  N3  NON d   1     -42.808  19.501  -6.110  0.00  0.00    -0.327 N 
ATOM      4  H10 NON d   1     -43.483  20.049  -6.628  0.00  0.00     0.169 HD
ENDROOT
BRANCH   2   5
ATOM      5  C2  NON d   1     -41.135  20.578  -7.518  0.00  0.00     0.177 C 
BRANCH   5   6
ATOM      6  S1  NON d   1     -39.862  19.707  -8.510  0.00  0.00    -0.152 SA
BRANCH   6   7
ATOM      7  C3  NON d   1     -38.744  21.077  -8.931  0.00  0.00     0.152 C 
BRANCH   7   8
ATOM      8  C4  NON d   1     -38.639  21.487 -10.364  0.00  0.00     0.114 A 
ATOM      9  N1  NON d   1     -37.639  21.161 -11.165  0.00  0.00    -0.233 NA
ATOM     10  C5  NON d   1     -37.888  21.789 -12.361  0.00  0.00     0.085 A 
ATOM     11  C6  NON d   1     -37.138  21.804 -13.546  0.00  0.00     0.034 A 
ATOM     12  C10 NON d   1     -39.067  22.518 -12.296  0.00  0.00     0.062 A 
ATOM     13  C7  NON d   1     -37.585  22.593 -14.614  0.00  0.00     0.002 A 
ATOM     14  C8  NON d   1     -38.758  23.344 -14.507  0.00  0.00     0.002 A 
ATOM     15  C9  NON d   1     -39.536  23.313 -13.344  0.00  0.00     0.032 A 
ATOM     16  N2  NON d   1     -39.558  22.252 -11.042  0.00  0.00    -0.342 N 
ATOM     17  H9  NON d   1     -40.412  22.636 -10.647  0.00  0.00     0.167 HD
ENDBRANCH   7   8
ENDBRANCH   6   7
ENDBRANCH   5   6
ENDBRANCH   2   5
BRANCH   3  18
ATOM     18  C11 NON d   1     -43.326  18.589  -5.159  0.00  0.00     0.035 A 
ATOM     19  C12 NON d   1     -42.581  18.166  -4.056  0.00  0.00     0.029 A 
ATOM     20  C13 NON d   1     -43.107  17.261  -3.139  0.00  0.00     0.003 A 
ATOM     21  C14 NON d   1     -44.394  16.765  -3.318  0.00  0.00     0.014 A 
ATOM     22  C15 NON d   1     -45.165  17.156  -4.425  0.00  0.00    -0.004 A 
ATOM     23  C19 NON d   1     -44.608  18.060  -5.352  0.00  0.00     0.043 A 
BRANCH  22  24
ATOM     24  C16 NON d   1     -46.529  16.640  -4.595  0.00  0.00     0.088 A 
ATOM     25  C17 NON d   1     -47.470  16.302  -3.581  0.00  0.00     0.053 A 
ATOM     26  C18 NON d   1     -48.600  15.887  -4.239  0.00  0.00     0.111 A 
ATOM     27  N4  NON d   1     -48.310  15.987  -5.564  0.00  0.00    -0.289 N 
ATOM     28  N5  NON d   1     -47.067  16.432  -5.810  0.00  0.00    -0.175 NA
ATOM     29  H16 NON d   1     -48.910  15.773  -6.352  0.00  0.00     0.188 HD
ENDBRANCH  22  24
ENDBRANCH   3  18
TORSDOF 6
ENDMDL
MODEL 4
REMARK VINA RESULT:   -30.213      2.630      4.040
REMARK INTER + INTRA:         -34.335
REMARK INTER:                 -32.003
REMARK INTRA:                  -2.332
REMARK CONF_INDEPENDENT:        1.790
REMARK UNBOUND:                -2.332
REMARK  6 active torsions:
REMARK  status: ('A' for Active; 'I' for Inactive)
REMARK    1  A    between atoms: C1_2  and  C2_3 
REMARK       I    between atoms: C1_2  and  N3_15 
REMARK    2  A    between atoms: C2_3  and  S1_4 
REMARK    3  A    between atoms: S1_4  and  C3_5 
REMARK    4  A    between atoms: C3_5  and  C4_6 
REMARK    5  A    between atoms: N3_15  and  C11_16 
REMARK    6  A    between atoms: C15_20  and  C16_21 
ROOT
ATOM      1  O1  NON d   1     -42.124  18.377  -1.502  0.00  0.00    -0.272 OA
ATOM      2  C1  NON d   1     -41.410  17.701  -2.245  0.00  0.00     0.231 C 
ATOM      3  N3  NON d   1     -41.610  17.568  -3.611  0.00  0.00    -0.327 N 
ATOM      4  H10 NON d   1     -40.818  17.310  -4.188  0.00  0.00     0.169 HD
ENDROOT
BRANCH   2   5
ATOM      5  C2  NON d   1     -40.205  16.925  -1.725  0.00  0.00     0.177 C 
BRANCH   5   6
ATOM      6  S1  NON d   1     -38.628  17.578  -2.397  0.00  0.00    -0.152 SA
BRANCH   6   7
ATOM      7  C3  NON d   1     -39.113  19.269  -2.853  0.00  0.00     0.152 C 
BRANCH   7   8
ATOM      8  C4  NON d   1     -39.470  19.540  -4.278  0.00  0.00     0.114 A 
ATOM      9  N1  NON d   1     -39.410  18.645  -5.249  0.00  0.00    -0.233 NA
ATOM     10  C5  NON d   1     -39.747  19.310  -6.402  0.00  0.00     0.085 A 
ATOM     11  C6  NON d   1     -39.819  18.846  -7.724  0.00  0.00     0.034 A 
ATOM     12  C10 NON d   1     -40.022  20.644  -6.137  0.00  0.00     0.062 A 
ATOM     13  C7  NON d   1     -40.124  19.760  -8.741  0.00  0.00     0.002 A 
ATOM     14  C8  NON d   1     -40.361  21.105  -8.448  0.00  0.00     0.002 A 
ATOM     15  C9  NON d   1     -40.328  21.577  -7.130  0.00  0.00     0.032 A 
ATOM     16  N2  NON d   1     -39.907  20.746  -4.773  0.00  0.00    -0.342 N 
ATOM     17  H9  NON d   1     -40.029  21.596  -4.231  0.00  0.00     0.167 HD
ENDBRANCH   7   8
ENDBRANCH   6   7
ENDBRANCH   5   6
ENDBRANCH   2   5
BRANCH   3  18
ATOM     18  C11 NON d   1     -42.789  17.960  -4.290  0.00  0.00     0.035 A 
ATOM     19  C12 NON d   1     -42.851  19.129  -5.052  0.00  0.00     0.029 A 
ATOM     20  C13 NON d   1     -44.024  19.499  -5.703  0.00  0.00     0.003 A 
ATOM     21  C14 NON d   1     -45.156  18.698  -5.596  0.00  0.00     0.014 A 
ATOM     22  C15 NON d   1     -45.134  17.525  -4.825  0.00  0.00    -0.004 A 
ATOM     23  C19 NON d   1     -43.941  17.176  -4.159  0.00  0.00     0.043 A 
BRANCH  22  24
ATOM     24  C16 NON d   1     -46.330  16.678  -4.733  0.00  0.00     0.088 A 
ATOM     25  C17 NON d   1     -46.881  16.066  -3.572  0.00  0.00     0.053 A 
ATOM     26  C18 NON d   1     -48.003  15.397  -3.995  0.00  0.00     0.111 A 
ATOM     27  N4  NON d   1     -48.080  15.623  -5.334  0.00  0.00    -0.289 N 
ATOM     28  N5  NON d   1     -47.082  16.386  -5.809  0.00  0.00    -0.175 NA
ATOM     29  H16 NON d   1     -48.784  15.291  -5.983  0.00  0.00     0.188 HD
ENDBRANCH  22  24
ENDBRANCH   3  18
TORSDOF 6
ENDMDL
MODEL 5
REMARK VINA RESULT:   -30.161      5.723      7.169
REMARK INTER + INTRA:         -32.600
REMARK INTER:                 -31.951
REMARK INTRA:                  -0.649
REMARK CONF_INDEPENDENT:        1.790
REMARK UNBOUND:                -0.649
REMARK  6 active torsions:
REMARK  status: ('A' for Active; 'I' for Inactive)
REMARK    1  A    between atoms: C1_2  and  C2_3 
REMARK       I    between atoms: C1_2  and  N3_15 
REMARK    2  A    between atoms: C2_3  and  S1_4 
REMARK    3  A    between atoms: S1_4  and  C3_5 
REMARK    4  A    between atoms: C3_5  and  C4_6 
REMARK    5  A    between atoms: N3_15  and  C11_16 
REMARK    6  A    between atoms: C15_20  and  C16_21 
ROOT
ATOM      1  O1  NON d   1     -40.521  18.895  -5.907  0.00  0.00    -0.272 OA
ATOM      2  C1  NON d   1     -41.431  19.491  -6.487  0.00  0.00     0.231 C 
ATOM      3  N3  NON d   1     -42.758  19.474  -6.082  0.00  0.00    -0.327 N 
ATOM      4  H10 NON d   1     -43.357  20.237  -6.372  0.00  0.00     0.169 HD
ENDROOT
BRANCH   2   5
ATOM      5  C2  NON d   1     -41.185  20.326  -7.737  0.00  0.00     0.177 C 
BRANCH   5   6
ATOM      6  S1  NON d   1     -39.808  19.657  -8.748  0.00  0.00    -0.152 SA
BRANCH   6   7
ATOM      7  C3  NON d   1     -38.796  21.146  -8.994  0.00  0.00     0.152 C 
BRANCH   7   8
ATOM      8  C4  NON d   1     -39.141  22.055 -10.128  0.00  0.00     0.114 A 
ATOM      9  N1  NON d   1     -39.768  23.212  -9.997  0.00  0.00    -0.233 NA
ATOM     10  C5  NON d   1     -39.953  23.691 -11.271  0.00  0.00     0.085 A 
ATOM     11  C6  NON d   1     -40.584  24.864 -11.711  0.00  0.00     0.034 A 
ATOM     12  C10 NON d   1     -39.429  22.812 -12.208  0.00  0.00     0.062 A 
ATOM     13  C7  NON d   1     -40.702  25.087 -13.089  0.00  0.00     0.002 A 
ATOM     14  C8  NON d   1     -40.195  24.166 -14.009  0.00  0.00     0.002 A 
ATOM     15  C9  NON d   1     -39.532  23.008 -13.587  0.00  0.00     0.032 A 
ATOM     16  N2  NON d   1     -38.858  21.818 -11.453  0.00  0.00    -0.342 N 
ATOM     17  H9  NON d   1     -38.390  20.993 -11.817  0.00  0.00     0.167 HD
ENDBRANCH   7   8
ENDBRANCH   6   7
ENDBRANCH   5   6
ENDBRANCH   2   5
BRANCH   3  18
ATOM     18  C11 NON d   1     -43.292  18.576  -5.126  0.00  0.00     0.035 A 
ATOM     19  C12 NON d   1     -42.562  18.164  -4.009  0.00  0.00     0.029 A 
ATOM     20  C13 NON d   1     -43.105  17.273  -3.087  0.00  0.00     0.003 A 
ATOM     21  C14 NON d   1     -44.392  16.782  -3.276  0.00  0.00     0.014 A 
ATOM     22  C15 NON d   1     -45.147  17.163  -4.396  0.00  0.00    -0.004 A 
ATOM     23  C19 NON d   1     -44.574  18.052  -5.328  0.00  0.00     0.043 A 
BRANCH  22  24
ATOM     24  C16 NON d   1     -46.512  16.651  -4.576  0.00  0.00     0.088 A 
ATOM     25  C17 NON d   1     -47.439  16.258  -3.569  0.00  0.00     0.053 A 
ATOM     26  C18 NON d   1     -48.577  15.874  -4.234  0.00  0.00     0.111 A 
ATOM     27  N4  NON d   1     -48.304  16.044  -5.555  0.00  0.00    -0.289 N 
ATOM     28  N5  NON d   1     -47.065  16.505  -5.793  0.00  0.00    -0.175 NA
ATOM     29  H16 NON d   1     -48.913  15.869  -6.346  0.00  0.00     0.188 HD
ENDBRANCH  22  24
ENDBRANCH   3  18
TORSDOF 6
ENDMDL
MODEL 6
REMARK VINA RESULT:   -30.057      2.187      8.889
REMARK INTER + INTRA:         -32.750
REMARK INTER:                 -31.847
REMARK INTRA:                  -0.903
REMARK CONF_INDEPENDENT:        1.790
REMARK UNBOUND:                -0.903
REMARK  6 active torsions:
REMARK  status: ('A' for Active; 'I' for Inactive)
REMARK    1  A    between atoms: C1_2  and  C2_3 
REMARK       I    between atoms: C1_2  and  N3_15 
REMARK    2  A    between atoms: C2_3  and  S1_4 
REMARK    3  A    between atoms: S1_4  and  C3_5 
REMARK    4  A    between atoms: C3_5  and  C4_6 
REMARK    5  A    between atoms: N3_15  and  C11_16 
REMARK    6  A    between atoms: C15_20  and  C16_21 
ROOT
ATOM      1  O1  NON d   1     -41.091  17.672  -2.068  0.00  0.00    -0.272 OA
ATOM      2  C1  NON d   1     -41.791  18.089  -2.992  0.00  0.00     0.231 C 
ATOM      3  N3  NON d   1     -41.448  19.153  -3.814  0.00  0.00    -0.327 N 
ATOM      4  H10 NON d   1     -41.873  19.206  -4.731  0.00  0.00     0.169 HD
ENDROOT
BRANCH   2   5
ATOM      5  C2  NON d   1     -43.138  17.464  -3.334  0.00  0.00     0.177 C 
BRANCH   5   6
ATOM      6  S1  NON d   1     -43.359  17.260  -5.143  0.00  0.00    -0.152 SA
BRANCH   6   7
ATOM      7  C3  NON d   1     -45.028  17.941  -5.374  0.00  0.00     0.152 C 
BRANCH   7   8
ATOM      8  C4  NON d   1     -46.179  17.213  -4.761  0.00  0.00     0.114 A 
ATOM      9  N1  NON d   1     -47.065  16.505  -5.441  0.00  0.00    -0.233 NA
ATOM     10  C5  NON d   1     -47.987  16.066  -4.522  0.00  0.00     0.085 A 
ATOM     11  C6  NON d   1     -49.147  15.298  -4.704  0.00  0.00     0.034 A 
ATOM     12  C10 NON d   1     -47.662  16.511  -3.249  0.00  0.00     0.062 A 
ATOM     13  C7  NON d   1     -49.964  15.043  -3.595  0.00  0.00     0.002 A 
ATOM     14  C8  NON d   1     -49.629  15.534  -2.331  0.00  0.00     0.002 A 
ATOM     15  C9  NON d   1     -48.458  16.273  -2.126  0.00  0.00     0.032 A 
ATOM     16  N2  NON d   1     -46.474  17.177  -3.419  0.00  0.00    -0.342 N 
ATOM     17  H9  NON d   1     -45.950  17.648  -2.687  0.00  0.00     0.167 HD
ENDBRANCH   7   8
ENDBRANCH   6   7
ENDBRANCH   5   6
ENDBRANCH   2   5
BRANCH   3  18
ATOM     18  C11 NON d   1     -40.395  20.063  -3.548  0.00  0.00     0.035 A 
ATOM     19  C12 NON d   1     -39.566  20.551  -4.560  0.00  0.00     0.029 A 
ATOM     20  C13 NON d   1     -38.532  21.437  -4.274  0.00  0.00     0.003 A 
ATOM     21  C14 NON d   1     -38.315  21.846  -2.963  0.00  0.00     0.014 A 
ATOM     22  C15 NON d   1     -39.119  21.363  -1.919  0.00  0.00    -0.004 A 
ATOM     23  C19 NON d   1     -40.151  20.452  -2.226  0.00  0.00     0.043 A 
BRANCH  22  24
ATOM     24  C16 NON d   1     -38.892  21.815  -0.541  0.00  0.00     0.088 A 
ATOM     25  C17 NON d   1     -37.748  22.480  -0.015  0.00  0.00     0.053 A 
ATOM     26  C18 NON d   1     -38.021  22.708   1.310  0.00  0.00     0.111 A 
ATOM     27  N4  NON d   1     -39.262  22.196   1.522  0.00  0.00    -0.289 N 
ATOM     28  N5  NON d   1     -39.810  21.645   0.427  0.00  0.00    -0.175 NA
ATOM     29  H16 NON d   1     -39.796  22.189   2.384  0.00  0.00     0.188 HD
ENDBRANCH  22  24
ENDBRANCH   3  18
TORSDOF 6
ENDMDL
MODEL 7
REMARK VINA RESULT:   -29.878      3.458      8.687
REMARK INTER + INTRA:         -32.564
REMARK INTER:                 -31.668
REMARK INTRA:                  -0.896
REMARK CONF_INDEPENDENT:        1.790
REMARK UNBOUND:                -0.896
REMARK  6 active torsions:
REMARK  status: ('A' for Active; 'I' for Inactive)
REMARK    1  A    between atoms: C1_2  and  C2_3 
REMARK       I    between atoms: C1_2  and  N3_15 
REMARK    2  A    between atoms: C2_3  and  S1_4 
REMARK    3  A    between atoms: S1_4  and  C3_5 
REMARK    4  A    between atoms: C3_5  and  C4_6 
REMARK    5  A    between atoms: N3_15  and  C11_16 
REMARK    6  A    between atoms: C15_20  and  C16_21 
ROOT
ATOM      1  O1  NON d   1     -41.211  18.716  -2.332  0.00  0.00    -0.272 OA
ATOM      2  C1  NON d   1     -41.641  18.247  -3.387  0.00  0.00     0.231 C 
ATOM      3  N3  NON d   1     -41.067  18.466  -4.631  0.00  0.00    -0.327 N 
ATOM      4  H10 NON d   1     -41.244  17.792  -5.366  0.00  0.00     0.169 HD
ENDROOT
BRANCH   2   5
ATOM      5  C2  NON d   1     -42.877  17.356  -3.434  0.00  0.00     0.177 C 
BRANCH   5   6
ATOM      6  S1  NON d   1     -43.381  16.974  -5.156  0.00  0.00    -0.152 SA
BRANCH   6   7
ATOM      7  C3  NON d   1     -44.986  17.820  -5.250  0.00  0.00     0.152 C 
BRANCH   7   8
ATOM      8  C4  NON d   1     -46.186  17.121  -4.701  0.00  0.00     0.114 A 
ATOM      9  N1  NON d   1     -47.096  16.505  -5.436  0.00  0.00    -0.233 NA
ATOM     10  C5  NON d   1     -48.058  16.064  -4.560  0.00  0.00     0.085 A 
ATOM     11  C6  NON d   1     -49.253  15.373  -4.806  0.00  0.00     0.034 A 
ATOM     12  C10 NON d   1     -47.734  16.414  -3.257  0.00  0.00     0.062 A 
ATOM     13  C7  NON d   1     -50.105  15.098  -3.727  0.00  0.00     0.002 A 
ATOM     14  C8  NON d   1     -49.768  15.494  -2.431  0.00  0.00     0.002 A 
ATOM     15  C9  NON d   1     -48.562  16.154  -2.163  0.00  0.00     0.032 A 
ATOM     16  N2  NON d   1     -46.508  17.022  -3.368  0.00  0.00    -0.342 N 
ATOM     17  H9  NON d   1     -45.973  17.420  -2.601  0.00  0.00     0.167 HD
ENDBRANCH   7   8
ENDBRANCH   6   7
ENDBRANCH   5   6
ENDBRANCH   2   5
BRANCH   3  18
ATOM     18  C11 NON d   1     -40.087  19.453  -4.898  0.00  0.00     0.035 A 
ATOM     19  C12 NON d   1     -38.997  19.662  -4.051  0.00  0.00     0.029 A 
ATOM     20  C13 NON d   1     -38.051  20.645  -4.328  0.00  0.00     0.003 A 
ATOM     21  C14 NON d   1     -38.189  21.434  -5.465  0.00  0.00     0.014 A 
ATOM     22  C15 NON d   1     -39.281  21.262  -6.330  0.00  0.00    -0.004 A 
ATOM     23  C19 NON d   1     -40.238  20.273  -6.023  0.00  0.00     0.043 A 
BRANCH  22  24
ATOM     24  C16 NON d   1     -39.406  22.090  -7.536  0.00  0.00     0.088 A 
ATOM     25  C17 NON d   1     -39.176  23.489  -7.666  0.00  0.00     0.053 A 
ATOM     26  C18 NON d   1     -39.405  23.788  -8.985  0.00  0.00     0.111 A 
ATOM     27  N4  NON d   1     -39.748  22.611  -9.573  0.00  0.00    -0.289 N 
ATOM     28  N5  NON d   1     -39.764  21.571  -8.724  0.00  0.00    -0.175 NA
ATOM     29  H16 NON d   1     -39.981  22.443 -10.546  0.00  0.00     0.188 HD
ENDBRANCH  22  24
ENDBRANCH   3  18
TORSDOF 6
ENDMDL
MODEL 8
REMARK VINA RESULT:   -29.810      1.357      1.763
REMARK INTER + INTRA:         -33.497
REMARK INTER:                 -31.600
REMARK INTRA:                  -1.898
REMARK CONF_INDEPENDENT:        1.790
REMARK UNBOUND:                -1.898
REMARK  6 active torsions:
REMARK  status: ('A' for Active; 'I' for Inactive)
REMARK    1  A    between atoms: C1_2  and  C2_3 
REMARK       I    between atoms: C1_2  and  N3_15 
REMARK    2  A    between atoms: C2_3  and  S1_4 
REMARK    3  A    between atoms: S1_4  and  C3_5 
REMARK    4  A    between atoms: C3_5  and  C4_6 
REMARK    5  A    between atoms: N3_15  and  C11_16 
REMARK    6  A    between atoms: C15_20  and  C16_21 
ROOT
ATOM      1  O1  NON d   1     -41.547  18.738  -1.757  0.00  0.00    -0.272 OA
ATOM      2  C1  NON d   1     -41.108  17.742  -2.334  0.00  0.00     0.231 C 
ATOM      3  N3  NON d   1     -41.552  17.297  -3.571  0.00  0.00    -0.327 N 
ATOM      4  H10 NON d   1     -40.931  16.718  -4.123  0.00  0.00     0.169 HD
ENDROOT
BRANCH   2   5
ATOM      5  C2  NON d   1     -40.007  16.876  -1.733  0.00  0.00     0.177 C 
BRANCH   5   6
ATOM      6  S1  NON d   1     -38.336  17.516  -2.136  0.00  0.00    -0.152 SA
BRANCH   6   7
ATOM      7  C3  NON d   1     -38.665  18.413  -3.681  0.00  0.00     0.152 C 
BRANCH   7   8
ATOM      8  C4  NON d   1     -39.314  19.756  -3.593  0.00  0.00     0.114 A 
ATOM      9  N1  NON d   1     -39.544  20.546  -4.628  0.00  0.00    -0.233 NA
ATOM     10  C5  NON d   1     -40.081  21.701  -4.113  0.00  0.00     0.085 A 
ATOM     11  C6  NON d   1     -40.486  22.876  -4.764  0.00  0.00     0.034 A 
ATOM     12  C10 NON d   1     -40.186  21.621  -2.732  0.00  0.00     0.062 A 
ATOM     13  C7  NON d   1     -40.943  23.950  -3.989  0.00  0.00     0.002 A 
ATOM     14  C8  NON d   1     -41.003  23.853  -2.597  0.00  0.00     0.002 A 
ATOM     15  C9  NON d   1     -40.636  22.675  -1.935  0.00  0.00     0.032 A 
ATOM     16  N2  NON d   1     -39.757  20.351  -2.436  0.00  0.00    -0.342 N 
ATOM     17  H9  NON d   1     -39.688  19.953  -1.504  0.00  0.00     0.167 HD
ENDBRANCH   7   8
ENDBRANCH   6   7
ENDBRANCH   5   6
ENDBRANCH   2   5
BRANCH   3  18
ATOM     18  C11 NON d   1     -42.729  17.754  -4.211  0.00  0.00     0.035 A 
ATOM     19  C12 NON d   1     -42.778  18.977  -4.885  0.00  0.00     0.029 A 
ATOM     20  C13 NON d   1     -43.949  19.411  -5.499  0.00  0.00     0.003 A 
ATOM     21  C14 NON d   1     -45.092  18.621  -5.445  0.00  0.00     0.014 A 
ATOM     22  C15 NON d   1     -45.083  17.394  -4.762  0.00  0.00    -0.004 A 
ATOM     23  C19 NON d   1     -43.892  16.979  -4.131  0.00  0.00     0.043 A 
BRANCH  22  24
ATOM     24  C16 NON d   1     -46.290  16.560  -4.726  0.00  0.00     0.088 A 
ATOM     25  C17 NON d   1     -46.833  15.853  -3.614  0.00  0.00     0.053 A 
ATOM     26  C18 NON d   1     -47.972  15.242  -4.076  0.00  0.00     0.111 A 
ATOM     27  N4  NON d   1     -48.067  15.588  -5.387  0.00  0.00    -0.289 N 
ATOM     28  N5  NON d   1     -47.065  16.376  -5.810  0.00  0.00    -0.175 NA
ATOM     29  H16 NON d   1     -48.787  15.326  -6.052  0.00  0.00     0.188 HD
ENDBRANCH  22  24
ENDBRANCH   3  18
TORSDOF 6
ENDMDL
MODEL 9
REMARK VINA RESULT:   -29.650      2.283      2.943
REMARK INTER + INTRA:         -33.310
REMARK INTER:                 -31.440
REMARK INTRA:                  -1.870
REMARK CONF_INDEPENDENT:        1.790
REMARK UNBOUND:                -1.870
REMARK  6 active torsions:
REMARK  status: ('A' for Active; 'I' for Inactive)
REMARK    1  A    between atoms: C1_2  and  C2_3 
REMARK       I    between atoms: C1_2  and  N3_15 
REMARK    2  A    between atoms: C2_3  and  S1_4 
REMARK    3  A    between atoms: S1_4  and  C3_5 
REMARK    4  A    between atoms: C3_5  and  C4_6 
REMARK    5  A    between atoms: N3_15  and  C11_16 
REMARK    6  A    between atoms: C15_20  and  C16_21 
ROOT
ATOM      1  O1  NON d   1     -40.490  19.178  -5.766  0.00  0.00    -0.272 OA
ATOM      2  C1  NON d   1     -41.418  19.667  -6.413  0.00  0.00     0.231 C 
ATOM      3  N3  NON d   1     -42.759  19.519  -6.089  0.00  0.00    -0.327 N 
ATOM      4  H10 NON d   1     -43.414  20.211  -6.432  0.00  0.00     0.169 HD
ENDROOT
BRANCH   2   5
ATOM      5  C2  NON d   1     -41.182  20.503  -7.665  0.00  0.00     0.177 C 
BRANCH   5   6
ATOM      6  S1  NON d   1     -39.596  21.422  -7.586  0.00  0.00    -0.152 SA
BRANCH   6   7
ATOM      7  C3  NON d   1     -40.086  22.888  -6.630  0.00  0.00     0.152 C 
BRANCH   7   8
ATOM      8  C4  NON d   1     -40.229  22.750  -5.149  0.00  0.00     0.114 A 
ATOM      9  N1  NON d   1     -40.589  23.729  -4.337  0.00  0.00    -0.233 NA
ATOM     10  C5  NON d   1     -40.530  23.210  -3.066  0.00  0.00     0.085 A 
ATOM     11  C6  NON d   1     -40.785  23.821  -1.830  0.00  0.00     0.034 A 
ATOM     12  C10 NON d   1     -40.125  21.883  -3.096  0.00  0.00     0.062 A 
ATOM     13  C7  NON d   1     -40.580  23.080  -0.659  0.00  0.00     0.002 A 
ATOM     14  C8  NON d   1     -40.139  21.756  -0.719  0.00  0.00     0.002 A 
ATOM     15  C9  NON d   1     -39.913  21.121  -1.945  0.00  0.00     0.032 A 
ATOM     16  N2  NON d   1     -40.010  21.597  -4.433  0.00  0.00    -0.342 N 
ATOM     17  H9  NON d   1     -39.716  20.707  -4.824  0.00  0.00     0.167 HD
ENDBRANCH   7   8
ENDBRANCH   6   7
ENDBRANCH   5   6
ENDBRANCH   2   5
BRANCH   3  18
ATOM     18  C11 NON d   1     -43.257  18.587  -5.147  0.00  0.00     0.035 A 
ATOM     19  C12 NON d   1     -42.474  18.107  -4.094  0.00  0.00     0.029 A 
ATOM     20  C13 NON d   1     -42.982  17.183  -3.186  0.00  0.00     0.003 A 
ATOM     21  C14 NON d   1     -44.288  16.726  -3.322  0.00  0.00     0.014 A 
ATOM     22  C15 NON d   1     -45.098  17.174  -4.377  0.00  0.00    -0.004 A 
ATOM     23  C19 NON d   1     -44.560  18.097  -5.298  0.00  0.00     0.043 A 
BRANCH  22  24
ATOM     24  C16 NON d   1     -46.481  16.698  -4.501  0.00  0.00     0.088 A 
ATOM     25  C17 NON d   1     -47.398  16.389  -3.456  0.00  0.00     0.053 A 
ATOM     26  C18 NON d   1     -48.561  16.007  -4.076  0.00  0.00     0.111 A 
ATOM     27  N4  NON d   1     -48.312  16.097  -5.409  0.00  0.00    -0.289 N 
ATOM     28  N5  NON d   1     -47.065  16.505  -5.697  0.00  0.00    -0.175 NA
ATOM     29  H16 NON d   1     -48.944  15.900  -6.177  0.00  0.00     0.188 HD
ENDBRANCH  22  24
ENDBRANCH   3  18
TORSDOF 6
ENDMDL
