MODEL 1
REMARK VINA RESULT:   -28.810      0.000      0.000
REMARK INTER + INTRA:         -31.831
REMARK INTER:                 -31.197
REMARK INTRA:                  -0.635
REMARK CONF_INDEPENDENT:        2.386
REMARK UNBOUND:                -0.635
REMARK  8 active torsions:
REMARK  status: ('A' for Active; 'I' for Inactive)
REMARK    1  A    between atoms: C2_2  and  C3_3 
REMARK    2  A    between atoms: C6_6  and  N1_7 
REMARK    3  A    between atoms: N1_7  and  C7_8 
REMARK    4  A    between atoms: C8_10  and  N3_11 
REMARK    5  A    between atoms: C9_13  and  C10_14 
REMARK    6  A    between atoms: C10_14  and  N5_15 
REMARK    7  A    between atoms: N6_18  and  C13_19 
REMARK    8  A    between atoms: C18_24  and  O1_25 
ROOT
ATOM      1  C7  NON d   1     -47.580  16.717  -2.723  0.00  0.00     0.731 A 
ATOM      2  N2  NON d   1     -47.958  16.376  -3.951  0.00  0.00    -0.031 NA
ATOM      3  C8  NON d   1     -47.054  16.475  -4.903  0.00  0.00     0.219 A 
ATOM      4  N4  NON d   1     -45.804  16.849  -4.722  0.00  0.00    -0.200 NA
ATOM      5  C9  NON d   1     -45.493  17.189  -3.469  0.00  0.00     0.176 A 
ATOM      6  N7  NON d   1     -46.346  17.128  -2.437  0.00  0.00    -0.045 NA
ENDROOT
BRANCH   5   7
ATOM      7  C10 NON d   1     -44.075  17.716  -3.285  0.00  0.00     0.353 C 
BRANCH   7   8
ATOM      8  N5  NON d   1     -43.285  17.917  -4.516  0.00  0.00     0.098 N 
ATOM      9  C11 NON d   1     -43.407  19.303  -5.009  0.00  0.00     0.287 C 
ATOM     10  C12 NON d   1     -42.516  19.616  -6.237  0.00  0.00     0.126 C 
ATOM     11  N6  NON d   1     -41.098  19.210  -6.029  0.00  0.00    -0.278 NA
ATOM     12  C20 NON d   1     -41.017  17.802  -5.562  0.00  0.00     0.126 C 
ATOM     13  C21 NON d   1     -41.860  17.621  -4.282  0.00  0.00     0.287 C 
BRANCH  11  14
ATOM     14  C13 NON d   1     -40.164  19.573  -7.031  0.00  0.00     0.044 A 
ATOM     15  C14 NON d   1     -40.546  20.344  -8.151  0.00  0.00     0.026 A 
ATOM     16  C15 NON d   1     -39.651  20.708  -9.168  0.00  0.00     0.002 A 
ATOM     17  C16 NON d   1     -38.325  20.309  -9.106  0.00  0.00     0.003 A 
ATOM     18  C17 NON d   1     -37.893  19.575  -8.011  0.00  0.00     0.038 A 
ATOM     19  C18 NON d   1     -38.784  19.248  -6.976  0.00  0.00     0.089 A 
BRANCH  19  20
ATOM     20  O1  NON d   1     -38.194  18.580  -5.928  0.00  0.00    -0.354 OA
ATOM     21  C19 NON d   1     -36.774  18.710  -5.982  0.00  0.00     0.210 C 
ENDBRANCH  19  20
ENDBRANCH  11  14
ENDBRANCH   7   8
ENDBRANCH   5   7
BRANCH   3  22
ATOM     22  N3  NON d   1     -47.440  16.130  -6.185  0.00  0.00    -0.270 NA
ATOM     23  H9  NON d   1     -48.382  15.766  -6.181  0.00  0.00     0.127 HD
ATOM     24  H10 NON d   1     -47.234  16.886  -6.823  0.00  0.00     0.127 HD
ENDBRANCH   3  22
BRANCH   1  25
ATOM     25  N1  NON d   1     -48.484  16.665  -1.657  0.00  0.00    -0.188 N 
ATOM     26  H8  NON d   1     -47.981  16.529  -0.792  0.00  0.00     0.184 HD
BRANCH  25  27
ATOM     27  C6  NON d   1     -49.870  16.878  -1.571  0.00  0.00     0.049 A 
ATOM     28  C5  NON d   1     -50.464  17.635  -0.561  0.00  0.00     0.030 A 
ATOM     29  C4  NON d   1     -51.844  17.836  -0.515  0.00  0.00     0.009 A 
ATOM     30  C3  NON d   1     -52.696  17.289  -1.483  0.00  0.00    -0.058 A 
ATOM     31  C23 NON d   1     -52.123  16.539  -2.508  0.00  0.00     0.009 A 
ATOM     32  C22 NON d   1     -50.727  16.339  -2.547  0.00  0.00     0.030 A 
BRANCH  30  33
ATOM     33  C2  NON d   1     -54.166  17.576  -1.315  0.00  0.00     0.034 C 
ATOM     34  C1  NON d   1     -54.655  18.941  -0.796  0.00  0.00     0.010 C 
ENDBRANCH  30  33
ENDBRANCH  25  27
ENDBRANCH   1  25
TORSDOF 8
ENDMDL
MODEL 2
REMARK VINA RESULT:   -26.135      1.309      1.895
REMARK INTER + INTRA:         -29.140
REMARK INTER:                 -28.522
REMARK INTRA:                  -0.618
REMARK CONF_INDEPENDENT:        2.386
REMARK UNBOUND:                -0.618
REMARK  8 active torsions:
REMARK  status: ('A' for Active; 'I' for Inactive)
REMARK    1  A    between atoms: C2_2  and  C3_3 
REMARK    2  A    between atoms: C6_6  and  N1_7 
REMARK    3  A    between atoms: N1_7  and  C7_8 
REMARK    4  A    between atoms: C8_10  and  N3_11 
REMARK    5  A    between atoms: C9_13  and  C10_14 
REMARK    6  A    between atoms: C10_14  and  N5_15 
REMARK    7  A    between atoms: N6_18  and  C13_19 
REMARK    8  A    between atoms: C18_24  and  O1_25 
ROOT
ATOM      1  C7  NON d   1     -47.499  16.745  -2.725  0.00  0.00     0.731 A 
ATOM      2  N2  NON d   1     -47.921  16.460  -3.952  0.00  0.00    -0.031 NA
ATOM      3  C8  NON d   1     -47.011  16.426  -4.903  0.00  0.00     0.219 A 
ATOM      4  N4  NON d   1     -45.720  16.613  -4.720  0.00  0.00    -0.200 NA
ATOM      5  C9  NON d   1     -45.365  16.906  -3.467  0.00  0.00     0.176 A 
ATOM      6  N7  NON d   1     -46.219  16.971  -2.436  0.00  0.00    -0.045 NA
ENDROOT
BRANCH   5   7
ATOM      7  C10 NON d   1     -43.885  17.221  -3.279  0.00  0.00     0.353 C 
BRANCH   7   8
ATOM      8  N5  NON d   1     -43.385  18.438  -3.948  0.00  0.00     0.098 N 
ATOM      9  C11 NON d   1     -42.060  18.828  -3.427  0.00  0.00     0.287 C 
ATOM     10  C12 NON d   1     -41.424  20.035  -4.162  0.00  0.00     0.126 C 
ATOM     11  N6  NON d   1     -41.424  19.865  -5.642  0.00  0.00    -0.278 NA
ATOM     12  C20 NON d   1     -42.780  19.502  -6.129  0.00  0.00     0.126 C 
ATOM     13  C21 NON d   1     -43.280  18.235  -5.404  0.00  0.00     0.287 C 
BRANCH  11  14
ATOM     14  C13 NON d   1     -40.744  20.843  -6.409  0.00  0.00     0.044 A 
ATOM     15  C14 NON d   1     -40.450  22.120  -5.882  0.00  0.00     0.026 A 
ATOM     16  C15 NON d   1     -39.792  23.116  -6.619  0.00  0.00     0.002 A 
ATOM     17  C16 NON d   1     -39.400  22.873  -7.926  0.00  0.00     0.003 A 
ATOM     18  C17 NON d   1     -39.639  21.624  -8.480  0.00  0.00     0.038 A 
ATOM     19  C18 NON d   1     -40.263  20.617  -7.724  0.00  0.00     0.089 A 
BRANCH  19  20
ATOM     20  O1  NON d   1     -40.369  19.414  -8.384  0.00  0.00    -0.354 OA
ATOM     21  C19 NON d   1     -39.214  18.608  -8.151  0.00  0.00     0.210 C 
ENDBRANCH  19  20
ENDBRANCH  11  14
ENDBRANCH   7   8
ENDBRANCH   5   7
BRANCH   3  22
ATOM     22  N3  NON d   1     -47.440  16.138  -6.185  0.00  0.00    -0.270 NA
ATOM     23  H9  NON d   1     -48.410  15.858  -6.175  0.00  0.00     0.127 HD
ATOM     24  H10 NON d   1     -47.176  16.885  -6.813  0.00  0.00     0.127 HD
ENDBRANCH   3  22
BRANCH   1  25
ATOM     25  N1  NON d   1     -48.404  16.826  -1.660  0.00  0.00    -0.188 N 
ATOM     26  H8  NON d   1     -47.899  16.828  -0.786  0.00  0.00     0.184 HD
BRANCH  25  27
ATOM     27  C6  NON d   1     -49.794  17.018  -1.604  0.00  0.00     0.049 A 
ATOM     28  C5  NON d   1     -50.669  16.539  -2.578  0.00  0.00     0.030 A 
ATOM     29  C4  NON d   1     -52.048  16.738  -2.483  0.00  0.00     0.009 A 
ATOM     30  C3  NON d   1     -52.615  17.425  -1.403  0.00  0.00    -0.058 A 
ATOM     31  C23 NON d   1     -51.760  17.903  -0.412  0.00  0.00     0.009 A 
ATOM     32  C22 NON d   1     -50.368  17.698  -0.515  0.00  0.00     0.030 A 
BRANCH  30  33
ATOM     33  C2  NON d   1     -54.114  17.575  -1.423  0.00  0.00     0.034 C 
ATOM     34  C1  NON d   1     -54.804  18.764  -0.727  0.00  0.00     0.010 C 
ENDBRANCH  30  33
ENDBRANCH  25  27
ENDBRANCH   1  25
TORSDOF 8
ENDMDL
