MODEL 1
REMARK VINA RESULT:    -7.998      0.000      0.000
REMARK INTER + INTRA:         -10.452
REMARK INTER:                  -9.490
REMARK INTRA:                  -0.963
REMARK CONF_INDEPENDENT:        1.492
REMARK UNBOUND:                -0.963
REMARK  5 active torsions:
REMARK  status: ('A' for Active; 'I' for Inactive)
REMARK    1  A    between atoms: C6_7  and  C7_8 
REMARK       I    between atoms: C7_8  and  N2_10 
REMARK    2  A    between atoms: N2_10  and  C8_11 
REMARK    3  A    between atoms: C11_14  and  N3_15 
REMARK       I    between atoms: N3_15  and  C12_16 
REMARK    4  A    between atoms: C12_16  and  C13_18 
REMARK    5  A    between atoms: C17_22  and  S1_23 
ROOT
ATOM      1  C8  NON d   1     -40.070  22.559  -4.938  0.00  0.00     0.036 A 
ATOM      2  C9  NON d   1     -39.978  23.755  -5.668  0.00  0.00     0.032 A 
ATOM      3  C10 NON d   1     -39.889  23.781  -7.108  0.00  0.00     0.033 A 
ATOM      4  C11 NON d   1     -39.875  22.617  -7.913  0.00  0.00     0.057 A 
ATOM      5  C20 NON d   1     -40.013  21.421  -7.177  0.00  0.00     0.062 A 
ATOM      6 Cl1  NON d   1     -40.318  19.888  -7.925  0.00  0.00    -0.082 Cl
ATOM      7  C21 NON d   1     -40.093  21.403  -5.732  0.00  0.00     0.055 A 
ENDROOT
BRANCH   1   8
ATOM      8  N2  NON d   1     -40.162  22.591  -3.470  0.00  0.00    -0.323 N 
ATOM      9  C7  NON d   1     -40.765  23.596  -2.679  0.00  0.00     0.256 C 
ATOM     10  O1  NON d   1     -41.302  24.585  -3.183  0.00  0.00    -0.267 OA
ATOM     11  H7  NON d   1     -39.763  21.797  -2.992  0.00  0.00     0.169 HD
BRANCH   9  12
ATOM     12  C6  NON d   1     -40.806  23.531  -1.128  0.00  0.00     0.033 A 
ATOM     13  C5  NON d   1     -40.650  22.400  -0.318  0.00  0.00     0.019 A 
ATOM     14  C4  NON d   1     -40.694  22.477   1.121  0.00  0.00     0.031 A 
ATOM     15  C3  NON d   1     -40.903  23.724   1.767  0.00  0.00     0.043 A 
ATOM     16  N1  NON d   1     -40.992  24.108   3.117  0.00  0.00    -0.359 N 
ATOM     17  C23 NON d   1     -41.064  24.870   1.000  0.00  0.00    -0.001 A 
ATOM     18  C2  NON d   1     -41.209  25.476   3.249  0.00  0.00     0.012 A 
ATOM     19  H4  NON d   1     -40.906  23.463   3.891  0.00  0.00     0.166 HD
ATOM     20  C1  NON d   1     -41.374  26.377   4.488  0.00  0.00     0.068 C 
ATOM     21  C24 NON d   1     -41.252  25.957   1.923  0.00  0.00    -0.027 A 
ATOM     22  C25 NON d   1     -41.453  27.378   1.507  0.00  0.00     0.051 C 
ATOM     23  C22 NON d   1     -41.011  24.757  -0.432  0.00  0.00     0.031 A 
ENDBRANCH   9  12
ENDBRANCH   1   8
BRANCH   4  24
ATOM     24  N3  NON d   1     -39.794  22.800  -9.371  0.00  0.00    -0.321 N 
ATOM     25  C12 NON d   1     -38.656  23.029 -10.186  0.00  0.00     0.256 C 
ATOM     26  O2  NON d   1     -37.537  23.277  -9.747  0.00  0.00    -0.267 OA
ATOM     27  H10 NON d   1     -40.691  22.892  -9.825  0.00  0.00     0.169 HD
BRANCH  25  28
ATOM     28  C13 NON d   1     -38.788  23.081 -11.732  0.00  0.00     0.033 A 
ATOM     29  C14 NON d   1     -38.029  22.312 -12.604  0.00  0.00     0.017 A 
ATOM     30  C15 NON d   1     -38.235  22.422 -13.998  0.00  0.00     0.002 A 
ATOM     31  C16 NON d   1     -39.185  23.308 -14.568  0.00  0.00     0.023 A 
ATOM     32  C17 NON d   1     -40.011  24.109 -13.779  0.00  0.00     0.059 A 
ATOM     33  C19 NON d   1     -39.776  23.933 -12.345  0.00  0.00     0.040 A 
BRANCH  32  34
ATOM     34  S1  NON d   1     -41.074  25.155 -14.164  0.00  0.00     0.171 S 
ATOM     35  C18 NON d   1     -42.137  26.201 -14.550  0.00  0.00     0.167 C 
ATOM     36  O3  NON d   1     -41.471  24.352 -15.339  0.00  0.00    -0.223 OA
ATOM     37  O4  NON d   1     -41.808  24.958 -12.894  0.00  0.00    -0.223 OA
ENDBRANCH  32  34
ENDBRANCH  25  28
ENDBRANCH   4  24
TORSDOF 5
ENDMDL
MODEL 2
REMARK VINA RESULT:    -7.588      1.864      2.591
REMARK INTER + INTRA:         -10.004
REMARK INTER:                  -9.080
REMARK INTRA:                  -0.924
REMARK CONF_INDEPENDENT:        1.492
REMARK UNBOUND:                -0.924
REMARK  5 active torsions:
REMARK  status: ('A' for Active; 'I' for Inactive)
REMARK    1  A    between atoms: C6_7  and  C7_8 
REMARK       I    between atoms: C7_8  and  N2_10 
REMARK    2  A    between atoms: N2_10  and  C8_11 
REMARK    3  A    between atoms: C11_14  and  N3_15 
REMARK       I    between atoms: N3_15  and  C12_16 
REMARK    4  A    between atoms: C12_16  and  C13_18 
REMARK    5  A    between atoms: C17_22  and  S1_23 
ROOT
ATOM      1  C8  NON d   1     -40.145  23.123  -5.452  0.00  0.00     0.036 A 
ATOM      2  C9  NON d   1     -39.974  24.251  -6.271  0.00  0.00     0.032 A 
ATOM      3  C10 NON d   1     -39.909  24.164  -7.710  0.00  0.00     0.033 A 
ATOM      4  C11 NON d   1     -39.997  22.946  -8.425  0.00  0.00     0.057 A 
ATOM      5  C20 NON d   1     -40.214  21.822  -7.600  0.00  0.00     0.062 A 
ATOM      6 Cl1  NON d   1     -40.648  20.266  -8.227  0.00  0.00    -0.082 Cl
ATOM      7  C21 NON d   1     -40.269  21.917  -6.157  0.00  0.00     0.055 A 
ENDROOT
BRANCH   1   8
ATOM      8  N2  NON d   1     -40.208  23.270  -3.990  0.00  0.00    -0.323 N 
ATOM      9  C7  NON d   1     -40.438  22.245  -3.043  0.00  0.00     0.256 C 
ATOM     10  O1  NON d   1     -40.608  21.073  -3.382  0.00  0.00    -0.267 OA
ATOM     11  H7  NON d   1     -40.052  24.204  -3.639  0.00  0.00     0.169 HD
BRANCH   9  12
ATOM     12  C6  NON d   1     -40.485  22.512  -1.513  0.00  0.00     0.033 A 
ATOM     13  C5  NON d   1     -40.249  21.596  -0.481  0.00  0.00     0.019 A 
ATOM     14  C4  NON d   1     -40.309  21.976   0.908  0.00  0.00     0.031 A 
ATOM     15  C3  NON d   1     -40.616  23.313   1.274  0.00  0.00     0.043 A 
ATOM     16  N1  NON d   1     -40.744  23.970   2.510  0.00  0.00    -0.359 N 
ATOM     17  C23 NON d   1     -40.858  24.253   0.280  0.00  0.00    -0.001 A 
ATOM     18  C2  NON d   1     -41.065  25.315   2.348  0.00  0.00     0.012 A 
ATOM     19  H4  NON d   1     -40.614  23.515   3.404  0.00  0.00     0.166 HD
ATOM     20  C1  NON d   1     -41.306  26.445   3.366  0.00  0.00     0.068 C 
ATOM     21  C24 NON d   1     -41.135  25.495   0.950  0.00  0.00    -0.027 A 
ATOM     22  C25 NON d   1     -41.440  26.774   0.241  0.00  0.00     0.051 C 
ATOM     23  C22 NON d   1     -40.787  23.839  -1.094  0.00  0.00     0.031 A 
ENDBRANCH   9  12
ENDBRANCH   1   8
BRANCH   4  24
ATOM     24  N3  NON d   1     -39.928  23.014  -9.894  0.00  0.00    -0.321 N 
ATOM     25  C12 NON d   1     -39.845  24.150 -10.737  0.00  0.00     0.256 C 
ATOM     26  O2  NON d   1     -39.985  25.306 -10.348  0.00  0.00    -0.267 OA
ATOM     27  H10 NON d   1     -40.084  22.129 -10.354  0.00  0.00     0.169 HD
BRANCH  25  28
ATOM     28  C13 NON d   1     -39.668  23.987 -12.271  0.00  0.00     0.033 A 
ATOM     29  C14 NON d   1     -40.367  24.721 -13.219  0.00  0.00     0.017 A 
ATOM     30  C15 NON d   1     -40.123  24.507 -14.594  0.00  0.00     0.002 A 
ATOM     31  C16 NON d   1     -39.190  23.550 -15.070  0.00  0.00     0.023 A 
ATOM     32  C17 NON d   1     -38.421  22.775 -14.200  0.00  0.00     0.059 A 
ATOM     33  C19 NON d   1     -38.694  23.059 -12.791  0.00  0.00     0.040 A 
BRANCH  32  34
ATOM     34  S1  NON d   1     -37.389  21.666 -14.477  0.00  0.00     0.171 S 
ATOM     35  C18 NON d   1     -36.357  20.557 -14.754  0.00  0.00     0.167 C 
ATOM     36  O3  NON d   1     -38.001  20.808 -13.441  0.00  0.00    -0.223 OA
ATOM     37  O4  NON d   1     -37.846  21.516 -15.877  0.00  0.00    -0.223 OA
ENDBRANCH  32  34
ENDBRANCH  25  28
ENDBRANCH   4  24
TORSDOF 5
ENDMDL
MODEL 3
REMARK VINA RESULT:    -7.086      1.401      1.803
REMARK INTER + INTRA:          -9.607
REMARK INTER:                  -8.577
REMARK INTRA:                  -1.029
REMARK CONF_INDEPENDENT:        1.492
REMARK UNBOUND:                -1.029
REMARK  5 active torsions:
REMARK  status: ('A' for Active; 'I' for Inactive)
REMARK    1  A    between atoms: C6_7  and  C7_8 
REMARK       I    between atoms: C7_8  and  N2_10 
REMARK    2  A    between atoms: N2_10  and  C8_11 
REMARK    3  A    between atoms: C11_14  and  N3_15 
REMARK       I    between atoms: N3_15  and  C12_16 
REMARK    4  A    between atoms: C12_16  and  C13_18 
REMARK    5  A    between atoms: C17_22  and  S1_23 
ROOT
ATOM      1  C8  NON d   1     -39.911  23.495  -6.024  0.00  0.00     0.036 A 
ATOM      2  C9  NON d   1     -40.032  24.737  -6.668  0.00  0.00     0.032 A 
ATOM      3  C10 NON d   1     -40.043  24.871  -8.104  0.00  0.00     0.033 A 
ATOM      4  C11 NON d   1     -39.922  23.776  -8.993  0.00  0.00     0.057 A 
ATOM      5  C20 NON d   1     -39.846  22.526  -8.342  0.00  0.00     0.062 A 
ATOM      6 Cl1  NON d   1     -39.986  21.018  -9.183  0.00  0.00    -0.082 Cl
ATOM      7  C21 NON d   1     -39.827  22.402  -6.900  0.00  0.00     0.055 A 
ENDROOT
BRANCH   1   8
ATOM      8  N2  NON d   1     -39.909  23.417  -4.556  0.00  0.00    -0.323 N 
ATOM      9  C7  NON d   1     -40.614  22.488  -3.754  0.00  0.00     0.256 C 
ATOM     10  O1  NON d   1     -41.324  21.611  -4.248  0.00  0.00    -0.267 OA
ATOM     11  H7  NON d   1     -39.327  24.093  -4.085  0.00  0.00     0.169 HD
BRANCH   9  12
ATOM     12  C6  NON d   1     -40.541  22.495  -2.202  0.00  0.00     0.033 A 
ATOM     13  C5  NON d   1     -40.197  21.430  -1.361  0.00  0.00     0.019 A 
ATOM     14  C4  NON d   1     -40.152  21.572   0.073  0.00  0.00     0.031 A 
ATOM     15  C3  NON d   1     -40.462  22.817   0.681  0.00  0.00     0.043 A 
ATOM     16  N1  NON d   1     -40.503  23.253   2.017  0.00  0.00    -0.359 N 
ATOM     17  C23 NON d   1     -40.808  23.898  -0.118  0.00  0.00    -0.001 A 
ATOM     18  C2  NON d   1     -40.870  24.593   2.109  0.00  0.00     0.012 A 
ATOM     19  H4  NON d   1     -40.289  22.662   2.809  0.00  0.00     0.166 HD
ATOM     20  C1  NON d   1     -41.055  25.528   3.319  0.00  0.00     0.068 C 
ATOM     21  C24 NON d   1     -41.060  24.999   0.772  0.00  0.00    -0.027 A 
ATOM     22  C25 NON d   1     -41.456  26.366   0.314  0.00  0.00     0.051 C 
ATOM     23  C22 NON d   1     -40.841  23.721  -1.544  0.00  0.00     0.031 A 
ENDBRANCH   9  12
ENDBRANCH   1   8
BRANCH   4  24
ATOM     24  N3  NON d   1     -39.963  24.064 -10.436  0.00  0.00    -0.321 N 
ATOM     25  C12 NON d   1     -39.277  23.425 -11.499  0.00  0.00     0.256 C 
ATOM     26  O2  NON d   1     -38.383  22.599 -11.341  0.00  0.00    -0.267 OA
ATOM     27  H10 NON d   1     -40.459  24.911 -10.672  0.00  0.00     0.169 HD
BRANCH  25  28
ATOM     28  C13 NON d   1     -39.557  23.822 -12.974  0.00  0.00     0.033 A 
ATOM     29  C14 NON d   1     -38.848  23.330 -14.061  0.00  0.00     0.017 A 
ATOM     30  C15 NON d   1     -39.190  23.743 -15.368  0.00  0.00     0.002 A 
ATOM     31  C16 NON d   1     -40.233  24.667 -15.635  0.00  0.00     0.023 A 
ATOM     32  C17 NON d   1     -41.019  25.205 -14.615  0.00  0.00     0.059 A 
ATOM     33  C19 NON d   1     -40.641  24.720 -13.287  0.00  0.00     0.040 A 
BRANCH  32  34
ATOM     34  S1  NON d   1     -42.164  26.235 -14.656  0.00  0.00     0.171 S 
ATOM     35  C18 NON d   1     -43.309  27.264 -14.697  0.00  0.00     0.167 C 
ATOM     36  O3  NON d   1     -42.206  26.279 -13.180  0.00  0.00    -0.223 OA
ATOM     37  O4  NON d   1     -41.323  27.222 -15.368  0.00  0.00    -0.223 OA
ENDBRANCH  32  34
ENDBRANCH  25  28
ENDBRANCH   4  24
TORSDOF 5
ENDMDL
MODEL 4
REMARK VINA RESULT:    -7.058      4.076     12.764
REMARK INTER + INTRA:          -9.543
REMARK INTER:                  -8.550
REMARK INTRA:                  -0.993
REMARK CONF_INDEPENDENT:        1.492
REMARK UNBOUND:                -0.993
REMARK  5 active torsions:
REMARK  status: ('A' for Active; 'I' for Inactive)
REMARK    1  A    between atoms: C6_7  and  C7_8 
REMARK       I    between atoms: C7_8  and  N2_10 
REMARK    2  A    between atoms: N2_10  and  C8_11 
REMARK    3  A    between atoms: C11_14  and  N3_15 
REMARK       I    between atoms: N3_15  and  C12_16 
REMARK    4  A    between atoms: C12_16  and  C13_18 
REMARK    5  A    between atoms: C17_22  and  S1_23 
ROOT
ATOM      1  C8  NON d   1     -39.454  23.082  -5.732  0.00  0.00     0.036 A 
ATOM      2  C9  NON d   1     -38.980  24.283  -5.177  0.00  0.00     0.032 A 
ATOM      3  C10 NON d   1     -38.988  24.539  -3.757  0.00  0.00     0.033 A 
ATOM      4  C11 NON d   1     -39.481  23.622  -2.799  0.00  0.00     0.057 A 
ATOM      5  C20 NON d   1     -39.914  22.401  -3.357  0.00  0.00     0.062 A 
ATOM      6 Cl1  NON d   1     -40.285  21.008  -2.396  0.00  0.00    -0.082 Cl
ATOM      7  C21 NON d   1     -39.910  22.155  -4.783  0.00  0.00     0.055 A 
ENDROOT
BRANCH   1   8
ATOM      8  N2  NON d   1     -39.419  22.872  -7.187  0.00  0.00    -0.323 N 
ATOM      9  C7  NON d   1     -39.824  23.786  -8.187  0.00  0.00     0.256 C 
ATOM     10  O1  NON d   1     -40.259  24.904  -7.907  0.00  0.00    -0.267 OA
ATOM     11  H7  NON d   1     -39.049  21.983  -7.489  0.00  0.00     0.169 HD
BRANCH   9  12
ATOM     12  C6  NON d   1     -39.744  23.461  -9.704  0.00  0.00     0.033 A 
ATOM     13  C5  NON d   1     -39.186  22.326 -10.303  0.00  0.00     0.019 A 
ATOM     14  C4  NON d   1     -39.189  22.135 -11.732  0.00  0.00     0.031 A 
ATOM     15  C3  NON d   1     -39.768  23.111 -12.585  0.00  0.00     0.043 A 
ATOM     16  N1  NON d   1     -39.921  23.205 -13.979  0.00  0.00    -0.359 N 
ATOM     17  C23 NON d   1     -40.332  24.253 -12.030  0.00  0.00    -0.001 A 
ATOM     18  C2  NON d   1     -40.569  24.380 -14.348  0.00  0.00     0.012 A 
ATOM     19  H4  NON d   1     -39.599  22.500 -14.629  0.00  0.00     0.166 HD
ATOM     20  C1  NON d   1     -40.972  24.945 -15.723  0.00  0.00     0.068 C 
ATOM     21  C24 NON d   1     -40.829  25.038 -13.127  0.00  0.00    -0.027 A 
ATOM     22  C25 NON d   1     -41.524  26.351 -12.965  0.00  0.00     0.051 C 
ATOM     23  C22 NON d   1     -40.313  24.408 -10.602  0.00  0.00     0.031 A 
ENDBRANCH   9  12
ENDBRANCH   1   8
BRANCH   4  24
ATOM     24  N3  NON d   1     -39.413  24.017  -1.382  0.00  0.00    -0.321 N 
ATOM     25  C12 NON d   1     -40.419  23.963  -0.386  0.00  0.00     0.256 C 
ATOM     26  O2  NON d   1     -41.599  23.714  -0.614  0.00  0.00    -0.267 OA
ATOM     27  H10 NON d   1     -38.563  24.502  -1.131  0.00  0.00     0.169 HD
BRANCH  25  28
ATOM     28  C13 NON d   1     -40.094  24.330   1.088  0.00  0.00     0.033 A 
ATOM     29  C14 NON d   1     -38.915  23.986   1.734  0.00  0.00     0.017 A 
ATOM     30  C15 NON d   1     -38.708  24.379   3.075  0.00  0.00     0.002 A 
ATOM     31  C16 NON d   1     -39.669  25.111   3.819  0.00  0.00     0.023 A 
ATOM     32  C17 NON d   1     -40.878  25.524   3.257  0.00  0.00     0.059 A 
ATOM     33  C19 NON d   1     -41.025  25.115   1.859  0.00  0.00     0.040 A 
BRANCH  32  34
ATOM     34  S1  NON d   1     -42.070  26.284   3.867  0.00  0.00     0.171 S 
ATOM     35  C18 NON d   1     -43.262  27.044   4.477  0.00  0.00     0.167 C 
ATOM     36  O3  NON d   1     -42.565  26.634   2.519  0.00  0.00    -0.223 OA
ATOM     37  O4  NON d   1     -42.590  25.059   4.513  0.00  0.00    -0.223 OA
ENDBRANCH  32  34
ENDBRANCH  25  28
ENDBRANCH   4  24
TORSDOF 5
ENDMDL
MODEL 5
REMARK VINA RESULT:    -6.651      7.062     13.324
REMARK INTER + INTRA:          -9.104
REMARK INTER:                  -8.143
REMARK INTRA:                  -0.961
REMARK CONF_INDEPENDENT:        1.492
REMARK UNBOUND:                -0.961
REMARK  5 active torsions:
REMARK  status: ('A' for Active; 'I' for Inactive)
REMARK    1  A    between atoms: C6_7  and  C7_8 
REMARK       I    between atoms: C7_8  and  N2_10 
REMARK    2  A    between atoms: N2_10  and  C8_11 
REMARK    3  A    between atoms: C11_14  and  N3_15 
REMARK       I    between atoms: N3_15  and  C12_16 
REMARK    4  A    between atoms: C12_16  and  C13_18 
REMARK    5  A    between atoms: C17_22  and  S1_23 
ROOT
ATOM      1  C8  NON d   1     -39.156  20.057  -5.107  0.00  0.00     0.036 A 
ATOM      2  C9  NON d   1     -37.872  19.708  -4.656  0.00  0.00     0.032 A 
ATOM      3  C10 NON d   1     -37.655  18.808  -3.549  0.00  0.00     0.033 A 
ATOM      4  C11 NON d   1     -38.703  18.209  -2.810  0.00  0.00     0.057 A 
ATOM      5  C20 NON d   1     -39.989  18.529  -3.294  0.00  0.00     0.062 A 
ATOM      6 Cl1  NON d   1     -41.422  17.710  -2.767  0.00  0.00    -0.082 Cl
ATOM      7  C21 NON d   1     -40.198  19.438  -4.401  0.00  0.00     0.055 A 
ENDROOT
BRANCH   1   8
ATOM      8  N2  NON d   1     -39.319  20.976  -6.243  0.00  0.00    -0.323 N 
ATOM      9  C7  NON d   1     -39.285  20.641  -7.617  0.00  0.00     0.256 C 
ATOM     10  O1  NON d   1     -39.114  19.482  -7.999  0.00  0.00    -0.267 OA
ATOM     11  H7  NON d   1     -39.487  21.941  -6.002  0.00  0.00     0.169 HD
BRANCH   9  12
ATOM     12  C6  NON d   1     -39.470  21.696  -8.743  0.00  0.00     0.033 A 
ATOM     13  C5  NON d   1     -40.098  22.943  -8.647  0.00  0.00     0.019 A 
ATOM     14  C4  NON d   1     -40.189  23.842  -9.770  0.00  0.00     0.031 A 
ATOM     15  C3  NON d   1     -39.636  23.479 -11.027  0.00  0.00     0.043 A 
ATOM     16  N1  NON d   1     -39.569  24.126 -12.273  0.00  0.00    -0.359 N 
ATOM     17  C23 NON d   1     -39.005  22.250 -11.164  0.00  0.00    -0.001 A 
ATOM     18  C2  NON d   1     -38.911  23.348 -13.221  0.00  0.00     0.012 A 
ATOM     19  H4  NON d   1     -39.951  25.045 -12.451  0.00  0.00     0.166 HD
ATOM     20  C1  NON d   1     -38.578  23.596 -14.704  0.00  0.00     0.068 C 
ATOM     21  C24 NON d   1     -38.555  22.172 -12.527  0.00  0.00    -0.027 A 
ATOM     22  C25 NON d   1     -37.812  21.005 -13.094  0.00  0.00     0.051 C 
ATOM     23  C22 NON d   1     -38.930  21.380 -10.022  0.00  0.00     0.031 A 
ENDBRANCH   9  12
ENDBRANCH   1   8
BRANCH   4  24
ATOM     24  N3  NON d   1     -38.329  17.302  -1.713  0.00  0.00    -0.321 N 
ATOM     25  C12 NON d   1     -37.147  16.538  -1.544  0.00  0.00     0.256 C 
ATOM     26  O2  NON d   1     -36.290  16.398  -2.411  0.00  0.00    -0.267 OA
ATOM     27  H10 NON d   1     -39.077  17.114  -1.061  0.00  0.00     0.169 HD
BRANCH  25  28
ATOM     28  C13 NON d   1     -36.909  15.726  -0.242  0.00  0.00     0.033 A 
ATOM     29  C14 NON d   1     -36.352  16.253   0.915  0.00  0.00     0.017 A 
ATOM     30  C15 NON d   1     -36.190  15.434   2.054  0.00  0.00     0.002 A 
ATOM     31  C16 NON d   1     -36.562  14.065   2.076  0.00  0.00     0.023 A 
ATOM     32  C17 NON d   1     -37.149  13.443   0.973  0.00  0.00     0.059 A 
ATOM     33  C19 NON d   1     -37.319  14.346  -0.166  0.00  0.00     0.040 A 
BRANCH  32  34
ATOM     34  S1  NON d   1     -37.596  11.986   0.752  0.00  0.00     0.171 S 
ATOM     35  C18 NON d   1     -38.043  10.529   0.531  0.00  0.00     0.167 C 
ATOM     36  O3  NON d   1     -38.555  12.087   1.871  0.00  0.00    -0.223 OA
ATOM     37  O4  NON d   1     -38.074  12.283  -0.616  0.00  0.00    -0.223 OA
ENDBRANCH  32  34
ENDBRANCH  25  28
ENDBRANCH   4  24
TORSDOF 5
ENDMDL
MODEL 6
REMARK VINA RESULT:    -6.602      6.924      8.556
REMARK INTER + INTRA:          -9.060
REMARK INTER:                  -8.094
REMARK INTRA:                  -0.966
REMARK CONF_INDEPENDENT:        1.492
REMARK UNBOUND:                -0.966
REMARK  5 active torsions:
REMARK  status: ('A' for Active; 'I' for Inactive)
REMARK    1  A    between atoms: C6_7  and  C7_8 
REMARK       I    between atoms: C7_8  and  N2_10 
REMARK    2  A    between atoms: N2_10  and  C8_11 
REMARK    3  A    between atoms: C11_14  and  N3_15 
REMARK       I    between atoms: N3_15  and  C12_16 
REMARK    4  A    between atoms: C12_16  and  C13_18 
REMARK    5  A    between atoms: C17_22  and  S1_23 
ROOT
ATOM      1  C8  NON d   1     -38.486  18.009  -2.865  0.00  0.00     0.036 A 
ATOM      2  C9  NON d   1     -37.440  18.592  -3.600  0.00  0.00     0.032 A 
ATOM      3  C10 NON d   1     -37.673  19.477  -4.716  0.00  0.00     0.033 A 
ATOM      4  C11 NON d   1     -38.964  19.826  -5.181  0.00  0.00     0.057 A 
ATOM      5  C20 NON d   1     -40.010  19.273  -4.412  0.00  0.00     0.062 A 
ATOM      6 Cl1  NON d   1     -41.661  19.769  -4.579  0.00  0.00    -0.082 Cl
ATOM      7  C21 NON d   1     -39.767  18.381  -3.299  0.00  0.00     0.055 A 
ENDROOT
BRANCH   1   8
ATOM      8  N2  NON d   1     -38.190  17.118  -1.734  0.00  0.00    -0.323 N 
ATOM      9  C7  NON d   1     -37.069  16.267  -1.593  0.00  0.00     0.256 C 
ATOM     10  O1  NON d   1     -36.190  16.203  -2.455  0.00  0.00    -0.267 OA
ATOM     11  H7  NON d   1     -38.859  17.138  -0.978  0.00  0.00     0.169 HD
BRANCH   9  12
ATOM     12  C6  NON d   1     -36.853  15.361  -0.349  0.00  0.00     0.033 A 
ATOM     13  C5  NON d   1     -36.572  15.766   0.960  0.00  0.00     0.019 A 
ATOM     14  C4  NON d   1     -36.409  14.820   2.036  0.00  0.00     0.031 A 
ATOM     15  C3  NON d   1     -36.529  13.426   1.790  0.00  0.00     0.043 A 
ATOM     16  N1  NON d   1     -36.426  12.290   2.611  0.00  0.00    -0.359 N 
ATOM     17  C23 NON d   1     -36.806  12.983   0.503  0.00  0.00    -0.001 A 
ATOM     18  C2  NON d   1     -36.627  11.115   1.891  0.00  0.00     0.012 A 
ATOM     19  H4  NON d   1     -36.232  12.329   3.602  0.00  0.00     0.166 HD
ATOM     20  C1  NON d   1     -36.623   9.635   2.316  0.00  0.00     0.068 C 
ATOM     21  C24 NON d   1     -36.868  11.548   0.570  0.00  0.00    -0.027 A 
ATOM     22  C25 NON d   1     -37.156  10.671  -0.605  0.00  0.00     0.051 C 
ATOM     23  C22 NON d   1     -36.965  13.955  -0.543  0.00  0.00     0.031 A 
ENDBRANCH   9  12
ENDBRANCH   1   8
BRANCH   4  24
ATOM     24  N3  NON d   1     -39.047  20.751  -6.324  0.00  0.00    -0.321 N 
ATOM     25  C12 NON d   1     -39.743  20.603  -7.550  0.00  0.00     0.256 C 
ATOM     26  O2  NON d   1     -40.275  19.559  -7.915  0.00  0.00    -0.267 OA
ATOM     27  H10 NON d   1     -38.420  21.540  -6.261  0.00  0.00     0.169 HD
BRANCH  25  28
ATOM     28  C13 NON d   1     -39.786  21.763  -8.580  0.00  0.00     0.033 A 
ATOM     29  C14 NON d   1     -40.315  23.019  -8.317  0.00  0.00     0.017 A 
ATOM     30  C15 NON d   1     -40.294  24.014  -9.319  0.00  0.00     0.002 A 
ATOM     31  C16 NON d   1     -39.763  23.790 -10.616  0.00  0.00     0.023 A 
ATOM     32  C17 NON d   1     -39.190  22.569 -10.976  0.00  0.00     0.059 A 
ATOM     33  C19 NON d   1     -39.212  21.587  -9.891  0.00  0.00     0.040 A 
BRANCH  32  34
ATOM     34  S1  NON d   1     -38.591  22.087 -12.310  0.00  0.00     0.171 S 
ATOM     35  C18 NON d   1     -37.993  21.605 -13.645  0.00  0.00     0.167 C 
ATOM     36  O3  NON d   1     -37.831  21.030 -11.613  0.00  0.00    -0.223 OA
ATOM     37  O4  NON d   1     -39.928  21.755 -12.852  0.00  0.00    -0.223 OA
ENDBRANCH  32  34
ENDBRANCH  25  28
ENDBRANCH   4  24
TORSDOF 5
ENDMDL
MODEL 7
REMARK VINA RESULT:    -6.451      7.381     12.836
REMARK INTER + INTRA:          -8.889
REMARK INTER:                  -7.942
REMARK INTRA:                  -0.947
REMARK CONF_INDEPENDENT:        1.492
REMARK UNBOUND:                -0.947
REMARK  5 active torsions:
REMARK  status: ('A' for Active; 'I' for Inactive)
REMARK    1  A    between atoms: C6_7  and  C7_8 
REMARK       I    between atoms: C7_8  and  N2_10 
REMARK    2  A    between atoms: N2_10  and  C8_11 
REMARK    3  A    between atoms: C11_14  and  N3_15 
REMARK       I    between atoms: N3_15  and  C12_16 
REMARK    4  A    between atoms: C12_16  and  C13_18 
REMARK    5  A    between atoms: C17_22  and  S1_23 
ROOT
ATOM      1  C8  NON d   1     -38.724  19.763  -5.033  0.00  0.00     0.036 A 
ATOM      2  C9  NON d   1     -37.496  19.190  -4.664  0.00  0.00     0.032 A 
ATOM      3  C10 NON d   1     -37.363  18.295  -3.540  0.00  0.00     0.033 A 
ATOM      4  C11 NON d   1     -38.442  17.923  -2.704  0.00  0.00     0.057 A 
ATOM      5  C20 NON d   1     -39.681  18.466  -3.105  0.00  0.00     0.062 A 
ATOM      6 Cl1  NON d   1     -41.194  17.945  -2.442  0.00  0.00    -0.082 Cl
ATOM      7  C21 NON d   1     -39.804  19.369  -4.229  0.00  0.00     0.055 A 
ENDROOT
BRANCH   1   8
ATOM      8  N2  NON d   1     -38.804  20.666  -6.191  0.00  0.00    -0.323 N 
ATOM      9  C7  NON d   1     -39.318  20.360  -7.473  0.00  0.00     0.256 C 
ATOM     10  O1  NON d   1     -39.776  19.248  -7.740  0.00  0.00    -0.267 OA
ATOM     11  H7  NON d   1     -38.467  21.604  -6.035  0.00  0.00     0.169 HD
BRANCH   9  12
ATOM     12  C6  NON d   1     -39.355  21.394  -8.631  0.00  0.00     0.033 A 
ATOM     13  C5  NON d   1     -39.146  21.154  -9.994  0.00  0.00     0.019 A 
ATOM     14  C4  NON d   1     -39.224  22.206 -10.977  0.00  0.00     0.031 A 
ATOM     15  C3  NON d   1     -39.517  23.538 -10.581  0.00  0.00     0.043 A 
ATOM     16  N1  NON d   1     -39.657  24.745 -11.288  0.00  0.00    -0.359 N 
ATOM     17  C23 NON d   1     -39.730  23.818  -9.238  0.00  0.00    -0.001 A 
ATOM     18  C2  NON d   1     -39.954  25.807 -10.438  0.00  0.00     0.012 A 
ATOM     19  H4  NON d   1     -39.556  24.825 -12.291  0.00  0.00     0.166 HD
ATOM     20  C1  NON d   1     -40.202  27.303 -10.709  0.00  0.00     0.068 C 
ATOM     21  C24 NON d   1     -40.002  25.228  -9.153  0.00  0.00    -0.027 A 
ATOM     22  C25 NON d   1     -40.298  25.944  -7.874  0.00  0.00     0.051 C 
ATOM     23  C22 NON d   1     -39.647  22.745  -8.286  0.00  0.00     0.031 A 
ENDBRANCH   9  12
ENDBRANCH   1   8
BRANCH   4  24
ATOM     24  N3  NON d   1     -38.157  16.990  -1.601  0.00  0.00    -0.321 N 
ATOM     25  C12 NON d   1     -37.043  16.132  -1.416  0.00  0.00     0.256 C 
ATOM     26  O2  NON d   1     -36.191  15.920  -2.273  0.00  0.00    -0.267 OA
ATOM     27  H10 NON d   1     -38.925  16.866  -0.957  0.00  0.00     0.169 HD
BRANCH  25  28
ATOM     28  C13 NON d   1     -36.889  15.306  -0.110  0.00  0.00     0.033 A 
ATOM     29  C14 NON d   1     -36.413  15.823   1.087  0.00  0.00     0.017 A 
ATOM     30  C15 NON d   1     -36.323  14.991   2.225  0.00  0.00     0.002 A 
ATOM     31  C16 NON d   1     -36.689  13.620   2.207  0.00  0.00     0.023 A 
ATOM     32  C17 NON d   1     -37.198  13.009   1.060  0.00  0.00     0.059 A 
ATOM     33  C19 NON d   1     -37.296  13.923  -0.078  0.00  0.00     0.040 A 
BRANCH  32  34
ATOM     34  S1  NON d   1     -37.622  11.552   0.794  0.00  0.00     0.171 S 
ATOM     35  C18 NON d   1     -38.047  10.096   0.527  0.00  0.00     0.167 C 
ATOM     36  O3  NON d   1     -38.516  11.574   1.970  0.00  0.00    -0.223 OA
ATOM     37  O4  NON d   1     -38.188  11.902  -0.529  0.00  0.00    -0.223 OA
ENDBRANCH  32  34
ENDBRANCH  25  28
ENDBRANCH   4  24
TORSDOF 5
ENDMDL
MODEL 8
REMARK VINA RESULT:    -6.388      7.837     12.345
REMARK INTER + INTRA:          -8.829
REMARK INTER:                  -7.880
REMARK INTRA:                  -0.949
REMARK CONF_INDEPENDENT:        1.492
REMARK UNBOUND:                -0.949
REMARK  5 active torsions:
REMARK  status: ('A' for Active; 'I' for Inactive)
REMARK    1  A    between atoms: C6_7  and  C7_8 
REMARK       I    between atoms: C7_8  and  N2_10 
REMARK    2  A    between atoms: N2_10  and  C8_11 
REMARK    3  A    between atoms: C11_14  and  N3_15 
REMARK       I    between atoms: N3_15  and  C12_16 
REMARK    4  A    between atoms: C12_16  and  C13_18 
REMARK    5  A    between atoms: C17_22  and  S1_23 
ROOT
ATOM      1  C8  NON d   1     -42.579  19.227  -5.823  0.00  0.00     0.036 A 
ATOM      2  C9  NON d   1     -43.904  19.555  -6.154  0.00  0.00     0.032 A 
ATOM      3  C10 NON d   1     -45.036  18.814  -5.655  0.00  0.00     0.033 A 
ATOM      4  C11 NON d   1     -44.921  17.689  -4.803  0.00  0.00     0.057 A 
ATOM      5  C20 NON d   1     -43.591  17.391  -4.438  0.00  0.00     0.062 A 
ATOM      6 Cl1  NON d   1     -43.191  16.261  -3.188  0.00  0.00    -0.082 Cl
ATOM      7  C21 NON d   1     -42.461  18.135  -4.951  0.00  0.00     0.055 A 
ENDROOT
BRANCH   1   8
ATOM      8  N2  NON d   1     -41.462  20.020  -6.358  0.00  0.00    -0.323 N 
ATOM      9  C7  NON d   1     -41.308  20.481  -7.687  0.00  0.00     0.256 C 
ATOM     10  O1  NON d   1     -42.149  20.249  -8.557  0.00  0.00    -0.267 OA
ATOM     11  H7  NON d   1     -40.746  20.268  -5.692  0.00  0.00     0.169 HD
BRANCH   9  12
ATOM     12  C6  NON d   1     -40.082  21.317  -8.148  0.00  0.00     0.033 A 
ATOM     13  C5  NON d   1     -38.765  21.225  -7.684  0.00  0.00     0.019 A 
ATOM     14  C4  NON d   1     -37.709  22.053  -8.209  0.00  0.00     0.031 A 
ATOM     15  C3  NON d   1     -37.981  23.002  -9.229  0.00  0.00     0.043 A 
ATOM     16  N1  NON d   1     -37.182  23.927  -9.924  0.00  0.00    -0.359 N 
ATOM     17  C23 NON d   1     -39.276  23.126  -9.717  0.00  0.00    -0.001 A 
ATOM     18  C2  NON d   1     -37.924  24.652 -10.852  0.00  0.00     0.012 A 
ATOM     19  H4  NON d   1     -36.190  24.044  -9.766  0.00  0.00     0.166 HD
ATOM     20  C1  NON d   1     -37.527  25.760 -11.846  0.00  0.00     0.068 C 
ATOM     21  C24 NON d   1     -39.236  24.150 -10.725  0.00  0.00    -0.027 A 
ATOM     22  C25 NON d   1     -40.428  24.590 -11.513  0.00  0.00     0.051 C 
ATOM     23  C22 NON d   1     -40.303  22.282  -9.172  0.00  0.00     0.031 A 
ENDBRANCH   9  12
ENDBRANCH   1   8
BRANCH   4  24
ATOM     24  N3  NON d   1     -46.167  17.040  -4.363  0.00  0.00    -0.321 N 
ATOM     25  C12 NON d   1     -47.378  16.845  -5.073  0.00  0.00     0.256 C 
ATOM     26  O2  NON d   1     -47.625  17.357  -6.161  0.00  0.00    -0.267 OA
ATOM     27  H10 NON d   1     -46.188  16.815  -3.378  0.00  0.00     0.169 HD
BRANCH  25  28
ATOM     28  C13 NON d   1     -48.540  16.027  -4.448  0.00  0.00     0.033 A 
ATOM     29  C14 NON d   1     -48.838  14.714  -4.786  0.00  0.00     0.017 A 
ATOM     30  C15 NON d   1     -49.909  14.050  -4.148  0.00  0.00     0.002 A 
ATOM     31  C16 NON d   1     -50.726  14.671  -3.168  0.00  0.00     0.023 A 
ATOM     32  C17 NON d   1     -50.498  15.981  -2.743  0.00  0.00     0.059 A 
ATOM     33  C19 NON d   1     -49.360  16.609  -3.414  0.00  0.00     0.040 A 
BRANCH  32  34
ATOM     34  S1  NON d   1     -51.259  16.865  -1.737  0.00  0.00     0.171 S 
ATOM     35  C18 NON d   1     -52.019  17.748  -0.731  0.00  0.00     0.167 C 
ATOM     36  O3  NON d   1     -49.990  17.255  -1.087  0.00  0.00    -0.223 OA
ATOM     37  O4  NON d   1     -51.793  17.726  -2.815  0.00  0.00    -0.223 OA
ENDBRANCH  32  34
ENDBRANCH  25  28
ENDBRANCH   4  24
TORSDOF 5
ENDMDL
MODEL 9
REMARK VINA RESULT:    -5.997      7.286      9.213
REMARK INTER + INTRA:          -8.436
REMARK INTER:                  -7.488
REMARK INTRA:                  -0.948
REMARK CONF_INDEPENDENT:        1.492
REMARK UNBOUND:                -0.948
REMARK  5 active torsions:
REMARK  status: ('A' for Active; 'I' for Inactive)
REMARK    1  A    between atoms: C6_7  and  C7_8 
REMARK       I    between atoms: C7_8  and  N2_10 
REMARK    2  A    between atoms: N2_10  and  C8_11 
REMARK    3  A    between atoms: C11_14  and  N3_15 
REMARK       I    between atoms: N3_15  and  C12_16 
REMARK    4  A    between atoms: C12_16  and  C13_18 
REMARK    5  A    between atoms: C17_22  and  S1_23 
ROOT
ATOM      1  C8  NON d   1     -38.820  17.536  -2.326  0.00  0.00     0.036 A 
ATOM      2  C9  NON d   1     -37.809  18.439  -2.692  0.00  0.00     0.032 A 
ATOM      3  C10 NON d   1     -38.009  19.472  -3.680  0.00  0.00     0.033 A 
ATOM      4  C11 NON d   1     -39.227  19.662  -4.377  0.00  0.00     0.057 A 
ATOM      5  C20 NON d   1     -40.252  18.781  -3.974  0.00  0.00     0.062 A 
ATOM      6 Cl1  NON d   1     -41.906  18.984  -4.447  0.00  0.00    -0.082 Cl
ATOM      7  C21 NON d   1     -40.039  17.743  -2.988  0.00  0.00     0.055 A 
ENDROOT
BRANCH   1   8
ATOM      8  N2  NON d   1     -38.561  16.505  -1.310  0.00  0.00    -0.323 N 
ATOM      9  C7  NON d   1     -37.302  15.988  -0.926  0.00  0.00     0.256 C 
ATOM     10  O1  NON d   1     -36.254  16.386  -1.436  0.00  0.00    -0.267 OA
ATOM     11  H7  NON d   1     -39.377  16.150  -0.833  0.00  0.00     0.169 HD
BRANCH   9  12
ATOM     12  C6  NON d   1     -37.141  14.894   0.165  0.00  0.00     0.033 A 
ATOM     13  C5  NON d   1     -36.677  15.059   1.475  0.00  0.00     0.019 A 
ATOM     14  C4  NON d   1     -36.590  13.957   2.401  0.00  0.00     0.031 A 
ATOM     15  C3  NON d   1     -36.978  12.651   2.001  0.00  0.00     0.043 A 
ATOM     16  N1  NON d   1     -37.006  11.410   2.659  0.00  0.00    -0.359 N 
ATOM     17  C23 NON d   1     -37.443  12.445   0.708  0.00  0.00    -0.001 A 
ATOM     18  C2  NON d   1     -37.477  10.397   1.828  0.00  0.00     0.012 A 
ATOM     19  H4  NON d   1     -36.721  11.276   3.620  0.00  0.00     0.166 HD
ATOM     20  C1  NON d   1     -37.699   8.892   2.065  0.00  0.00     0.068 C 
ATOM     21  C24 NON d   1     -37.753  11.044   0.605  0.00  0.00    -0.027 A 
ATOM     22  C25 NON d   1     -38.296  10.400  -0.629  0.00  0.00     0.051 C 
ATOM     23  C22 NON d   1     -37.519  13.566  -0.186  0.00  0.00     0.031 A 
ENDBRANCH   9  12
ENDBRANCH   1   8
BRANCH   4  24
ATOM     24  N3  NON d   1     -39.288  20.766  -5.349  0.00  0.00    -0.321 N 
ATOM     25  C12 NON d   1     -39.778  20.766  -6.679  0.00  0.00     0.256 C 
ATOM     26  O2  NON d   1     -40.093  19.752  -7.294  0.00  0.00    -0.267 OA
ATOM     27  H10 NON d   1     -38.800  21.601  -5.055  0.00  0.00     0.169 HD
BRANCH  25  28
ATOM     28  C13 NON d   1     -39.851  22.084  -7.496  0.00  0.00     0.033 A 
ATOM     29  C14 NON d   1     -39.940  22.139  -8.880  0.00  0.00     0.017 A 
ATOM     30  C15 NON d   1     -40.016  23.390  -9.530  0.00  0.00     0.002 A 
ATOM     31  C16 NON d   1     -39.991  24.624  -8.830  0.00  0.00     0.023 A 
ATOM     32  C17 NON d   1     -39.924  24.680  -7.437  0.00  0.00     0.059 A 
ATOM     33  C19 NON d   1     -39.877  23.356  -6.816  0.00  0.00     0.040 A 
BRANCH  32  34
ATOM     34  S1  NON d   1     -39.849  25.880  -6.475  0.00  0.00     0.171 S 
ATOM     35  C18 NON d   1     -39.775  27.079  -5.513  0.00  0.00     0.167 C 
ATOM     36  O3  NON d   1     -40.510  26.748  -7.471  0.00  0.00    -0.223 OA
ATOM     37  O4  NON d   1     -40.690  25.194  -5.469  0.00  0.00    -0.223 OA
ENDBRANCH  32  34
ENDBRANCH  25  28
ENDBRANCH   4  24
TORSDOF 5
ENDMDL
