MODEL 1
REMARK VINA RESULT:   -28.415      0.000      0.000
REMARK INTER + INTRA:         -31.533
REMARK INTER:                 -30.802
REMARK INTRA:                  -0.731
REMARK CONF_INDEPENDENT:        2.386
REMARK UNBOUND:                -0.731
REMARK  8 active torsions:
REMARK  status: ('A' for Active; 'I' for Inactive)
REMARK    1  A    between atoms: C2_2  and  S1_3 
REMARK    2  A    between atoms: C2_2  and  C11_16 
REMARK    3  A    between atoms: S1_3  and  C3_4 
REMARK    4  A    between atoms: C3_4  and  C4_5 
REMARK       I    between atoms: C4_5  and  N1_7 
REMARK    5  A    between atoms: N1_7  and  C5_8 
REMARK    6  A    between atoms: C12_18  and  N3_19 
REMARK    7  A    between atoms: C13_21  and  N5_22 
REMARK    8  A    between atoms: N5_22  and  C14_23 
ROOT
ATOM      1  C11 NON d   1     -45.136  17.312  -3.788  0.00  0.00     0.162 A 
ATOM      2  N2  NON d   1     -45.634  16.910  -4.962  0.00  0.00    -0.201 NA
ATOM      3  C12 NON d   1     -46.856  16.426  -4.964  0.00  0.00     0.219 A 
ATOM      4  N4  NON d   1     -47.604  16.311  -3.899  0.00  0.00    -0.031 NA
ATOM      5  C13 NON d   1     -47.081  16.731  -2.755  0.00  0.00     0.731 A 
ATOM      6  N6  NON d   1     -45.845  17.250  -2.649  0.00  0.00    -0.046 NA
ENDROOT
BRANCH   1   7
ATOM      7  C2  NON d   1     -43.816  18.111  -3.865  0.00  0.00     0.116 C 
ATOM      8  C1  NON d   1     -42.533  17.448  -3.328  0.00  0.00     0.029 C 
BRANCH   7   9
ATOM      9  S1  NON d   1     -43.551  19.085  -5.438  0.00  0.00    -0.147 SA
BRANCH   9  10
ATOM     10  C3  NON d   1     -41.798  19.640  -5.358  0.00  0.00     0.177 C 
BRANCH  10  11
ATOM     11  C4  NON d   1     -40.845  19.288  -6.513  0.00  0.00     0.231 C 
ATOM     12  O1  NON d   1     -40.591  18.138  -6.850  0.00  0.00    -0.272 OA
ATOM     13  N1  NON d   1     -40.395  20.440  -7.166  0.00  0.00    -0.321 N 
ATOM     14  H7  NON d   1     -40.926  21.289  -6.994  0.00  0.00     0.169 HD
BRANCH  13  15
ATOM     15  C5  NON d   1     -39.434  20.549  -8.208  0.00  0.00     0.112 A 
ATOM     16  C6  NON d   1     -39.577  21.642  -9.077  0.00  0.00     0.146 A 
ATOM     17  F1  NON d   1     -40.598  22.496  -8.889  0.00  0.00    -0.204 F 
ATOM     18  C7  NON d   1     -38.697  21.889 -10.132  0.00  0.00     0.045 A 
ATOM     19  C8  NON d   1     -37.622  21.031 -10.336  0.00  0.00     0.006 A 
ATOM     20  C9  NON d   1     -37.438  19.950  -9.474  0.00  0.00     0.045 A 
ATOM     21  C10 NON d   1     -38.333  19.716  -8.418  0.00  0.00     0.146 A 
ATOM     22  F2  NON d   1     -38.035  18.719  -7.579  0.00  0.00    -0.204 F 
ENDBRANCH  13  15
ENDBRANCH  10  11
ENDBRANCH   9  10
ENDBRANCH   7   9
ENDBRANCH   1   7
BRANCH   3  23
ATOM     23  N3  NON d   1     -47.440  16.131  -6.185  0.00  0.00    -0.270 NA
ATOM     24  H11 NON d   1     -48.412  15.903  -6.015  0.00  0.00     0.127 HD
ATOM     25  H12 NON d   1     -47.286  16.909  -6.809  0.00  0.00     0.127 HD
ENDBRANCH   3  23
BRANCH   5  26
ATOM     26  N5  NON d   1     -47.868  16.656  -1.600  0.00  0.00    -0.188 N 
ATOM     27  H13 NON d   1     -47.309  16.385  -0.806  0.00  0.00     0.184 HD
BRANCH  26  28
ATOM     28  C14 NON d   1     -49.223  16.964  -1.360  0.00  0.00     0.049 A 
ATOM     29  C15 NON d   1     -49.683  17.681  -0.244  0.00  0.00     0.030 A 
ATOM     30  C16 NON d   1     -51.034  18.009  -0.075  0.00  0.00     0.002 A 
ATOM     31  C17 NON d   1     -51.966  17.623  -1.029  0.00  0.00     0.000 A 
ATOM     32  C18 NON d   1     -51.542  16.911  -2.147  0.00  0.00     0.002 A 
ATOM     33  C19 NON d   1     -50.187  16.587  -2.309  0.00  0.00     0.030 A 
ENDBRANCH  26  28
ENDBRANCH   5  26
TORSDOF 8
ENDMDL
MODEL 2
REMARK VINA RESULT:   -28.210      1.574      1.941
REMARK INTER + INTRA:         -31.507
REMARK INTER:                 -30.597
REMARK INTRA:                  -0.911
REMARK CONF_INDEPENDENT:        2.386
REMARK UNBOUND:                -0.911
REMARK  8 active torsions:
REMARK  status: ('A' for Active; 'I' for Inactive)
REMARK    1  A    between atoms: C2_2  and  S1_3 
REMARK    2  A    between atoms: C2_2  and  C11_16 
REMARK    3  A    between atoms: S1_3  and  C3_4 
REMARK    4  A    between atoms: C3_4  and  C4_5 
REMARK       I    between atoms: C4_5  and  N1_7 
REMARK    5  A    between atoms: N1_7  and  C5_8 
REMARK    6  A    between atoms: C12_18  and  N3_19 
REMARK    7  A    between atoms: C13_21  and  N5_22 
REMARK    8  A    between atoms: N5_22  and  C14_23 
ROOT
ATOM      1  C11 NON d   1     -44.893  17.202  -3.984  0.00  0.00     0.162 A 
ATOM      2  N2  NON d   1     -45.498  16.801  -5.107  0.00  0.00    -0.201 NA
ATOM      3  C12 NON d   1     -46.757  16.434  -5.015  0.00  0.00     0.219 A 
ATOM      4  N4  NON d   1     -47.445  16.435  -3.904  0.00  0.00    -0.031 NA
ATOM      5  C13 NON d   1     -46.816  16.852  -2.814  0.00  0.00     0.731 A 
ATOM      6  N6  NON d   1     -45.533  17.256  -2.804  0.00  0.00    -0.046 NA
ENDROOT
BRANCH   1   7
ATOM      7  C2  NON d   1     -43.513  17.869  -4.174  0.00  0.00     0.116 C 
ATOM      8  C1  NON d   1     -43.427  19.120  -5.069  0.00  0.00     0.029 C 
BRANCH   7   9
ATOM      9  S1  NON d   1     -42.446  17.972  -2.643  0.00  0.00    -0.147 SA
BRANCH   9  10
ATOM     10  C3  NON d   1     -40.737  17.628  -3.236  0.00  0.00     0.177 C 
BRANCH  10  11
ATOM     11  C4  NON d   1     -40.061  18.622  -4.195  0.00  0.00     0.231 C 
ATOM     12  O1  NON d   1     -39.119  19.336  -3.872  0.00  0.00    -0.272 OA
ATOM     13  N1  NON d   1     -40.599  18.528  -5.482  0.00  0.00    -0.321 N 
ATOM     14  H7  NON d   1     -41.135  17.688  -5.684  0.00  0.00     0.169 HD
BRANCH  13  15
ATOM     15  C5  NON d   1     -40.321  19.334  -6.620  0.00  0.00     0.112 A 
ATOM     16  C6  NON d   1     -40.597  20.705  -6.494  0.00  0.00     0.146 A 
ATOM     17  F1  NON d   1     -41.109  21.166  -5.340  0.00  0.00    -0.204 F 
ATOM     18  C7  NON d   1     -40.354  21.621  -7.520  0.00  0.00     0.045 A 
ATOM     19  C8  NON d   1     -39.808  21.173  -8.718  0.00  0.00     0.006 A 
ATOM     20  C9  NON d   1     -39.500  19.821  -8.863  0.00  0.00     0.045 A 
ATOM     21  C10 NON d   1     -39.750  18.913  -7.822  0.00  0.00     0.146 A 
ATOM     22  F2  NON d   1     -39.338  17.654  -8.002  0.00  0.00    -0.204 F 
ENDBRANCH  13  15
ENDBRANCH  10  11
ENDBRANCH   9  10
ENDBRANCH   7   9
ENDBRANCH   1   7
BRANCH   3  23
ATOM     23  N3  NON d   1     -47.440  16.145  -6.185  0.00  0.00    -0.270 NA
ATOM     24  H11 NON d   1     -46.847  16.411  -6.962  0.00  0.00     0.127 HD
ATOM     25  H12 NON d   1     -47.709  15.172  -6.166  0.00  0.00     0.127 HD
ENDBRANCH   3  23
BRANCH   5  26
ATOM     26  N5  NON d   1     -47.534  16.901  -1.614  0.00  0.00    -0.188 N 
ATOM     27  H13 NON d   1     -46.913  16.810  -0.824  0.00  0.00     0.184 HD
BRANCH  26  28
ATOM     28  C14 NON d   1     -48.898  17.129  -1.338  0.00  0.00     0.049 A 
ATOM     29  C15 NON d   1     -49.371  17.785  -0.190  0.00  0.00     0.030 A 
ATOM     30  C16 NON d   1     -50.734  18.035   0.015  0.00  0.00     0.002 A 
ATOM     31  C17 NON d   1     -51.663  17.633  -0.934  0.00  0.00     0.000 A 
ATOM     32  C18 NON d   1     -51.226  16.980  -2.083  0.00  0.00     0.002 A 
ATOM     33  C19 NON d   1     -49.859  16.733  -2.281  0.00  0.00     0.030 A 
ENDBRANCH  26  28
ENDBRANCH   5  26
TORSDOF 8
ENDMDL
