MODEL 1
REMARK VINA RESULT:   -28.257      0.000      0.000
REMARK INTER + INTRA:         -31.882
REMARK INTER:                 -30.643
REMARK INTRA:                  -1.239
REMARK CONF_INDEPENDENT:        2.386
REMARK UNBOUND:                -1.239
REMARK  8 active torsions:
REMARK  status: ('A' for Active; 'I' for Inactive)
REMARK    1  A    between atoms: O1_2  and  C2_3 
REMARK    2  A    between atoms: C3_5  and  C2_3 
REMARK    3  A    between atoms: C3_5  and  C4_6 
REMARK    4  A    between atoms: C3_5  and  N1_14 
REMARK    5  A    between atoms: C4_6  and  C5_7 
REMARK    6  A    between atoms: C8_10  and  O3_11 
REMARK    7  A    between atoms: C12_16  and  C11_15 
REMARK    8  A    between atoms: C13_17  and  O4_18 
ROOT
ATOM      1  C3  NON d   1     -41.756  19.156  -5.025  0.00  0.00     0.211 C 
ENDROOT
BRANCH   1   2
ATOM      2  C2  NON d   1     -41.055  19.707  -3.771  0.00  0.00     0.283 C 
ATOM      3  O2  NON d   1     -40.307  20.681  -3.776  0.00  0.00    -0.263 OA
BRANCH   2   4
ATOM      4  O1  NON d   1     -41.257  18.912  -2.682  0.00  0.00    -0.325 OA
ATOM      5  C1  NON d   1     -40.425  17.757  -2.571  0.00  0.00     0.213 C 
ENDBRANCH   2   4
ENDBRANCH   1   2
BRANCH   1   6
ATOM      6  C4  NON d   1     -40.793  18.489  -6.047  0.00  0.00     0.076 C 
BRANCH   6   7
ATOM      7  C5  NON d   1     -40.122  19.362  -7.115  0.00  0.00    -0.056 A 
ATOM      8  C6  NON d   1     -39.002  18.844  -7.797  0.00  0.00     0.010 A 
ATOM      9  C7  NON d   1     -38.340  19.586  -8.786  0.00  0.00     0.037 A 
ATOM     10  C8  NON d   1     -38.792  20.861  -9.102  0.00  0.00     0.065 A 
ATOM     11  C9  NON d   1     -39.893  21.396  -8.449  0.00  0.00     0.037 A 
ATOM     12  C10 NON d   1     -40.556  20.649  -7.465  0.00  0.00     0.010 A 
BRANCH  10  13
ATOM     13  O3  NON d   1     -38.183  21.625 -10.055  0.00  0.00    -0.361 OA
ATOM     14  H9  NON d   1     -38.827  21.820 -10.756  0.00  0.00     0.217 HD
ENDBRANCH  10  13
ENDBRANCH   6   7
ENDBRANCH   1   6
BRANCH   1  15
ATOM     15  N1  NON d   1     -42.785  18.158  -4.598  0.00  0.00    -0.285 NA
ATOM     16  C11 NON d   1     -43.983  18.401  -5.036  0.00  0.00     0.133 C 
BRANCH  16  17
ATOM     17  C12 NON d   1     -45.212  17.521  -4.981  0.00  0.00     0.102 C 
ATOM     18  C13 NON d   1     -45.471  16.791  -3.868  0.00  0.00     0.163 C 
ATOM     19  N2  NON d   1     -46.691  16.143  -3.683  0.00  0.00    -0.282 N 
ATOM     20  C14 NON d   1     -47.065  15.321  -2.435  0.00  0.00     0.163 C 
ATOM     21  C15 NON d   1     -47.642  16.107  -4.720  0.00  0.00     0.353 C 
ATOM     22  O5  NON d   1     -48.648  15.400  -4.617  0.00  0.00    -0.244 OA
ATOM     23  N3  NON d   1     -47.440  16.880  -5.824  0.00  0.00    -0.153 NA
ATOM     24  C16 NON d   1     -46.349  17.554  -5.959  0.00  0.00     0.287 C 
ATOM     25  O6  NON d   1     -46.067  18.344  -6.877  0.00  0.00    -0.265 OA
BRANCH  18  26
ATOM     26  O4  NON d   1     -44.553  16.612  -2.848  0.00  0.00    -0.345 OA
ATOM     27  H13 NON d   1     -43.909  17.341  -2.909  0.00  0.00     0.219 HD
ENDBRANCH  18  26
ENDBRANCH  16  17
ENDBRANCH   1  15
TORSDOF 8
ENDMDL
MODEL 2
REMARK VINA RESULT:   -26.278      2.151      3.539
REMARK INTER + INTRA:         -29.916
REMARK INTER:                 -28.664
REMARK INTRA:                  -1.252
REMARK CONF_INDEPENDENT:        2.386
REMARK UNBOUND:                -1.252
REMARK  8 active torsions:
REMARK  status: ('A' for Active; 'I' for Inactive)
REMARK    1  A    between atoms: O1_2  and  C2_3 
REMARK    2  A    between atoms: C3_5  and  C2_3 
REMARK    3  A    between atoms: C3_5  and  C4_6 
REMARK    4  A    between atoms: C3_5  and  N1_14 
REMARK    5  A    between atoms: C4_6  and  C5_7 
REMARK    6  A    between atoms: C8_10  and  O3_11 
REMARK    7  A    between atoms: C12_16  and  C11_15 
REMARK    8  A    between atoms: C13_17  and  O4_18 
ROOT
ATOM      1  C3  NON d   1     -41.765  19.183  -4.643  0.00  0.00     0.211 C 
ENDROOT
BRANCH   1   2
ATOM      2  C2  NON d   1     -41.533  18.881  -6.134  0.00  0.00     0.283 C 
ATOM      3  O2  NON d   1     -40.912  17.906  -6.546  0.00  0.00    -0.263 OA
BRANCH   2   4
ATOM      4  O1  NON d   1     -41.984  19.887  -6.935  0.00  0.00    -0.325 OA
ATOM      5  C1  NON d   1     -41.063  20.398  -7.899  0.00  0.00     0.213 C 
ENDBRANCH   2   4
ENDBRANCH   1   2
BRANCH   1   6
ATOM      6  C4  NON d   1     -42.017  20.685  -4.333  0.00  0.00     0.076 C 
BRANCH   6   7
ATOM      7  C5  NON d   1     -40.842  21.555  -3.870  0.00  0.00    -0.056 A 
ATOM      8  C6  NON d   1     -39.531  21.078  -4.078  0.00  0.00     0.010 A 
ATOM      9  C7  NON d   1     -38.410  21.821  -3.681  0.00  0.00     0.037 A 
ATOM     10  C8  NON d   1     -38.589  23.054  -3.066  0.00  0.00     0.065 A 
ATOM     11  C9  NON d   1     -39.867  23.549  -2.850  0.00  0.00     0.037 A 
ATOM     12  C10 NON d   1     -40.985  22.807  -3.254  0.00  0.00     0.010 A 
BRANCH  10  13
ATOM     13  O3  NON d   1     -37.533  23.816  -2.659  0.00  0.00    -0.361 OA
ATOM     14  H9  NON d   1     -37.517  23.831  -1.688  0.00  0.00     0.217 HD
ENDBRANCH  10  13
ENDBRANCH   6   7
ENDBRANCH   1   6
BRANCH   1  15
ATOM     15  N1  NON d   1     -42.937  18.382  -4.169  0.00  0.00    -0.285 NA
ATOM     16  C11 NON d   1     -43.931  18.339  -5.004  0.00  0.00     0.133 C 
BRANCH  16  17
ATOM     17  C12 NON d   1     -45.173  17.478  -4.959  0.00  0.00     0.102 C 
ATOM     18  C13 NON d   1     -45.446  16.742  -3.853  0.00  0.00     0.163 C 
ATOM     19  N2  NON d   1     -46.676  16.112  -3.676  0.00  0.00    -0.282 N 
ATOM     20  C14 NON d   1     -47.065  15.285  -2.435  0.00  0.00     0.163 C 
ATOM     21  C15 NON d   1     -47.625  16.100  -4.714  0.00  0.00     0.353 C 
ATOM     22  O5  NON d   1     -48.643  15.408  -4.619  0.00  0.00    -0.244 OA
ATOM     23  N3  NON d   1     -47.410  16.880  -5.810  0.00  0.00    -0.153 NA
ATOM     24  C16 NON d   1     -46.308  17.538  -5.938  0.00  0.00     0.287 C 
ATOM     25  O6  NON d   1     -46.012  18.332  -6.848  0.00  0.00    -0.265 OA
BRANCH  18  26
ATOM     26  O4  NON d   1     -44.532  16.540  -2.833  0.00  0.00    -0.345 OA
ATOM     27  H13 NON d   1     -44.128  17.403  -2.632  0.00  0.00     0.219 HD
ENDBRANCH  18  26
ENDBRANCH  16  17
ENDBRANCH   1  15
TORSDOF 8
ENDMDL
