MODEL 1
REMARK VINA RESULT:   -31.027      0.000      0.000
REMARK INTER + INTRA:         -33.647
REMARK INTER:                 -32.817
REMARK INTRA:                  -0.831
REMARK CONF_INDEPENDENT:        1.790
REMARK UNBOUND:                -0.831
REMARK  6 active torsions:
REMARK  status: ('A' for Active; 'I' for Inactive)
REMARK    1  A    between atoms: C2_2  and  N1_3 
REMARK       I    between atoms: N1_3  and  C3_4 
REMARK    2  A    between atoms: C3_4  and  C4_6 
REMARK    3  A    between atoms: C9_11  and  N2_12 
REMARK       I    between atoms: N2_12  and  C10_13 
REMARK    4  A    between atoms: C10_13  and  C11_15 
REMARK    5  A    between atoms: C14_18  and  C15_19 
REMARK    6  A    between atoms: C15_19  and  N3_20 
ROOT
ATOM      1  N2  NON d   1     -39.938  19.164  -7.525  0.00  0.00    -0.322 N 
ATOM      2  C10 NON d   1     -40.096  19.450  -6.174  0.00  0.00     0.256 C 
ATOM      3  O2  NON d   1     -39.281  20.039  -5.469  0.00  0.00    -0.267 OA
ATOM      4  H12 NON d   1     -40.486  18.401  -7.899  0.00  0.00     0.169 HD
ENDROOT
BRANCH   1   5
ATOM      5  C9  NON d   1     -38.908  19.683  -8.374  0.00  0.00     0.042 A 
ATOM      6  C7  NON d   1     -37.615  19.135  -8.501  0.00  0.00    -0.035 A 
ATOM      7  C6  NON d   1     -36.720  19.693  -9.441  0.00  0.00     0.010 A 
ATOM      8  C8  NON d   1     -37.065  18.004  -7.672  0.00  0.00     0.050 C 
ATOM      9  C5  NON d   1     -37.049  20.820 -10.194  0.00  0.00     0.017 A 
ATOM     10  C4  NON d   1     -38.282  21.437 -10.014  0.00  0.00     0.034 A 
ATOM     11  C21 NON d   1     -39.201  20.862  -9.098  0.00  0.00     0.047 A 
BRANCH  10  12
ATOM     12  C3  NON d   1     -38.684  22.664 -10.786  0.00  0.00     0.251 C 
ATOM     13  N1  NON d   1     -39.942  23.232 -10.567  0.00  0.00    -0.357 N 
ATOM     14  H6  NON d   1     -40.649  22.725 -10.058  0.00  0.00     0.162 HD
ATOM     15  O1  NON d   1     -37.893  23.135 -11.600  0.00  0.00    -0.268 OA
BRANCH  13  16
ATOM     16  C2  NON d   1     -40.356  24.376 -11.370  0.00  0.00     0.118 C 
ATOM     17  C1  NON d   1     -40.519  24.139 -12.882  0.00  0.00     0.026 C 
ENDBRANCH  13  16
ENDBRANCH  10  12
ENDBRANCH   1   5
BRANCH   2  18
ATOM     18  C11 NON d   1     -41.356  19.012  -5.500  0.00  0.00     0.032 A 
ATOM     19  C12 NON d   1     -41.240  17.957  -4.587  0.00  0.00     0.017 A 
ATOM     20  C13 NON d   1     -42.372  17.418  -3.968  0.00  0.00     0.010 A 
ATOM     21  C14 NON d   1     -43.666  17.891  -4.253  0.00  0.00    -0.040 A 
ATOM     22  C19 NON d   1     -43.777  18.938  -5.183  0.00  0.00     0.010 A 
ATOM     23  C20 NON d   1     -42.631  19.505  -5.794  0.00  0.00     0.017 A 
BRANCH  21  24
ATOM     24  C15 NON d   1     -44.789  17.199  -3.499  0.00  0.00     0.167 C 
BRANCH  24  25
ATOM     25  N3  NON d   1     -45.926  16.627  -4.215  0.00  0.00    -0.346 N 
ATOM     26  C16 NON d   1     -47.059  16.151  -3.596  0.00  0.00     0.111 A 
ATOM     27  C17 NON d   1     -47.974  15.956  -4.604  0.00  0.00     0.135 A 
ATOM     28  N4  NON d   1     -47.440  16.317  -5.811  0.00  0.00    -0.255 NA
ATOM     29  C18 NON d   1     -46.230  16.758  -5.541  0.00  0.00     0.209 A 
ENDBRANCH  24  25
ENDBRANCH  21  24
ENDBRANCH   2  18
TORSDOF 6
ENDMDL
MODEL 2
REMARK VINA RESULT:   -30.751      0.601      1.103
REMARK INTER + INTRA:         -33.341
REMARK INTER:                 -32.541
REMARK INTRA:                  -0.799
REMARK CONF_INDEPENDENT:        1.790
REMARK UNBOUND:                -0.799
REMARK  6 active torsions:
REMARK  status: ('A' for Active; 'I' for Inactive)
REMARK    1  A    between atoms: C2_2  and  N1_3 
REMARK       I    between atoms: N1_3  and  C3_4 
REMARK    2  A    between atoms: C3_4  and  C4_6 
REMARK    3  A    between atoms: C9_11  and  N2_12 
REMARK       I    between atoms: N2_12  and  C10_13 
REMARK    4  A    between atoms: C10_13  and  C11_15 
REMARK    5  A    between atoms: C14_18  and  C15_19 
REMARK    6  A    between atoms: C15_19  and  N3_20 
ROOT
ATOM      1  N2  NON d   1     -39.893  19.075  -7.402  0.00  0.00    -0.322 N 
ATOM      2  C10 NON d   1     -40.234  19.454  -6.110  0.00  0.00     0.256 C 
ATOM      3  O2  NON d   1     -39.671  20.321  -5.448  0.00  0.00    -0.267 OA
ATOM      4  H12 NON d   1     -40.180  18.153  -7.701  0.00  0.00     0.169 HD
ENDROOT
BRANCH   1   5
ATOM      5  C9  NON d   1     -38.975  19.763  -8.260  0.00  0.00     0.042 A 
ATOM      6  C7  NON d   1     -37.690  19.298  -8.606  0.00  0.00    -0.035 A 
ATOM      7  C6  NON d   1     -36.917  20.032  -9.532  0.00  0.00     0.010 A 
ATOM      8  C8  NON d   1     -37.024  18.076  -8.028  0.00  0.00     0.050 C 
ATOM      9  C5  NON d   1     -37.354  21.248 -10.058  0.00  0.00     0.017 A 
ATOM     10  C4  NON d   1     -38.577  21.776  -9.656  0.00  0.00     0.034 A 
ATOM     11  C21 NON d   1     -39.376  21.027  -8.753  0.00  0.00     0.047 A 
BRANCH  10  12
ATOM     12  C3  NON d   1     -39.091  23.091 -10.178  0.00  0.00     0.251 C 
ATOM     13  N1  NON d   1     -39.937  23.103 -11.290  0.00  0.00    -0.357 N 
ATOM     14  H6  NON d   1     -40.043  22.278 -11.861  0.00  0.00     0.162 HD
ATOM     15  O1  NON d   1     -38.747  24.126  -9.613  0.00  0.00    -0.268 OA
BRANCH  13  16
ATOM     16  C2  NON d   1     -40.374  24.381 -11.838  0.00  0.00     0.118 C 
ATOM     17  C1  NON d   1     -40.918  24.367 -13.279  0.00  0.00     0.026 C 
ENDBRANCH  13  16
ENDBRANCH  10  12
ENDBRANCH   1   5
BRANCH   2  18
ATOM     18  C11 NON d   1     -41.380  18.759  -5.448  0.00  0.00     0.032 A 
ATOM     19  C12 NON d   1     -42.655  19.279  -5.704  0.00  0.00     0.017 A 
ATOM     20  C13 NON d   1     -43.784  18.755  -5.068  0.00  0.00     0.010 A 
ATOM     21  C14 NON d   1     -43.685  17.708  -4.131  0.00  0.00    -0.040 A 
ATOM     22  C19 NON d   1     -42.401  17.204  -3.866  0.00  0.00     0.010 A 
ATOM     23  C20 NON d   1     -41.258  17.714  -4.528  0.00  0.00     0.017 A 
BRANCH  21  24
ATOM     24  C15 NON d   1     -45.003  17.254  -3.527  0.00  0.00     0.167 C 
BRANCH  24  25
ATOM     25  N3  NON d   1     -46.025  16.622  -4.356  0.00  0.00    -0.346 N 
ATOM     26  C16 NON d   1     -47.087  15.908  -3.850  0.00  0.00     0.111 A 
ATOM     27  C17 NON d   1     -47.940  15.716  -4.911  0.00  0.00     0.135 A 
ATOM     28  N4  NON d   1     -47.439  16.307  -6.039  0.00  0.00    -0.255 NA
ATOM     29  C18 NON d   1     -46.316  16.880  -5.666  0.00  0.00     0.209 A 
ENDBRANCH  24  25
ENDBRANCH  21  24
ENDBRANCH   2  18
TORSDOF 6
ENDMDL
MODEL 3
REMARK VINA RESULT:   -30.145      1.847      2.278
REMARK INTER + INTRA:         -32.694
REMARK INTER:                 -31.935
REMARK INTRA:                  -0.759
REMARK CONF_INDEPENDENT:        1.790
REMARK UNBOUND:                -0.759
REMARK  6 active torsions:
REMARK  status: ('A' for Active; 'I' for Inactive)
REMARK    1  A    between atoms: C2_2  and  N1_3 
REMARK       I    between atoms: N1_3  and  C3_4 
REMARK    2  A    between atoms: C3_4  and  C4_6 
REMARK    3  A    between atoms: C9_11  and  N2_12 
REMARK       I    between atoms: N2_12  and  C10_13 
REMARK    4  A    between atoms: C10_13  and  C11_15 
REMARK    5  A    between atoms: C14_18  and  C15_19 
REMARK    6  A    between atoms: C15_19  and  N3_20 
ROOT
ATOM      1  N2  NON d   1     -40.939  20.980  -7.063  0.00  0.00    -0.322 N 
ATOM      2  C10 NON d   1     -40.502  19.852  -6.379  0.00  0.00     0.256 C 
ATOM      3  O2  NON d   1     -39.342  19.451  -6.333  0.00  0.00    -0.267 OA
ATOM      4  H12 NON d   1     -41.918  21.013  -7.315  0.00  0.00     0.169 HD
ENDROOT
BRANCH   1   5
ATOM      5  C9  NON d   1     -40.099  21.980  -7.649  0.00  0.00     0.042 A 
ATOM      6  C7  NON d   1     -39.110  22.710  -6.957  0.00  0.00    -0.035 A 
ATOM      7  C6  NON d   1     -38.289  23.607  -7.674  0.00  0.00     0.010 A 
ATOM      8  C8  NON d   1     -38.871  22.655  -5.471  0.00  0.00     0.050 C 
ATOM      9  C5  NON d   1     -38.475  23.853  -9.035  0.00  0.00     0.017 A 
ATOM     10  C4  NON d   1     -39.507  23.217  -9.718  0.00  0.00     0.034 A 
ATOM     11  C21 NON d   1     -40.315  22.287  -9.013  0.00  0.00     0.047 A 
BRANCH  10  12
ATOM     12  C3  NON d   1     -39.765  23.456 -11.181  0.00  0.00     0.251 C 
ATOM     13  N1  NON d   1     -40.507  24.573 -11.573  0.00  0.00    -0.357 N 
ATOM     14  H6  NON d   1     -41.035  25.100 -10.894  0.00  0.00     0.162 HD
ATOM     15  O1  NON d   1     -39.319  22.654 -11.997  0.00  0.00    -0.268 OA
BRANCH  13  16
ATOM     16  C2  NON d   1     -40.818  24.761 -12.985  0.00  0.00     0.118 C 
ATOM     17  C1  NON d   1     -42.126  25.505 -13.313  0.00  0.00     0.026 C 
ENDBRANCH  13  16
ENDBRANCH  10  12
ENDBRANCH   1   5
BRANCH   2  18
ATOM     18  C11 NON d   1     -41.511  19.042  -5.631  0.00  0.00     0.032 A 
ATOM     19  C12 NON d   1     -42.848  19.436  -5.764  0.00  0.00     0.017 A 
ATOM     20  C13 NON d   1     -43.858  18.797  -5.039  0.00  0.00     0.010 A 
ATOM     21  C14 NON d   1     -43.574  17.758  -4.133  0.00  0.00    -0.040 A 
ATOM     22  C19 NON d   1     -42.229  17.380  -3.991  0.00  0.00     0.010 A 
ATOM     23  C20 NON d   1     -41.204  18.006  -4.743  0.00  0.00     0.017 A 
BRANCH  21  24
ATOM     24  C15 NON d   1     -44.782  17.171  -3.422  0.00  0.00     0.167 C 
BRANCH  24  25
ATOM     25  N3  NON d   1     -45.905  16.629  -4.182  0.00  0.00    -0.346 N 
ATOM     26  C16 NON d   1     -47.053  16.139  -3.605  0.00  0.00     0.111 A 
ATOM     27  C17 NON d   1     -47.946  15.982  -4.639  0.00  0.00     0.135 A 
ATOM     28  N4  NON d   1     -47.382  16.380  -5.821  0.00  0.00    -0.255 NA
ATOM     29  C18 NON d   1     -46.177  16.805  -5.510  0.00  0.00     0.209 A 
ENDBRANCH  24  25
ENDBRANCH  21  24
ENDBRANCH   2  18
TORSDOF 6
ENDMDL
MODEL 4
REMARK VINA RESULT:   -30.002      1.859      2.668
REMARK INTER + INTRA:         -32.585
REMARK INTER:                 -31.792
REMARK INTRA:                  -0.793
REMARK CONF_INDEPENDENT:        1.790
REMARK UNBOUND:                -0.793
REMARK  6 active torsions:
REMARK  status: ('A' for Active; 'I' for Inactive)
REMARK    1  A    between atoms: C2_2  and  N1_3 
REMARK       I    between atoms: N1_3  and  C3_4 
REMARK    2  A    between atoms: C3_4  and  C4_6 
REMARK    3  A    between atoms: C9_11  and  N2_12 
REMARK       I    between atoms: N2_12  and  C10_13 
REMARK    4  A    between atoms: C10_13  and  C11_15 
REMARK    5  A    between atoms: C14_18  and  C15_19 
REMARK    6  A    between atoms: C15_19  and  N3_20 
ROOT
ATOM      1  N2  NON d   1     -40.955  20.588  -7.445  0.00  0.00    -0.322 N 
ATOM      2  C10 NON d   1     -40.571  19.867  -6.321  0.00  0.00     0.256 C 
ATOM      3  O2  NON d   1     -39.437  19.824  -5.853  0.00  0.00    -0.267 OA
ATOM      4  H12 NON d   1     -41.791  20.282  -7.924  0.00  0.00     0.169 HD
ENDROOT
BRANCH   1   5
ATOM      5  C9  NON d   1     -40.157  21.564  -8.124  0.00  0.00     0.042 A 
ATOM      6  C7  NON d   1     -39.613  22.720  -7.525  0.00  0.00    -0.035 A 
ATOM      7  C6  NON d   1     -38.770  23.558  -8.287  0.00  0.00     0.010 A 
ATOM      8  C8  NON d   1     -39.893  23.184  -6.119  0.00  0.00     0.050 C 
ATOM      9  C5  NON d   1     -38.517  23.321  -9.639  0.00  0.00     0.017 A 
ATOM     10  C4  NON d   1     -39.122  22.242 -10.276  0.00  0.00     0.034 A 
ATOM     11  C21 NON d   1     -39.942  21.374  -9.509  0.00  0.00     0.047 A 
BRANCH  10  12
ATOM     12  C3  NON d   1     -38.899  21.947 -11.734  0.00  0.00     0.251 C 
ATOM     13  N1  NON d   1     -37.614  21.627 -12.180  0.00  0.00    -0.357 N 
ATOM     14  H6  NON d   1     -36.813  21.785 -11.589  0.00  0.00     0.162 HD
ATOM     15  O1  NON d   1     -39.857  22.002 -12.501  0.00  0.00    -0.268 OA
BRANCH  13  16
ATOM     16  C2  NON d   1     -37.387  21.414 -13.605  0.00  0.00     0.118 C 
ATOM     17  C1  NON d   1     -36.529  20.198 -13.995  0.00  0.00     0.026 C 
ENDBRANCH  13  16
ENDBRANCH  10  12
ENDBRANCH   1   5
BRANCH   2  18
ATOM     18  C11 NON d   1     -41.610  19.067  -5.605  0.00  0.00     0.032 A 
ATOM     19  C12 NON d   1     -42.940  19.467  -5.787  0.00  0.00     0.017 A 
ATOM     20  C13 NON d   1     -43.978  18.838  -5.095  0.00  0.00     0.010 A 
ATOM     21  C14 NON d   1     -43.733  17.802  -4.175  0.00  0.00    -0.040 A 
ATOM     22  C19 NON d   1     -42.396  17.418  -3.983  0.00  0.00     0.010 A 
ATOM     23  C20 NON d   1     -41.342  18.034  -4.701  0.00  0.00     0.017 A 
BRANCH  21  24
ATOM     24  C15 NON d   1     -44.968  17.226  -3.504  0.00  0.00     0.167 C 
BRANCH  24  25
ATOM     25  N3  NON d   1     -46.034  16.619  -4.298  0.00  0.00    -0.346 N 
ATOM     26  C16 NON d   1     -47.173  16.070  -3.756  0.00  0.00     0.111 A 
ATOM     27  C17 NON d   1     -48.020  15.859  -4.818  0.00  0.00     0.135 A 
ATOM     28  N4  NON d   1     -47.439  16.280  -5.983  0.00  0.00    -0.255 NA
ATOM     29  C18 NON d   1     -46.270  16.772  -5.635  0.00  0.00     0.209 A 
ENDBRANCH  24  25
ENDBRANCH  21  24
ENDBRANCH   2  18
TORSDOF 6
ENDMDL
MODEL 5
REMARK VINA RESULT:   -29.982      1.599      2.267
REMARK INTER + INTRA:         -32.533
REMARK INTER:                 -31.772
REMARK INTRA:                  -0.761
REMARK CONF_INDEPENDENT:        1.790
REMARK UNBOUND:                -0.761
REMARK  6 active torsions:
REMARK  status: ('A' for Active; 'I' for Inactive)
REMARK    1  A    between atoms: C2_2  and  N1_3 
REMARK       I    between atoms: N1_3  and  C3_4 
REMARK    2  A    between atoms: C3_4  and  C4_6 
REMARK    3  A    between atoms: C9_11  and  N2_12 
REMARK       I    between atoms: N2_12  and  C10_13 
REMARK    4  A    between atoms: C10_13  and  C11_15 
REMARK    5  A    between atoms: C14_18  and  C15_19 
REMARK    6  A    between atoms: C15_19  and  N3_20 
ROOT
ATOM      1  N2  NON d   1     -40.790  20.538  -6.531  0.00  0.00    -0.322 N 
ATOM      2  C10 NON d   1     -40.491  19.468  -5.696  0.00  0.00     0.256 C 
ATOM      3  O2  NON d   1     -39.362  19.089  -5.398  0.00  0.00    -0.267 OA
ATOM      4  H12 NON d   1     -41.701  20.539  -6.969  0.00  0.00     0.169 HD
ENDROOT
BRANCH   1   5
ATOM      5  C9  NON d   1     -39.853  21.507  -7.015  0.00  0.00     0.042 A 
ATOM      6  C7  NON d   1     -39.168  22.440  -6.209  0.00  0.00    -0.035 A 
ATOM      7  C6  NON d   1     -38.203  23.284  -6.801  0.00  0.00     0.010 A 
ATOM      8  C8  NON d   1     -39.408  22.658  -4.737  0.00  0.00     0.050 C 
ATOM      9  C5  NON d   1     -37.960  23.279  -8.175  0.00  0.00     0.017 A 
ATOM     10  C4  NON d   1     -38.695  22.436  -9.003  0.00  0.00     0.034 A 
ATOM     11  C21 NON d   1     -39.641  21.559  -8.412  0.00  0.00     0.047 A 
BRANCH  10  12
ATOM     12  C3  NON d   1     -38.487  22.399 -10.493  0.00  0.00     0.251 C 
ATOM     13  N1  NON d   1     -39.578  22.606 -11.342  0.00  0.00    -0.357 N 
ATOM     14  H6  NON d   1     -40.519  22.579 -10.982  0.00  0.00     0.162 HD
ATOM     15  O1  NON d   1     -37.359  22.181 -10.927  0.00  0.00    -0.268 OA
BRANCH  13  16
ATOM     16  C2  NON d   1     -39.388  22.497 -12.784  0.00  0.00     0.118 C 
ATOM     17  C1  NON d   1     -40.246  23.421 -13.667  0.00  0.00     0.026 C 
ENDBRANCH  13  16
ENDBRANCH  10  12
ENDBRANCH   1   5
BRANCH   2  18
ATOM     18  C11 NON d   1     -41.625  18.698  -5.100  0.00  0.00     0.032 A 
ATOM     19  C12 NON d   1     -42.914  19.101  -5.469  0.00  0.00     0.017 A 
ATOM     20  C13 NON d   1     -44.042  18.501  -4.902  0.00  0.00     0.010 A 
ATOM     21  C14 NON d   1     -43.931  17.493  -3.926  0.00  0.00    -0.040 A 
ATOM     22  C19 NON d   1     -42.635  17.106  -3.547  0.00  0.00     0.010 A 
ATOM     23  C20 NON d   1     -41.489  17.692  -4.138  0.00  0.00     0.017 A 
BRANCH  21  24
ATOM     24  C15 NON d   1     -45.251  16.946  -3.407  0.00  0.00     0.167 C 
BRANCH  24  25
ATOM     25  N3  NON d   1     -46.248  16.408  -4.328  0.00  0.00    -0.346 N 
ATOM     26  C16 NON d   1     -47.493  15.970  -3.936  0.00  0.00     0.111 A 
ATOM     27  C17 NON d   1     -48.205  15.800  -5.100  0.00  0.00     0.135 A 
ATOM     28  N4  NON d   1     -47.440  16.140  -6.183  0.00  0.00    -0.255 NA
ATOM     29  C18 NON d   1     -46.290  16.544  -5.687  0.00  0.00     0.209 A 
ENDBRANCH  24  25
ENDBRANCH  21  24
ENDBRANCH   2  18
TORSDOF 6
ENDMDL
MODEL 6
REMARK VINA RESULT:   -28.872      3.214      3.805
REMARK INTER + INTRA:         -31.305
REMARK INTER:                 -30.662
REMARK INTRA:                  -0.643
REMARK CONF_INDEPENDENT:        1.790
REMARK UNBOUND:                -0.643
REMARK  6 active torsions:
REMARK  status: ('A' for Active; 'I' for Inactive)
REMARK    1  A    between atoms: C2_2  and  N1_3 
REMARK       I    between atoms: N1_3  and  C3_4 
REMARK    2  A    between atoms: C3_4  and  C4_6 
REMARK    3  A    between atoms: C9_11  and  N2_12 
REMARK       I    between atoms: N2_12  and  C10_13 
REMARK    4  A    between atoms: C10_13  and  C11_15 
REMARK    5  A    between atoms: C14_18  and  C15_19 
REMARK    6  A    between atoms: C15_19  and  N3_20 
ROOT
ATOM      1  N2  NON d   1     -40.751  20.651  -6.517  0.00  0.00    -0.322 N 
ATOM      2  C10 NON d   1     -40.458  19.777  -5.477  0.00  0.00     0.256 C 
ATOM      3  O2  NON d   1     -39.353  19.624  -4.964  0.00  0.00    -0.267 OA
ATOM      4  H12 NON d   1     -41.573  20.446  -7.070  0.00  0.00     0.169 HD
ENDROOT
BRANCH   1   5
ATOM      5  C9  NON d   1     -39.880  21.666  -7.027  0.00  0.00     0.042 A 
ATOM      6  C7  NON d   1     -39.104  21.549  -8.198  0.00  0.00    -0.035 A 
ATOM      7  C6  NON d   1     -38.351  22.660  -8.639  0.00  0.00     0.010 A 
ATOM      8  C8  NON d   1     -38.963  20.298  -9.026  0.00  0.00     0.050 C 
ATOM      9  C5  NON d   1     -38.288  23.847  -7.908  0.00  0.00     0.017 A 
ATOM     10  C4  NON d   1     -38.967  23.950  -6.698  0.00  0.00     0.034 A 
ATOM     11  C21 NON d   1     -39.755  22.852  -6.266  0.00  0.00     0.047 A 
BRANCH  10  12
ATOM     12  C3  NON d   1     -38.923  25.199  -5.861  0.00  0.00     0.251 C 
ATOM     13  N1  NON d   1     -39.905  25.409  -4.889  0.00  0.00    -0.357 N 
ATOM     14  H6  NON d   1     -40.742  24.846  -4.879  0.00  0.00     0.162 HD
ATOM     15  O1  NON d   1     -38.022  26.011  -6.058  0.00  0.00    -0.268 OA
BRANCH  13  16
ATOM     16  C2  NON d   1     -39.902  26.654  -4.130  0.00  0.00     0.118 C 
ATOM     17  C1  NON d   1     -40.073  26.535  -2.605  0.00  0.00     0.026 C 
ENDBRANCH  13  16
ENDBRANCH  10  12
ENDBRANCH   1   5
BRANCH   2  18
ATOM     18  C11 NON d   1     -41.565  18.943  -4.919  0.00  0.00     0.032 A 
ATOM     19  C12 NON d   1     -42.848  19.195  -5.420  0.00  0.00     0.017 A 
ATOM     20  C13 NON d   1     -43.962  18.528  -4.904  0.00  0.00     0.010 A 
ATOM     21  C14 NON d   1     -43.848  17.603  -3.850  0.00  0.00    -0.040 A 
ATOM     22  C19 NON d   1     -42.560  17.368  -3.339  0.00  0.00     0.010 A 
ATOM     23  C20 NON d   1     -41.424  18.021  -3.877  0.00  0.00     0.017 A 
BRANCH  21  24
ATOM     24  C15 NON d   1     -45.153  16.967  -3.401  0.00  0.00     0.167 C 
BRANCH  24  25
ATOM     25  N3  NON d   1     -46.131  16.501  -4.380  0.00  0.00    -0.346 N 
ATOM     26  C16 NON d   1     -47.249  15.768  -4.055  0.00  0.00     0.111 A 
ATOM     27  C17 NON d   1     -48.027  15.764  -5.188  0.00  0.00     0.135 A 
ATOM     28  N4  NON d   1     -47.427  16.487  -6.183  0.00  0.00    -0.255 NA
ATOM     29  C18 NON d   1     -46.317  16.954  -5.656  0.00  0.00     0.209 A 
ENDBRANCH  24  25
ENDBRANCH  21  24
ENDBRANCH   2  18
TORSDOF 6
ENDMDL
MODEL 7
REMARK VINA RESULT:   -28.303      2.178      2.281
REMARK INTER + INTRA:         -30.850
REMARK INTER:                 -30.093
REMARK INTRA:                  -0.757
REMARK CONF_INDEPENDENT:        1.790
REMARK UNBOUND:                -0.757
REMARK  6 active torsions:
REMARK  status: ('A' for Active; 'I' for Inactive)
REMARK    1  A    between atoms: C2_2  and  N1_3 
REMARK       I    between atoms: N1_3  and  C3_4 
REMARK    2  A    between atoms: C3_4  and  C4_6 
REMARK    3  A    between atoms: C9_11  and  N2_12 
REMARK       I    between atoms: N2_12  and  C10_13 
REMARK    4  A    between atoms: C10_13  and  C11_15 
REMARK    5  A    between atoms: C14_18  and  C15_19 
REMARK    6  A    between atoms: C15_19  and  N3_20 
ROOT
ATOM      1  N2  NON d   1     -39.789  19.939  -6.863  0.00  0.00    -0.322 N 
ATOM      2  C10 NON d   1     -39.777  19.073  -5.776  0.00  0.00     0.256 C 
ATOM      3  O2  NON d   1     -38.773  18.606  -5.246  0.00  0.00    -0.267 OA
ATOM      4  H12 NON d   1     -40.637  19.975  -7.412  0.00  0.00     0.169 HD
ENDROOT
BRANCH   1   5
ATOM      5  C9  NON d   1     -38.645  20.599  -7.417  0.00  0.00     0.042 A 
ATOM      6  C7  NON d   1     -37.559  19.947  -8.036  0.00  0.00    -0.035 A 
ATOM      7  C6  NON d   1     -36.533  20.721  -8.620  0.00  0.00     0.010 A 
ATOM      8  C8  NON d   1     -37.360  18.454  -8.095  0.00  0.00     0.050 C 
ATOM      9  C5  NON d   1     -36.520  22.114  -8.537  0.00  0.00     0.017 A 
ATOM     10  C4  NON d   1     -37.531  22.774  -7.846  0.00  0.00     0.034 A 
ATOM     11  C21 NON d   1     -38.585  22.005  -7.286  0.00  0.00     0.047 A 
BRANCH  10  12
ATOM     12  C3  NON d   1     -37.560  24.272  -7.709  0.00  0.00     0.251 C 
ATOM     13  N1  NON d   1     -36.900  25.060  -8.657  0.00  0.00    -0.357 N 
ATOM     14  H6  NON d   1     -36.249  24.643  -9.304  0.00  0.00     0.162 HD
ATOM     15  O1  NON d   1     -38.160  24.768  -6.759  0.00  0.00    -0.268 OA
BRANCH  13  16
ATOM     16  C2  NON d   1     -36.868  26.507  -8.482  0.00  0.00     0.118 C 
ATOM     17  C1  NON d   1     -37.053  27.362  -9.749  0.00  0.00     0.026 C 
ENDBRANCH  13  16
ENDBRANCH  10  12
ENDBRANCH   1   5
BRANCH   2  18
ATOM     18  C11 NON d   1     -41.087  18.662  -5.185  0.00  0.00     0.032 A 
ATOM     19  C12 NON d   1     -41.032  17.765  -4.111  0.00  0.00     0.017 A 
ATOM     20  C13 NON d   1     -42.202  17.254  -3.543  0.00  0.00     0.010 A 
ATOM     21  C14 NON d   1     -43.475  17.595  -4.039  0.00  0.00    -0.040 A 
ATOM     22  C19 NON d   1     -43.522  18.480  -5.129  0.00  0.00     0.010 A 
ATOM     23  C20 NON d   1     -42.340  19.022  -5.691  0.00  0.00     0.017 A 
BRANCH  21  24
ATOM     24  C15 NON d   1     -44.646  16.953  -3.315  0.00  0.00     0.167 C 
BRANCH  24  25
ATOM     25  N3  NON d   1     -45.842  16.544  -4.047  0.00  0.00    -0.346 N 
ATOM     26  C16 NON d   1     -46.998  16.111  -3.440  0.00  0.00     0.111 A 
ATOM     27  C17 NON d   1     -47.946  16.084  -4.435  0.00  0.00     0.135 A 
ATOM     28  N4  NON d   1     -47.408  16.505  -5.621  0.00  0.00    -0.255 NA
ATOM     29  C18 NON d   1     -46.160  16.817  -5.347  0.00  0.00     0.209 A 
ENDBRANCH  24  25
ENDBRANCH  21  24
ENDBRANCH   2  18
TORSDOF 6
ENDMDL
