MODEL 1
REMARK VINA RESULT:   -12.020      0.000      0.000
REMARK INTER + INTRA:         -13.351
REMARK INTER:                 -12.617
REMARK INTRA:                  -0.735
REMARK CONF_INDEPENDENT:        0.597
REMARK UNBOUND:                -0.735
REMARK  2 active torsions:
REMARK  status: ('A' for Active; 'I' for Inactive)
REMARK       I    between atoms: C1_2  and  N1_3 
REMARK    1  A    between atoms: C1_2  and  C2_5 
REMARK    2  A    between atoms: N1_3  and  O2_4 
ROOT
ATOM      1  C2  NON d   1     -48.259  16.314  -3.741  0.00  0.00     0.111 A 
ATOM      2  C3  NON d   1     -49.504  15.696  -3.597  0.00  0.00     0.135 A 
ATOM      3  F1  NON d   1     -50.066  15.006  -4.599  0.00  0.00    -0.205 F 
ATOM      4  C4  NON d   1     -50.217  15.775  -2.397  0.00  0.00     0.043 A 
ATOM      5  C5  NON d   1     -49.690  16.477  -1.315  0.00  0.00     0.006 A 
ATOM      6  C6  NON d   1     -48.450  17.098  -1.441  0.00  0.00     0.043 A 
ATOM      7  C7  NON d   1     -47.747  17.013  -2.645  0.00  0.00     0.135 A 
ATOM      8  F2  NON d   1     -46.557  17.630  -2.712  0.00  0.00    -0.205 F 
ENDROOT
BRANCH   1   9
ATOM      9  C1  NON d   1     -47.526  16.211  -5.029  0.00  0.00     0.281 C 
ATOM     10  O1  NON d   1     -47.440  17.156  -5.810  0.00  0.00    -0.265 OA
ATOM     11  N1  NON d   1     -46.936  15.007  -5.330  0.00  0.00    -0.233 N 
ATOM     12  H1  NON d   1     -46.951  14.173  -4.752  0.00  0.00     0.197 HD
BRANCH  11  13
ATOM     13  O2  NON d   1     -46.246  14.935  -6.560  0.00  0.00    -0.287 OA
ATOM     14  H2  NON d   1     -46.744  15.579  -7.111  0.00  0.00     0.244 HD
ENDBRANCH  11  13
ENDBRANCH   1   9
TORSDOF 2
ENDMDL
MODEL 2
REMARK VINA RESULT:   -12.011      0.043      2.390
REMARK INTER + INTRA:         -13.338
REMARK INTER:                 -12.607
REMARK INTRA:                  -0.731
REMARK CONF_INDEPENDENT:        0.597
REMARK UNBOUND:                -0.731
REMARK  2 active torsions:
REMARK  status: ('A' for Active; 'I' for Inactive)
REMARK       I    between atoms: C1_2  and  N1_3 
REMARK    1  A    between atoms: C1_2  and  C2_5 
REMARK    2  A    between atoms: N1_3  and  O2_4 
ROOT
ATOM      1  C2  NON d   1     -48.282  16.308  -3.769  0.00  0.00     0.111 A 
ATOM      2  C3  NON d   1     -47.756  17.011  -2.682  0.00  0.00     0.135 A 
ATOM      3  F1  NON d   1     -46.570  17.630  -2.752  0.00  0.00    -0.205 F 
ATOM      4  C4  NON d   1     -48.450  17.095  -1.471  0.00  0.00     0.043 A 
ATOM      5  C5  NON d   1     -49.689  16.474  -1.330  0.00  0.00     0.006 A 
ATOM      6  C6  NON d   1     -50.227  15.771  -2.404  0.00  0.00     0.043 A 
ATOM      7  C7  NON d   1     -49.526  15.693  -3.608  0.00  0.00     0.135 A 
ATOM      8  F2  NON d   1     -50.090  15.002  -4.611  0.00  0.00    -0.205 F 
ENDROOT
BRANCH   1   9
ATOM      9  C1  NON d   1     -47.520  16.237  -5.042  0.00  0.00     0.281 C 
ATOM     10  O1  NON d   1     -47.435  17.193  -5.810  0.00  0.00    -0.265 OA
ATOM     11  N1  NON d   1     -46.899  15.048  -5.345  0.00  0.00    -0.233 N 
ATOM     12  H1  NON d   1     -46.911  14.207  -4.778  0.00  0.00     0.197 HD
BRANCH  11  13
ATOM     13  O2  NON d   1     -46.181  15.005  -6.560  0.00  0.00    -0.287 OA
ATOM     14  H2  NON d   1     -46.693  15.629  -7.121  0.00  0.00     0.244 HD
ENDBRANCH  11  13
ENDBRANCH   1   9
TORSDOF 2
ENDMDL
MODEL 3
REMARK VINA RESULT:   -10.369      3.803      5.072
REMARK INTER + INTRA:         -11.614
REMARK INTER:                 -10.965
REMARK INTRA:                  -0.649
REMARK CONF_INDEPENDENT:        0.597
REMARK UNBOUND:                -0.649
REMARK  2 active torsions:
REMARK  status: ('A' for Active; 'I' for Inactive)
REMARK       I    between atoms: C1_2  and  N1_3 
REMARK    1  A    between atoms: C1_2  and  C2_5 
REMARK    2  A    between atoms: N1_3  and  O2_4 
ROOT
ATOM      1  C2  NON d   1     -44.672  17.828  -4.916  0.00  0.00     0.111 A 
ATOM      2  C3  NON d   1     -44.132  17.197  -3.793  0.00  0.00     0.135 A 
ATOM      3  F1  NON d   1     -44.721  16.130  -3.235  0.00  0.00    -0.205 F 
ATOM      4  C4  NON d   1     -42.951  17.656  -3.203  0.00  0.00     0.043 A 
ATOM      5  C5  NON d   1     -42.288  18.761  -3.732  0.00  0.00     0.006 A 
ATOM      6  C6  NON d   1     -42.812  19.401  -4.852  0.00  0.00     0.043 A 
ATOM      7  C7  NON d   1     -43.993  18.934  -5.433  0.00  0.00     0.135 A 
ATOM      8  F2  NON d   1     -44.454  19.588  -6.510  0.00  0.00    -0.205 F 
ENDROOT
BRANCH   1   9
ATOM      9  C1  NON d   1     -45.929  17.316  -5.520  0.00  0.00     0.281 C 
ATOM     10  O1  NON d   1     -46.630  18.005  -6.258  0.00  0.00    -0.265 OA
ATOM     11  N1  NON d   1     -46.295  16.024  -5.224  0.00  0.00    -0.233 N 
ATOM     12  H1  NON d   1     -45.785  15.380  -4.629  0.00  0.00     0.197 HD
BRANCH  11  13
ATOM     13  O2  NON d   1     -47.494  15.560  -5.810  0.00  0.00    -0.287 OA
ATOM     14  H2  NON d   1     -47.498  16.038  -6.669  0.00  0.00     0.244 HD
ENDBRANCH  11  13
ENDBRANCH   1   9
TORSDOF 2
ENDMDL
MODEL 4
REMARK VINA RESULT:   -10.363      3.826      5.180
REMARK INTER + INTRA:         -11.640
REMARK INTER:                 -10.960
REMARK INTRA:                  -0.680
REMARK CONF_INDEPENDENT:        0.597
REMARK UNBOUND:                -0.680
REMARK  2 active torsions:
REMARK  status: ('A' for Active; 'I' for Inactive)
REMARK       I    between atoms: C1_2  and  N1_3 
REMARK    1  A    between atoms: C1_2  and  C2_5 
REMARK    2  A    between atoms: N1_3  and  O2_4 
ROOT
ATOM      1  C2  NON d   1     -44.643  17.798  -4.892  0.00  0.00     0.111 A 
ATOM      2  C3  NON d   1     -43.975  18.899  -5.434  0.00  0.00     0.135 A 
ATOM      3  F1  NON d   1     -44.438  19.539  -6.517  0.00  0.00    -0.205 F 
ATOM      4  C4  NON d   1     -42.791  19.379  -4.866  0.00  0.00     0.043 A 
ATOM      5  C5  NON d   1     -42.255  18.761  -3.740  0.00  0.00     0.006 A 
ATOM      6  C6  NON d   1     -42.908  17.662  -3.187  0.00  0.00     0.043 A 
ATOM      7  C7  NON d   1     -44.089  17.191  -3.762  0.00  0.00     0.135 A 
ATOM      8  F2  NON d   1     -44.677  16.130  -3.189  0.00  0.00    -0.205 F 
ENDROOT
BRANCH   1   9
ATOM      9  C1  NON d   1     -45.899  17.313  -5.519  0.00  0.00     0.281 C 
ATOM     10  O1  NON d   1     -46.554  18.005  -6.295  0.00  0.00    -0.265 OA
ATOM     11  N1  NON d   1     -46.317  16.042  -5.201  0.00  0.00    -0.233 N 
ATOM     12  H1  NON d   1     -45.847  15.398  -4.574  0.00  0.00     0.197 HD
BRANCH  11  13
ATOM     13  O2  NON d   1     -47.514  15.603  -5.810  0.00  0.00    -0.287 OA
ATOM     14  H2  NON d   1     -47.512  16.111  -6.651  0.00  0.00     0.244 HD
ENDBRANCH  11  13
ENDBRANCH   1   9
TORSDOF 2
ENDMDL
