MODEL 1
REMARK VINA RESULT:   -14.683      0.000      0.000
REMARK INTER + INTRA:         -16.577
REMARK INTER:                 -16.174
REMARK INTRA:                  -0.403
REMARK CONF_INDEPENDENT:        1.492
REMARK UNBOUND:                -0.403
REMARK  5 active torsions:
REMARK  status: ('A' for Active; 'I' for Inactive)
REMARK    1  A    between atoms: C2_2  and  C4_4 
REMARK    2  A    between atoms: C4_4  and  C5_5 
REMARK    3  A    between atoms: C5_5  and  C6_6 
REMARK       I    between atoms: C6_6  and  N1_8 
REMARK    4  A    between atoms: N1_8  and  N2_9 
REMARK       I    between atoms: N2_9  and  C7_10 
REMARK    5  A    between atoms: C7_10  and  C8_12 
ROOT
ATOM      1  C6  NON d   1     -47.787  15.380  -4.840  0.00  0.00     0.236 C 
ATOM      2  O1  NON d   1     -47.117  15.030  -5.810  0.00  0.00    -0.272 OA
ATOM      3  N1  NON d   1     -47.246  16.117  -3.807  0.00  0.00    -0.268 N 
ATOM      4  H12 NON d   1     -47.733  16.305  -2.929  0.00  0.00     0.190 HD
ENDROOT
BRANCH   3   5
ATOM      5  N2  NON d   1     -45.859  16.305  -3.798  0.00  0.00    -0.267 N 
ATOM      6  C7  NON d   1     -45.269  16.956  -4.867  0.00  0.00     0.240 C 
ATOM      7  O2  NON d   1     -45.940  17.274  -5.856  0.00  0.00    -0.271 OA
ATOM      8  H13 NON d   1     -45.381  16.109  -2.919  0.00  0.00     0.190 HD
BRANCH   6   9
ATOM      9  C8  NON d   1     -43.755  17.270  -4.688  0.00  0.00     0.079 C 
ATOM     10  C9  NON d   1     -43.247  17.447  -3.185  0.00  0.00     0.014 C 
ATOM     11  C10 NON d   1     -42.210  18.403  -3.888  0.00  0.00     0.002 C 
ATOM     12  C11 NON d   1     -43.239  18.685  -4.968  0.00  0.00     0.014 C 
ENDBRANCH   6   9
ENDBRANCH   3   5
BRANCH   1  13
ATOM     13  C5  NON d   1     -49.243  15.005  -4.623  0.00  0.00     0.105 C 
BRANCH  13  14
ATOM     14  C4  NON d   1     -49.669  15.093  -3.153  0.00  0.00     0.013 C 
BRANCH  14  15
ATOM     15  C2  NON d   1     -50.028  16.502  -2.613  0.00  0.00    -0.022 C 
ATOM     16  C1  NON d   1     -49.265  16.745  -1.306  0.00  0.00     0.009 C 
ATOM     17  C3  NON d   1     -51.541  16.727  -2.435  0.00  0.00     0.009 C 
ENDBRANCH  14  15
ENDBRANCH  13  14
ENDBRANCH   1  13
TORSDOF 5
ENDMDL
MODEL 2
REMARK VINA RESULT:   -14.045      0.899      6.411
REMARK INTER + INTRA:         -15.955
REMARK INTER:                 -15.537
REMARK INTRA:                  -0.418
REMARK CONF_INDEPENDENT:        1.492
REMARK UNBOUND:                -0.418
REMARK  5 active torsions:
REMARK  status: ('A' for Active; 'I' for Inactive)
REMARK    1  A    between atoms: C2_2  and  C4_4 
REMARK    2  A    between atoms: C4_4  and  C5_5 
REMARK    3  A    between atoms: C5_5  and  C6_6 
REMARK       I    between atoms: C6_6  and  N1_8 
REMARK    4  A    between atoms: N1_8  and  N2_9 
REMARK       I    between atoms: N2_9  and  C7_10 
REMARK    5  A    between atoms: C7_10  and  C8_12 
ROOT
ATOM      1  C6  NON d   1     -45.191  17.227  -5.064  0.00  0.00     0.236 C 
ATOM      2  O1  NON d   1     -45.969  17.616  -5.934  0.00  0.00    -0.272 OA
ATOM      3  N1  NON d   1     -45.620  16.504  -3.970  0.00  0.00    -0.268 N 
ATOM      4  H12 NON d   1     -45.029  16.286  -3.167  0.00  0.00     0.190 HD
ENDROOT
BRANCH   3   5
ATOM      5  N2  NON d   1     -47.001  16.377  -3.776  0.00  0.00    -0.267 N 
ATOM      6  C7  NON d   1     -47.754  15.738  -4.745  0.00  0.00     0.240 C 
ATOM      7  O2  NON d   1     -47.234  15.379  -5.809  0.00  0.00    -0.271 OA
ATOM      8  H13 NON d   1     -47.350  16.604  -2.845  0.00  0.00     0.190 HD
BRANCH   6   9
ATOM      9  C8  NON d   1     -49.243  15.493  -4.363  0.00  0.00     0.079 C 
ATOM     10  C9  NON d   1     -49.818  16.385  -3.171  0.00  0.00     0.014 C 
ATOM     11  C10 NON d   1     -50.727  15.115  -2.961  0.00  0.00     0.002 C 
ATOM     12  C11 NON d   1     -49.617  14.256  -3.541  0.00  0.00     0.014 C 
ENDBRANCH   6   9
ENDBRANCH   3   5
BRANCH   1  13
ATOM     13  C5  NON d   1     -43.704  17.536  -5.043  0.00  0.00     0.105 C 
BRANCH  13  14
ATOM     14  C4  NON d   1     -43.135  17.636  -3.623  0.00  0.00     0.013 C 
BRANCH  14  15
ATOM     15  C2  NON d   1     -41.744  18.306  -3.474  0.00  0.00    -0.022 C 
ATOM     16  C1  NON d   1     -41.065  18.359  -4.847  0.00  0.00     0.009 C 
ATOM     17  C3  NON d   1     -40.844  17.629  -2.424  0.00  0.00     0.009 C 
ENDBRANCH  14  15
ENDBRANCH  13  14
ENDBRANCH   1  13
TORSDOF 5
ENDMDL
MODEL 3
REMARK VINA RESULT:   -13.052      1.158      6.541
REMARK INTER + INTRA:         -14.511
REMARK INTER:                 -14.543
REMARK INTRA:                   0.032
REMARK CONF_INDEPENDENT:        1.492
REMARK UNBOUND:                 0.032
REMARK  5 active torsions:
REMARK  status: ('A' for Active; 'I' for Inactive)
REMARK    1  A    between atoms: C2_2  and  C4_4 
REMARK    2  A    between atoms: C4_4  and  C5_5 
REMARK    3  A    between atoms: C5_5  and  C6_6 
REMARK       I    between atoms: C6_6  and  N1_8 
REMARK    4  A    between atoms: N1_8  and  N2_9 
REMARK       I    between atoms: N2_9  and  C7_10 
REMARK    5  A    between atoms: C7_10  and  C8_12 
ROOT
ATOM      1  C6  NON d   1     -45.207  17.704  -5.062  0.00  0.00     0.236 C 
ATOM      2  O1  NON d   1     -46.162  17.675  -5.837  0.00  0.00    -0.272 OA
ATOM      3  N1  NON d   1     -45.231  17.049  -3.848  0.00  0.00    -0.268 N 
ATOM      4  H12 NON d   1     -44.518  17.164  -3.128  0.00  0.00     0.190 HD
ENDROOT
BRANCH   3   5
ATOM      5  N2  NON d   1     -46.448  16.493  -3.433  0.00  0.00    -0.267 N 
ATOM      6  C7  NON d   1     -47.134  15.667  -4.305  0.00  0.00     0.240 C 
ATOM      7  O2  NON d   1     -46.733  15.505  -5.464  0.00  0.00    -0.271 OA
ATOM      8  H13 NON d   1     -46.672  16.585  -2.442  0.00  0.00     0.190 HD
BRANCH   6   9
ATOM      9  C8  NON d   1     -48.381  14.962  -3.695  0.00  0.00     0.079 C 
ATOM     10  C9  NON d   1     -49.571  14.638  -4.708  0.00  0.00     0.014 C 
ATOM     11  C10 NON d   1     -50.431  14.816  -3.399  0.00  0.00     0.002 C 
ATOM     12  C11 NON d   1     -49.382  15.778  -2.871  0.00  0.00     0.014 C 
ENDBRANCH   6   9
ENDBRANCH   3   5
BRANCH   1  13
ATOM     13  C5  NON d   1     -43.934  18.497  -5.300  0.00  0.00     0.105 C 
BRANCH  13  14
ATOM     14  C4  NON d   1     -42.718  17.905  -4.577  0.00  0.00     0.013 C 
BRANCH  14  15
ATOM     15  C2  NON d   1     -41.436  18.777  -4.538  0.00  0.00    -0.022 C 
ATOM     16  C1  NON d   1     -41.830  20.252  -4.674  0.00  0.00     0.009 C 
ATOM     17  C3  NON d   1     -40.384  18.373  -5.588  0.00  0.00     0.009 C 
ENDBRANCH  14  15
ENDBRANCH  13  14
ENDBRANCH   1  13
TORSDOF 5
ENDMDL
