MODEL 1
REMARK VINA RESULT:   -14.345      0.000      0.000
REMARK INTER + INTRA:         -19.132
REMARK INTER:                 -17.627
REMARK INTRA:                  -1.506
REMARK CONF_INDEPENDENT:        3.281
REMARK UNBOUND:                -1.506
REMARK  11 active torsions:
REMARK  status: ('A' for Active; 'I' for Inactive)
REMARK    1  A    between atoms: C2_2  and  C3_3 
REMARK    2  A    between atoms: C3_3  and  C4_4 
REMARK    3  A    between atoms: C4_4  and  C5_5 
REMARK    4  A    between atoms: C5_5  and  C6_6 
REMARK       I    between atoms: C6_6  and  N1_8 
REMARK    5  A    between atoms: N1_8  and  C7_9 
REMARK    6  A    between atoms: C11_13  and  N2_14 
REMARK    7  A    between atoms: N2_14  and  C12_15 
REMARK    8  A    between atoms: C12_15  and  C13_16 
REMARK       I    between atoms: C13_16  and  N3_18 
REMARK    9  A    between atoms: N3_18  and  C14_19 
REMARK   10  A    between atoms: C18_24  and  C19_25 
REMARK       I    between atoms: C19_25  and  N4_27 
REMARK   11  A    between atoms: N4_27  and  C20_28 
ROOT
ATOM      1  C13 NON d   1     -40.739  21.537  -3.968  0.00  0.00     0.239 C 
ATOM      2  O2  NON d   1     -41.409  22.480  -3.555  0.00  0.00    -0.271 OA
ATOM      3  N3  NON d   1     -39.939  20.757  -3.114  0.00  0.00    -0.326 N 
ATOM      4  H19 NON d   1     -39.918  19.756  -3.273  0.00  0.00     0.169 HD
ENDROOT
BRANCH   1   5
ATOM      5  C12 NON d   1     -40.696  21.120  -5.466  0.00  0.00     0.223 C 
BRANCH   5   6
ATOM      6  N2  NON d   1     -41.463  19.895  -5.851  0.00  0.00    -0.381 N 
ATOM      7  H16 NON d   1     -41.973  20.003  -6.723  0.00  0.00     0.160 HD
BRANCH   6   8
ATOM      8  C11 NON d   1     -42.095  19.020  -4.959  0.00  0.00     0.030 A 
ATOM      9  C10 NON d   1     -41.374  18.228  -4.068  0.00  0.00     0.029 A 
ATOM     10  C9  NON d   1     -41.975  17.198  -3.352  0.00  0.00     0.004 A 
ATOM     11  C8  NON d   1     -43.342  16.965  -3.465  0.00  0.00     0.029 A 
ATOM     12  C7  NON d   1     -44.146  17.765  -4.274  0.00  0.00     0.036 A 
ATOM     13  C27 NON d   1     -43.501  18.772  -5.043  0.00  0.00     0.058 A 
BRANCH  12  14
ATOM     14  N1  NON d   1     -45.566  17.561  -4.355  0.00  0.00    -0.327 N 
ATOM     15  C6  NON d   1     -46.212  16.611  -5.162  0.00  0.00     0.222 C 
ATOM     16  O1  NON d   1     -45.648  15.755  -5.848  0.00  0.00    -0.273 OA
ATOM     17  H12 NON d   1     -46.139  18.114  -3.729  0.00  0.00     0.169 HD
BRANCH  15  18
ATOM     18  C5  NON d   1     -47.745  16.651  -5.124  0.00  0.00     0.103 C 
BRANCH  18  19
ATOM     19  C4  NON d   1     -48.399  15.377  -4.499  0.00  0.00     0.009 C 
BRANCH  19  20
ATOM     20  C3  NON d   1     -49.597  15.682  -3.576  0.00  0.00     0.000 C 
BRANCH  20  21
ATOM     21  C2  NON d   1     -49.299  16.508  -2.291  0.00  0.00    -0.005 C 
ATOM     22  C1  NON d   1     -47.815  16.731  -1.946  0.00  0.00     0.005 C 
ENDBRANCH  20  21
ENDBRANCH  19  20
ENDBRANCH  18  19
ENDBRANCH  15  18
ENDBRANCH  12  14
ENDBRANCH   6   8
ENDBRANCH   5   6
ENDBRANCH   1   5
BRANCH   3  23
ATOM     23  C14 NON d   1     -39.398  21.244  -1.890  0.00  0.00     0.035 A 
ATOM     24  C15 NON d   1     -38.226  20.692  -1.374  0.00  0.00     0.031 A 
ATOM     25  C16 NON d   1     -37.719  21.102  -0.141  0.00  0.00     0.027 A 
ATOM     26  C17 NON d   1     -38.350  22.109   0.594  0.00  0.00     0.049 A 
ATOM     27 Cl1  NON d   1     -37.549  22.548   2.065  0.00  0.00    -0.083 Cl
ATOM     28  C18 NON d   1     -39.526  22.703   0.106  0.00  0.00     0.055 A 
ATOM     29  C26 NON d   1     -40.057  22.232  -1.133  0.00  0.00     0.048 A 
BRANCH  28  30
ATOM     30  C19 NON d   1     -40.218  23.880   0.756  0.00  0.00     0.253 C 
ATOM     31  O3  NON d   1     -40.444  24.875   0.075  0.00  0.00    -0.268 OA
ATOM     32  N4  NON d   1     -40.558  23.790   2.095  0.00  0.00    -0.352 N 
ATOM     33  H22 NON d   1     -40.210  22.972   2.582  0.00  0.00     0.163 HD
BRANCH  32  34
ATOM     34  C20 NON d   1     -40.863  24.937   2.968  0.00  0.00     0.084 C 
ATOM     35  C21 NON d   1     -41.627  24.443   4.212  0.00  0.00     0.025 C 
ATOM     36  C22 NON d   1     -41.908  25.572   5.198  0.00  0.00     0.002 C 
ATOM     37  C23 NON d   1     -42.683  26.711   4.549  0.00  0.00     0.000 C 
ATOM     38  C24 NON d   1     -42.059  27.180   3.238  0.00  0.00     0.002 C 
ATOM     39  C25 NON d   1     -41.677  26.043   2.282  0.00  0.00     0.025 C 
ENDBRANCH  32  34
ENDBRANCH  28  30
ENDBRANCH   3  23
TORSDOF 11
ENDMDL
MODEL 2
REMARK VINA RESULT:   -14.132      5.652      8.916
REMARK INTER + INTRA:         -18.727
REMARK INTER:                 -17.413
REMARK INTRA:                  -1.314
REMARK CONF_INDEPENDENT:        3.281
REMARK UNBOUND:                -1.314
REMARK  11 active torsions:
REMARK  status: ('A' for Active; 'I' for Inactive)
REMARK    1  A    between atoms: C2_2  and  C3_3 
REMARK    2  A    between atoms: C3_3  and  C4_4 
REMARK    3  A    between atoms: C4_4  and  C5_5 
REMARK    4  A    between atoms: C5_5  and  C6_6 
REMARK       I    between atoms: C6_6  and  N1_8 
REMARK    5  A    between atoms: N1_8  and  C7_9 
REMARK    6  A    between atoms: C11_13  and  N2_14 
REMARK    7  A    between atoms: N2_14  and  C12_15 
REMARK    8  A    between atoms: C12_15  and  C13_16 
REMARK       I    between atoms: C13_16  and  N3_18 
REMARK    9  A    between atoms: N3_18  and  C14_19 
REMARK   10  A    between atoms: C18_24  and  C19_25 
REMARK       I    between atoms: C19_25  and  N4_27 
REMARK   11  A    between atoms: N4_27  and  C20_28 
ROOT
ATOM      1  C13 NON d   1     -46.062  16.969  -5.418  0.00  0.00     0.239 C 
ATOM      2  O2  NON d   1     -45.940  17.921  -6.186  0.00  0.00    -0.271 OA
ATOM      3  N3  NON d   1     -45.286  16.846  -4.251  0.00  0.00    -0.326 N 
ATOM      4  H19 NON d   1     -45.745  16.504  -3.415  0.00  0.00     0.169 HD
ENDROOT
BRANCH   1   5
ATOM      5  C12 NON d   1     -47.064  15.806  -5.662  0.00  0.00     0.223 C 
BRANCH   5   6
ATOM      6  N2  NON d   1     -47.689  15.184  -4.453  0.00  0.00    -0.381 N 
ATOM      7  H16 NON d   1     -48.051  14.251  -4.628  0.00  0.00     0.160 HD
BRANCH   6   8
ATOM      8  C11 NON d   1     -48.413  15.870  -3.470  0.00  0.00     0.030 A 
ATOM      9  C10 NON d   1     -47.798  16.407  -2.341  0.00  0.00     0.029 A 
ATOM     10  C9  NON d   1     -48.535  16.878  -1.260  0.00  0.00     0.004 A 
ATOM     11  C8  NON d   1     -49.925  16.880  -1.302  0.00  0.00     0.029 A 
ATOM     12  C7  NON d   1     -50.614  16.434  -2.428  0.00  0.00     0.036 A 
ATOM     13  C27 NON d   1     -49.842  15.899  -3.495  0.00  0.00     0.058 A 
BRANCH  12  14
ATOM     14  N1  NON d   1     -52.049  16.480  -2.495  0.00  0.00    -0.327 N 
ATOM     15  C6  NON d   1     -52.877  17.336  -1.751  0.00  0.00     0.222 C 
ATOM     16  O1  NON d   1     -52.485  18.234  -1.001  0.00  0.00    -0.273 OA
ATOM     17  H12 NON d   1     -52.488  15.881  -3.183  0.00  0.00     0.169 HD
BRANCH  15  18
ATOM     18  C5  NON d   1     -54.383  17.128  -1.951  0.00  0.00     0.103 C 
BRANCH  18  19
ATOM     19  C4  NON d   1     -55.251  18.374  -1.580  0.00  0.00     0.009 C 
BRANCH  19  20
ATOM     20  C3  NON d   1     -54.896  18.994  -0.212  0.00  0.00     0.000 C 
BRANCH  20  21
ATOM     21  C2  NON d   1     -54.633  20.528  -0.184  0.00  0.00    -0.005 C 
ATOM     22  C1  NON d   1     -53.277  20.982   0.386  0.00  0.00     0.005 C 
ENDBRANCH  20  21
ENDBRANCH  19  20
ENDBRANCH  18  19
ENDBRANCH  15  18
ENDBRANCH  12  14
ENDBRANCH   6   8
ENDBRANCH   5   6
ENDBRANCH   1   5
BRANCH   3  23
ATOM     23  C14 NON d   1     -43.997  17.435  -4.104  0.00  0.00     0.035 A 
ATOM     24  C15 NON d   1     -43.335  17.372  -2.878  0.00  0.00     0.031 A 
ATOM     25  C16 NON d   1     -42.107  18.005  -2.691  0.00  0.00     0.027 A 
ATOM     26  C17 NON d   1     -41.484  18.687  -3.740  0.00  0.00     0.049 A 
ATOM     27 Cl1  NON d   1     -39.931  19.351  -3.358  0.00  0.00    -0.083 Cl
ATOM     28  C18 NON d   1     -42.109  18.765  -4.996  0.00  0.00     0.055 A 
ATOM     29  C26 NON d   1     -43.391  18.155  -5.151  0.00  0.00     0.048 A 
BRANCH  28  30
ATOM     30  C19 NON d   1     -41.473  19.369  -6.228  0.00  0.00     0.253 C 
ATOM     31  O3  NON d   1     -42.182  20.012  -6.996  0.00  0.00    -0.268 OA
ATOM     32  N4  NON d   1     -40.122  19.161  -6.444  0.00  0.00    -0.352 N 
ATOM     33  H22 NON d   1     -39.671  18.511  -5.809  0.00  0.00     0.163 HD
BRANCH  32  34
ATOM     34  C20 NON d   1     -39.438  19.324  -7.739  0.00  0.00     0.084 C 
ATOM     35  C21 NON d   1     -37.983  18.834  -7.614  0.00  0.00     0.025 C 
ATOM     36  C22 NON d   1     -37.238  18.903  -8.942  0.00  0.00     0.002 C 
ATOM     37  C23 NON d   1     -37.248  20.311  -9.524  0.00  0.00     0.000 C 
ATOM     38  C24 NON d   1     -38.645  20.923  -9.569  0.00  0.00     0.002 C 
ATOM     39  C25 NON d   1     -39.441  20.764  -8.268  0.00  0.00     0.025 C 
ENDBRANCH  32  34
ENDBRANCH  28  30
ENDBRANCH   3  23
TORSDOF 11
ENDMDL
MODEL 3
REMARK VINA RESULT:   -13.830      6.527     10.384
REMARK INTER + INTRA:         -18.113
REMARK INTER:                 -17.111
REMARK INTRA:                  -1.002
REMARK CONF_INDEPENDENT:        3.281
REMARK UNBOUND:                -1.002
REMARK  11 active torsions:
REMARK  status: ('A' for Active; 'I' for Inactive)
REMARK    1  A    between atoms: C2_2  and  C3_3 
REMARK    2  A    between atoms: C3_3  and  C4_4 
REMARK    3  A    between atoms: C4_4  and  C5_5 
REMARK    4  A    between atoms: C5_5  and  C6_6 
REMARK       I    between atoms: C6_6  and  N1_8 
REMARK    5  A    between atoms: N1_8  and  C7_9 
REMARK    6  A    between atoms: C11_13  and  N2_14 
REMARK    7  A    between atoms: N2_14  and  C12_15 
REMARK    8  A    between atoms: C12_15  and  C13_16 
REMARK       I    between atoms: C13_16  and  N3_18 
REMARK    9  A    between atoms: N3_18  and  C14_19 
REMARK   10  A    between atoms: C18_24  and  C19_25 
REMARK       I    between atoms: C19_25  and  N4_27 
REMARK   11  A    between atoms: N4_27  and  C20_28 
ROOT
ATOM      1  C13 NON d   1     -40.514  20.630  -8.321  0.00  0.00     0.239 C 
ATOM      2  O2  NON d   1     -41.230  20.125  -9.183  0.00  0.00    -0.271 OA
ATOM      3  N3  NON d   1     -39.451  21.492  -8.644  0.00  0.00    -0.326 N 
ATOM      4  H19 NON d   1     -39.305  22.301  -8.052  0.00  0.00     0.169 HD
ENDROOT
BRANCH   1   5
ATOM      5  C12 NON d   1     -40.698  20.360  -6.802  0.00  0.00     0.223 C 
BRANCH   5   6
ATOM      6  N2  NON d   1     -42.001  19.761  -6.372  0.00  0.00    -0.381 N 
ATOM      7  H16 NON d   1     -42.799  20.356  -6.578  0.00  0.00     0.160 HD
BRANCH   6   8
ATOM      8  C11 NON d   1     -42.194  18.972  -5.232  0.00  0.00     0.030 A 
ATOM      9  C10 NON d   1     -41.133  18.588  -4.413  0.00  0.00     0.029 A 
ATOM     10  C9  NON d   1     -41.285  17.622  -3.424  0.00  0.00     0.004 A 
ATOM     11  C8  NON d   1     -42.529  17.047  -3.185  0.00  0.00     0.029 A 
ATOM     12  C7  NON d   1     -43.655  17.436  -3.907  0.00  0.00     0.036 A 
ATOM     13  C27 NON d   1     -43.465  18.379  -4.954  0.00  0.00     0.058 A 
BRANCH  12  14
ATOM     14  N1  NON d   1     -44.951  16.881  -3.629  0.00  0.00    -0.327 N 
ATOM     15  C6  NON d   1     -45.904  16.504  -4.589  0.00  0.00     0.222 C 
ATOM     16  O1  NON d   1     -45.728  16.510  -5.810  0.00  0.00    -0.273 OA
ATOM     17  H12 NON d   1     -45.164  16.696  -2.657  0.00  0.00     0.169 HD
BRANCH  15  18
ATOM     18  C5  NON d   1     -47.243  16.012  -4.026  0.00  0.00     0.103 C 
BRANCH  18  19
ATOM     19  C4  NON d   1     -47.865  16.958  -2.948  0.00  0.00     0.009 C 
BRANCH  19  20
ATOM     20  C3  NON d   1     -48.948  16.284  -2.080  0.00  0.00     0.000 C 
BRANCH  20  21
ATOM     21  C2  NON d   1     -50.171  15.680  -2.829  0.00  0.00    -0.005 C 
ATOM     22  C1  NON d   1     -49.863  14.627  -3.910  0.00  0.00     0.005 C 
ENDBRANCH  20  21
ENDBRANCH  19  20
ENDBRANCH  18  19
ENDBRANCH  15  18
ENDBRANCH  12  14
ENDBRANCH   6   8
ENDBRANCH   5   6
ENDBRANCH   1   5
BRANCH   3  23
ATOM     23  C14 NON d   1     -38.765  21.454  -9.892  0.00  0.00     0.035 A 
ATOM     24  C15 NON d   1     -37.641  20.642 -10.047  0.00  0.00     0.031 A 
ATOM     25  C16 NON d   1     -36.911  20.645 -11.235  0.00  0.00     0.027 A 
ATOM     26  C17 NON d   1     -37.309  21.430 -12.321  0.00  0.00     0.049 A 
ATOM     27 Cl1  NON d   1     -36.335  21.259 -13.741  0.00  0.00    -0.083 Cl
ATOM     28  C18 NON d   1     -38.443  22.253 -12.212  0.00  0.00     0.055 A 
ATOM     29  C26 NON d   1     -39.146  22.276 -10.970  0.00  0.00     0.048 A 
BRANCH  28  30
ATOM     30  C19 NON d   1     -39.032  23.046 -13.358  0.00  0.00     0.253 C 
ATOM     31  O3  NON d   1     -38.416  23.084 -14.419  0.00  0.00    -0.268 OA
ATOM     32  N4  NON d   1     -40.232  23.704 -13.158  0.00  0.00    -0.352 N 
ATOM     33  H22 NON d   1     -40.581  23.702 -12.207  0.00  0.00     0.163 HD
BRANCH  32  34
ATOM     34  C20 NON d   1     -40.739  24.809 -13.992  0.00  0.00     0.084 C 
ATOM     35  C21 NON d   1     -41.937  25.474 -13.286  0.00  0.00     0.025 C 
ATOM     36  C22 NON d   1     -42.463  26.677 -14.061  0.00  0.00     0.002 C 
ATOM     37  C23 NON d   1     -42.859  26.305 -15.484  0.00  0.00     0.000 C 
ATOM     38  C24 NON d   1     -41.769  25.530 -16.218  0.00  0.00     0.002 C 
ATOM     39  C25 NON d   1     -41.160  24.381 -15.405  0.00  0.00     0.025 C 
ENDBRANCH  32  34
ENDBRANCH  28  30
ENDBRANCH   3  23
TORSDOF 11
ENDMDL
MODEL 4
REMARK VINA RESULT:   -13.606      2.144      2.834
REMARK INTER + INTRA:         -18.429
REMARK INTER:                 -16.887
REMARK INTRA:                  -1.542
REMARK CONF_INDEPENDENT:        3.281
REMARK UNBOUND:                -1.542
REMARK  11 active torsions:
REMARK  status: ('A' for Active; 'I' for Inactive)
REMARK    1  A    between atoms: C2_2  and  C3_3 
REMARK    2  A    between atoms: C3_3  and  C4_4 
REMARK    3  A    between atoms: C4_4  and  C5_5 
REMARK    4  A    between atoms: C5_5  and  C6_6 
REMARK       I    between atoms: C6_6  and  N1_8 
REMARK    5  A    between atoms: N1_8  and  C7_9 
REMARK    6  A    between atoms: C11_13  and  N2_14 
REMARK    7  A    between atoms: N2_14  and  C12_15 
REMARK    8  A    between atoms: C12_15  and  C13_16 
REMARK       I    between atoms: C13_16  and  N3_18 
REMARK    9  A    between atoms: N3_18  and  C14_19 
REMARK   10  A    between atoms: C18_24  and  C19_25 
REMARK       I    between atoms: C19_25  and  N4_27 
REMARK   11  A    between atoms: N4_27  and  C20_28 
ROOT
ATOM      1  C13 NON d   1     -40.065  19.357  -2.201  0.00  0.00     0.239 C 
ATOM      2  O2  NON d   1     -40.650  19.847  -1.237  0.00  0.00    -0.271 OA
ATOM      3  N3  NON d   1     -39.391  20.149  -3.148  0.00  0.00    -0.326 N 
ATOM      4  H19 NON d   1     -38.504  19.809  -3.499  0.00  0.00     0.169 HD
ENDROOT
BRANCH   1   5
ATOM      5  C12 NON d   1     -40.023  17.828  -2.478  0.00  0.00     0.223 C 
BRANCH   5   6
ATOM      6  N2  NON d   1     -41.326  17.158  -2.785  0.00  0.00    -0.381 N 
ATOM      7  H16 NON d   1     -41.276  16.145  -2.722  0.00  0.00     0.160 HD
BRANCH   6   8
ATOM      8  C11 NON d   1     -42.261  17.597  -3.730  0.00  0.00     0.030 A 
ATOM      9  C10 NON d   1     -41.957  18.589  -4.661  0.00  0.00     0.029 A 
ATOM     10  C9  NON d   1     -42.942  19.188  -5.440  0.00  0.00     0.004 A 
ATOM     11  C8  NON d   1     -44.265  18.766  -5.350  0.00  0.00     0.029 A 
ATOM     12  C7  NON d   1     -44.635  17.724  -4.503  0.00  0.00     0.036 A 
ATOM     13  C27 NON d   1     -43.624  17.170  -3.671  0.00  0.00     0.058 A 
BRANCH  12  14
ATOM     14  N1  NON d   1     -45.991  17.252  -4.444  0.00  0.00    -0.327 N 
ATOM     15  C6  NON d   1     -46.554  16.275  -5.281  0.00  0.00     0.222 C 
ATOM     16  O1  NON d   1     -45.940  15.617  -6.124  0.00  0.00    -0.273 OA
ATOM     17  H12 NON d   1     -46.565  17.619  -3.696  0.00  0.00     0.169 HD
BRANCH  15  18
ATOM     18  C5  NON d   1     -48.049  16.008  -5.063  0.00  0.00     0.103 C 
BRANCH  18  19
ATOM     19  C4  NON d   1     -48.354  15.016  -3.894  0.00  0.00     0.009 C 
BRANCH  19  20
ATOM     20  C3  NON d   1     -49.791  15.126  -3.344  0.00  0.00     0.000 C 
BRANCH  20  21
ATOM     21  C2  NON d   1     -50.079  16.298  -2.362  0.00  0.00    -0.005 C 
ATOM     22  C1  NON d   1     -48.966  16.638  -1.354  0.00  0.00     0.005 C 
ENDBRANCH  20  21
ENDBRANCH  19  20
ENDBRANCH  18  19
ENDBRANCH  15  18
ENDBRANCH  12  14
ENDBRANCH   6   8
ENDBRANCH   5   6
ENDBRANCH   1   5
BRANCH   3  23
ATOM     23  C14 NON d   1     -39.734  21.505  -3.418  0.00  0.00     0.035 A 
ATOM     24  C15 NON d   1     -39.711  21.984  -4.728  0.00  0.00     0.031 A 
ATOM     25  C16 NON d   1     -39.971  23.326  -5.007  0.00  0.00     0.027 A 
ATOM     26  C17 NON d   1     -40.302  24.220  -3.986  0.00  0.00     0.049 A 
ATOM     27 Cl1  NON d   1     -40.666  25.828  -4.515  0.00  0.00    -0.083 Cl
ATOM     28  C18 NON d   1     -40.350  23.777  -2.654  0.00  0.00     0.055 A 
ATOM     29  C26 NON d   1     -40.029  22.412  -2.383  0.00  0.00     0.048 A 
BRANCH  28  30
ATOM     30  C19 NON d   1     -40.814  24.626  -1.491  0.00  0.00     0.253 C 
ATOM     31  O3  NON d   1     -41.438  25.655  -1.731  0.00  0.00    -0.268 OA
ATOM     32  N4  NON d   1     -40.507  24.212  -0.206  0.00  0.00    -0.352 N 
ATOM     33  H22 NON d   1     -39.883  23.416  -0.139  0.00  0.00     0.163 HD
BRANCH  32  34
ATOM     34  C20 NON d   1     -40.525  25.078   0.987  0.00  0.00     0.084 C 
ATOM     35  C21 NON d   1     -40.407  24.205   2.252  0.00  0.00     0.025 C 
ATOM     36  C22 NON d   1     -40.341  25.045   3.523  0.00  0.00     0.002 C 
ATOM     37  C23 NON d   1     -41.547  25.966   3.655  0.00  0.00     0.000 C 
ATOM     38  C24 NON d   1     -41.811  26.781   2.393  0.00  0.00     0.002 C 
ATOM     39  C25 NON d   1     -41.775  25.961   1.098  0.00  0.00     0.025 C 
ENDBRANCH  32  34
ENDBRANCH  28  30
ENDBRANCH   3  23
TORSDOF 11
ENDMDL
MODEL 5
REMARK VINA RESULT:   -13.581      5.211      8.232
REMARK INTER + INTRA:         -18.648
REMARK INTER:                 -16.863
REMARK INTRA:                  -1.785
REMARK CONF_INDEPENDENT:        3.281
REMARK UNBOUND:                -1.785
REMARK  11 active torsions:
REMARK  status: ('A' for Active; 'I' for Inactive)
REMARK    1  A    between atoms: C2_2  and  C3_3 
REMARK    2  A    between atoms: C3_3  and  C4_4 
REMARK    3  A    between atoms: C4_4  and  C5_5 
REMARK    4  A    between atoms: C5_5  and  C6_6 
REMARK       I    between atoms: C6_6  and  N1_8 
REMARK    5  A    between atoms: N1_8  and  C7_9 
REMARK    6  A    between atoms: C11_13  and  N2_14 
REMARK    7  A    between atoms: N2_14  and  C12_15 
REMARK    8  A    between atoms: C12_15  and  C13_16 
REMARK       I    between atoms: C13_16  and  N3_18 
REMARK    9  A    between atoms: N3_18  and  C14_19 
REMARK   10  A    between atoms: C18_24  and  C19_25 
REMARK       I    between atoms: C19_25  and  N4_27 
REMARK   11  A    between atoms: N4_27  and  C20_28 
ROOT
ATOM      1  C13 NON d   1     -38.979  19.414  -3.374  0.00  0.00     0.239 C 
ATOM      2  O2  NON d   1     -38.528  20.557  -3.407  0.00  0.00    -0.271 OA
ATOM      3  N3  NON d   1     -38.613  18.439  -4.319  0.00  0.00    -0.326 N 
ATOM      4  H19 NON d   1     -38.463  17.494  -3.986  0.00  0.00     0.169 HD
ENDROOT
BRANCH   1   5
ATOM      5  C12 NON d   1     -40.000  18.937  -2.304  0.00  0.00     0.223 C 
BRANCH   5   6
ATOM      6  N2  NON d   1     -40.899  17.802  -2.682  0.00  0.00    -0.381 N 
ATOM      7  H16 NON d   1     -40.409  16.915  -2.755  0.00  0.00     0.160 HD
BRANCH   6   8
ATOM      8  C11 NON d   1     -41.994  17.889  -3.550  0.00  0.00     0.030 A 
ATOM      9  C10 NON d   1     -41.970  18.693  -4.689  0.00  0.00     0.029 A 
ATOM     10  C9  NON d   1     -43.123  18.963  -5.418  0.00  0.00     0.004 A 
ATOM     11  C8  NON d   1     -44.336  18.384  -5.060  0.00  0.00     0.029 A 
ATOM     12  C7  NON d   1     -44.426  17.505  -3.982  0.00  0.00     0.036 A 
ATOM     13  C27 NON d   1     -43.249  17.293  -3.214  0.00  0.00     0.058 A 
BRANCH  12  14
ATOM     14  N1  NON d   1     -45.666  16.866  -3.639  0.00  0.00    -0.327 N 
ATOM     15  C6  NON d   1     -46.657  16.460  -4.548  0.00  0.00     0.222 C 
ATOM     16  O1  NON d   1     -46.563  16.511  -5.776  0.00  0.00    -0.273 OA
ATOM     17  H12 NON d   1     -45.803  16.641  -2.662  0.00  0.00     0.169 HD
BRANCH  15  18
ATOM     18  C5  NON d   1     -47.925  15.873  -3.916  0.00  0.00     0.103 C 
BRANCH  18  19
ATOM     19  C4  NON d   1     -48.436  16.660  -2.666  0.00  0.00     0.009 C 
BRANCH  19  20
ATOM     20  C3  NON d   1     -49.767  16.128  -2.096  0.00  0.00     0.000 C 
BRANCH  20  21
ATOM     21  C2  NON d   1     -51.071  16.594  -2.807  0.00  0.00    -0.005 C 
ATOM     22  C1  NON d   1     -52.137  17.259  -1.917  0.00  0.00     0.005 C 
ENDBRANCH  20  21
ENDBRANCH  19  20
ENDBRANCH  18  19
ENDBRANCH  15  18
ENDBRANCH  12  14
ENDBRANCH   6   8
ENDBRANCH   5   6
ENDBRANCH   1   5
BRANCH   3  23
ATOM     23  C14 NON d   1     -38.169  18.755  -5.636  0.00  0.00     0.035 A 
ATOM     24  C15 NON d   1     -36.906  18.349  -6.064  0.00  0.00     0.031 A 
ATOM     25  C16 NON d   1     -36.422  18.710  -7.321  0.00  0.00     0.027 A 
ATOM     26  C17 NON d   1     -37.207  19.455  -8.205  0.00  0.00     0.049 A 
ATOM     27 Cl1  NON d   1     -36.484  19.754  -9.749  0.00  0.00    -0.083 Cl
ATOM     28  C18 NON d   1     -38.492  19.874  -7.820  0.00  0.00     0.055 A 
ATOM     29  C26 NON d   1     -38.947  19.539  -6.509  0.00  0.00     0.048 A 
BRANCH  28  30
ATOM     30  C19 NON d   1     -39.469  20.576  -8.737  0.00  0.00     0.253 C 
ATOM     31  O3  NON d   1     -40.413  19.934  -9.185  0.00  0.00    -0.268 OA
ATOM     32  N4  NON d   1     -39.250  21.908  -9.041  0.00  0.00    -0.352 N 
ATOM     33  H22 NON d   1     -38.372  22.295  -8.713  0.00  0.00     0.163 HD
BRANCH  32  34
ATOM     34  C20 NON d   1     -39.842  22.622 -10.187  0.00  0.00     0.084 C 
ATOM     35  C21 NON d   1     -39.131  22.186 -11.482  0.00  0.00     0.025 C 
ATOM     36  C22 NON d   1     -39.747  22.830 -12.719  0.00  0.00     0.002 C 
ATOM     37  C23 NON d   1     -39.742  24.351 -12.627  0.00  0.00     0.000 C 
ATOM     38  C24 NON d   1     -40.319  24.866 -11.312  0.00  0.00     0.002 C 
ATOM     39  C25 NON d   1     -39.781  24.150 -10.068  0.00  0.00     0.025 C 
ENDBRANCH  32  34
ENDBRANCH  28  30
ENDBRANCH   3  23
TORSDOF 11
ENDMDL
MODEL 6
REMARK VINA RESULT:   -13.524      2.104      2.514
REMARK INTER + INTRA:         -18.228
REMARK INTER:                 -16.805
REMARK INTRA:                  -1.423
REMARK CONF_INDEPENDENT:        3.281
REMARK UNBOUND:                -1.423
REMARK  11 active torsions:
REMARK  status: ('A' for Active; 'I' for Inactive)
REMARK    1  A    between atoms: C2_2  and  C3_3 
REMARK    2  A    between atoms: C3_3  and  C4_4 
REMARK    3  A    between atoms: C4_4  and  C5_5 
REMARK    4  A    between atoms: C5_5  and  C6_6 
REMARK       I    between atoms: C6_6  and  N1_8 
REMARK    5  A    between atoms: N1_8  and  C7_9 
REMARK    6  A    between atoms: C11_13  and  N2_14 
REMARK    7  A    between atoms: N2_14  and  C12_15 
REMARK    8  A    between atoms: C12_15  and  C13_16 
REMARK       I    between atoms: C13_16  and  N3_18 
REMARK    9  A    between atoms: N3_18  and  C14_19 
REMARK   10  A    between atoms: C18_24  and  C19_25 
REMARK       I    between atoms: C19_25  and  N4_27 
REMARK   11  A    between atoms: N4_27  and  C20_28 
ROOT
ATOM      1  C13 NON d   1     -40.391  21.843  -5.738  0.00  0.00     0.239 C 
ATOM      2  O2  NON d   1     -39.827  22.692  -6.426  0.00  0.00    -0.271 OA
ATOM      3  N3  NON d   1     -41.176  22.186  -4.623  0.00  0.00    -0.326 N 
ATOM      4  H19 NON d   1     -42.036  21.670  -4.476  0.00  0.00     0.169 HD
ENDROOT
BRANCH   1   5
ATOM      5  C12 NON d   1     -40.284  20.318  -6.018  0.00  0.00     0.223 C 
BRANCH   5   6
ATOM      6  N2  NON d   1     -41.565  19.549  -6.086  0.00  0.00    -0.381 N 
ATOM      7  H16 NON d   1     -42.270  20.001  -6.661  0.00  0.00     0.160 HD
BRANCH   6   8
ATOM      8  C11 NON d   1     -42.119  18.801  -5.039  0.00  0.00     0.030 A 
ATOM      9  C10 NON d   1     -41.325  18.187  -4.071  0.00  0.00     0.029 A 
ATOM     10  C9  NON d   1     -41.848  17.261  -3.176  0.00  0.00     0.004 A 
ATOM     11  C8  NON d   1     -43.207  16.962  -3.184  0.00  0.00     0.029 A 
ATOM     12  C7  NON d   1     -44.080  17.593  -4.067  0.00  0.00     0.036 A 
ATOM     13  C27 NON d   1     -43.514  18.490  -5.014  0.00  0.00     0.058 A 
BRANCH  12  14
ATOM     14  N1  NON d   1     -45.491  17.324  -4.045  0.00  0.00    -0.327 N 
ATOM     15  C6  NON d   1     -46.181  16.493  -4.943  0.00  0.00     0.222 C 
ATOM     16  O1  NON d   1     -45.659  15.803  -5.821  0.00  0.00    -0.273 OA
ATOM     17  H12 NON d   1     -46.016  17.728  -3.279  0.00  0.00     0.169 HD
BRANCH  15  18
ATOM     18  C5  NON d   1     -47.702  16.439  -4.750  0.00  0.00     0.103 C 
BRANCH  18  19
ATOM     19  C4  NON d   1     -48.193  15.208  -3.921  0.00  0.00     0.009 C 
BRANCH  19  20
ATOM     20  C3  NON d   1     -49.691  15.263  -3.557  0.00  0.00     0.000 C 
BRANCH  20  21
ATOM     21  C2  NON d   1     -50.085  16.142  -2.335  0.00  0.00    -0.005 C 
ATOM     22  C1  NON d   1     -51.425  16.895  -2.434  0.00  0.00     0.005 C 
ENDBRANCH  20  21
ENDBRANCH  19  20
ENDBRANCH  18  19
ENDBRANCH  15  18
ENDBRANCH  12  14
ENDBRANCH   6   8
ENDBRANCH   5   6
ENDBRANCH   1   5
BRANCH   3  23
ATOM     23  C14 NON d   1     -40.986  23.381  -3.871  0.00  0.00     0.035 A 
ATOM     24  C15 NON d   1     -40.655  24.570  -4.521  0.00  0.00     0.031 A 
ATOM     25  C16 NON d   1     -40.391  25.734  -3.799  0.00  0.00     0.027 A 
ATOM     26  C17 NON d   1     -40.491  25.753  -2.405  0.00  0.00     0.049 A 
ATOM     27 Cl1  NON d   1     -40.203  27.295  -1.673  0.00  0.00    -0.083 Cl
ATOM     28  C18 NON d   1     -40.835  24.580  -1.711  0.00  0.00     0.055 A 
ATOM     29  C26 NON d   1     -41.049  23.386  -2.465  0.00  0.00     0.048 A 
BRANCH  28  30
ATOM     30  C19 NON d   1     -41.090  24.517  -0.221  0.00  0.00     0.253 C 
ATOM     31  O3  NON d   1     -42.100  23.943   0.175  0.00  0.00    -0.268 OA
ATOM     32  N4  NON d   1     -40.181  25.118   0.631  0.00  0.00    -0.352 N 
ATOM     33  H22 NON d   1     -39.455  25.667   0.183  0.00  0.00     0.163 HD
BRANCH  32  34
ATOM     34  C20 NON d   1     -40.454  25.493   2.030  0.00  0.00     0.084 C 
ATOM     35  C21 NON d   1     -41.074  24.291   2.769  0.00  0.00     0.025 C 
ATOM     36  C22 NON d   1     -41.312  24.587   4.246  0.00  0.00     0.002 C 
ATOM     37  C23 NON d   1     -42.197  25.811   4.442  0.00  0.00     0.000 C 
ATOM     38  C24 NON d   1     -41.722  27.020   3.641  0.00  0.00     0.002 C 
ATOM     39  C25 NON d   1     -41.379  26.709   2.180  0.00  0.00     0.025 C 
ENDBRANCH  32  34
ENDBRANCH  28  30
ENDBRANCH   3  23
TORSDOF 11
ENDMDL
MODEL 7
REMARK VINA RESULT:   -13.378      2.816      4.450
REMARK INTER + INTRA:         -18.014
REMARK INTER:                 -16.659
REMARK INTRA:                  -1.355
REMARK CONF_INDEPENDENT:        3.281
REMARK UNBOUND:                -1.355
REMARK  11 active torsions:
REMARK  status: ('A' for Active; 'I' for Inactive)
REMARK    1  A    between atoms: C2_2  and  C3_3 
REMARK    2  A    between atoms: C3_3  and  C4_4 
REMARK    3  A    between atoms: C4_4  and  C5_5 
REMARK    4  A    between atoms: C5_5  and  C6_6 
REMARK       I    between atoms: C6_6  and  N1_8 
REMARK    5  A    between atoms: N1_8  and  C7_9 
REMARK    6  A    between atoms: C11_13  and  N2_14 
REMARK    7  A    between atoms: N2_14  and  C12_15 
REMARK    8  A    between atoms: C12_15  and  C13_16 
REMARK       I    between atoms: C13_16  and  N3_18 
REMARK    9  A    between atoms: N3_18  and  C14_19 
REMARK   10  A    between atoms: C18_24  and  C19_25 
REMARK       I    between atoms: C19_25  and  N4_27 
REMARK   11  A    between atoms: N4_27  and  C20_28 
ROOT
ATOM      1  C13 NON d   1     -40.036  20.496  -2.099  0.00  0.00     0.239 C 
ATOM      2  O2  NON d   1     -40.358  21.332  -2.941  0.00  0.00    -0.271 OA
ATOM      3  N3  NON d   1     -40.211  20.718  -0.721  0.00  0.00    -0.326 N 
ATOM      4  H19 NON d   1     -40.530  19.940  -0.156  0.00  0.00     0.169 HD
ENDROOT
BRANCH   1   5
ATOM      5  C12 NON d   1     -39.396  19.128  -2.465  0.00  0.00     0.223 C 
BRANCH   5   6
ATOM      6  N2  NON d   1     -40.332  18.002  -2.776  0.00  0.00    -0.381 N 
ATOM      7  H16 NON d   1     -39.866  17.102  -2.832  0.00  0.00     0.160 HD
BRANCH   6   8
ATOM      8  C11 NON d   1     -41.451  18.086  -3.614  0.00  0.00     0.030 A 
ATOM      9  C10 NON d   1     -41.486  18.944  -4.713  0.00  0.00     0.029 A 
ATOM     10  C9  NON d   1     -42.666  19.201  -5.402  0.00  0.00     0.004 A 
ATOM     11  C8  NON d   1     -43.846  18.557  -5.046  0.00  0.00     0.029 A 
ATOM     12  C7  NON d   1     -43.875  17.624  -4.011  0.00  0.00     0.036 A 
ATOM     13  C27 NON d   1     -42.672  17.423  -3.281  0.00  0.00     0.058 A 
BRANCH  12  14
ATOM     14  N1  NON d   1     -45.080  16.919  -3.673  0.00  0.00    -0.327 N 
ATOM     15  C6  NON d   1     -46.092  16.547  -4.573  0.00  0.00     0.222 C 
ATOM     16  O1  NON d   1     -46.047  16.692  -5.797  0.00  0.00    -0.273 OA
ATOM     17  H12 NON d   1     -45.172  16.618  -2.711  0.00  0.00     0.169 HD
BRANCH  15  18
ATOM     18  C5  NON d   1     -47.316  15.871  -3.941  0.00  0.00     0.103 C 
BRANCH  18  19
ATOM     19  C4  NON d   1     -48.273  16.857  -3.196  0.00  0.00     0.009 C 
BRANCH  19  20
ATOM     20  C3  NON d   1     -49.253  16.161  -2.230  0.00  0.00     0.000 C 
BRANCH  20  21
ATOM     21  C2  NON d   1     -50.436  15.380  -2.873  0.00  0.00    -0.005 C 
ATOM     22  C1  NON d   1     -50.066  14.320  -3.927  0.00  0.00     0.005 C 
ENDBRANCH  20  21
ENDBRANCH  19  20
ENDBRANCH  18  19
ENDBRANCH  15  18
ENDBRANCH  12  14
ENDBRANCH   6   8
ENDBRANCH   5   6
ENDBRANCH   1   5
BRANCH   3  23
ATOM     23  C14 NON d   1     -40.244  22.017  -0.137  0.00  0.00     0.035 A 
ATOM     24  C15 NON d   1     -40.076  22.169   1.239  0.00  0.00     0.031 A 
ATOM     25  C16 NON d   1     -40.179  23.423   1.842  0.00  0.00     0.027 A 
ATOM     26  C17 NON d   1     -40.413  24.569   1.077  0.00  0.00     0.049 A 
ATOM     27 Cl1  NON d   1     -40.438  26.050   1.973  0.00  0.00    -0.083 Cl
ATOM     28  C18 NON d   1     -40.575  24.464  -0.314  0.00  0.00     0.055 A 
ATOM     29  C26 NON d   1     -40.519  23.165  -0.905  0.00  0.00     0.048 A 
BRANCH  28  30
ATOM     30  C19 NON d   1     -40.709  25.646  -1.248  0.00  0.00     0.253 C 
ATOM     31  O3  NON d   1     -41.452  26.567  -0.922  0.00  0.00    -0.268 OA
ATOM     32  N4  NON d   1     -39.998  25.635  -2.435  0.00  0.00    -0.352 N 
ATOM     33  H22 NON d   1     -39.519  24.769  -2.652  0.00  0.00     0.163 HD
BRANCH  32  34
ATOM     34  C20 NON d   1     -40.298  26.477  -3.608  0.00  0.00     0.084 C 
ATOM     35  C21 NON d   1     -41.802  26.386  -3.930  0.00  0.00     0.025 C 
ATOM     36  C22 NON d   1     -42.196  27.296  -5.089  0.00  0.00     0.002 C 
ATOM     37  C23 NON d   1     -41.391  26.991  -6.346  0.00  0.00     0.000 C 
ATOM     38  C24 NON d   1     -39.888  26.938  -6.088  0.00  0.00     0.002 C 
ATOM     39  C25 NON d   1     -39.491  26.110  -4.860  0.00  0.00     0.025 C 
ENDBRANCH  32  34
ENDBRANCH  28  30
ENDBRANCH   3  23
TORSDOF 11
ENDMDL
MODEL 8
REMARK VINA RESULT:   -12.933      4.680      8.777
REMARK INTER + INTRA:         -17.527
REMARK INTER:                 -16.214
REMARK INTRA:                  -1.313
REMARK CONF_INDEPENDENT:        3.281
REMARK UNBOUND:                -1.313
REMARK  11 active torsions:
REMARK  status: ('A' for Active; 'I' for Inactive)
REMARK    1  A    between atoms: C2_2  and  C3_3 
REMARK    2  A    between atoms: C3_3  and  C4_4 
REMARK    3  A    between atoms: C4_4  and  C5_5 
REMARK    4  A    between atoms: C5_5  and  C6_6 
REMARK       I    between atoms: C6_6  and  N1_8 
REMARK    5  A    between atoms: N1_8  and  C7_9 
REMARK    6  A    between atoms: C11_13  and  N2_14 
REMARK    7  A    between atoms: N2_14  and  C12_15 
REMARK    8  A    between atoms: C12_15  and  C13_16 
REMARK       I    between atoms: C13_16  and  N3_18 
REMARK    9  A    between atoms: N3_18  and  C14_19 
REMARK   10  A    between atoms: C18_24  and  C19_25 
REMARK       I    between atoms: C19_25  and  N4_27 
REMARK   11  A    between atoms: N4_27  and  C20_28 
ROOT
ATOM      1  C13 NON d   1     -39.404  20.459  -3.625  0.00  0.00     0.239 C 
ATOM      2  O2  NON d   1     -38.269  20.256  -4.050  0.00  0.00    -0.271 OA
ATOM      3  N3  NON d   1     -40.412  21.025  -4.425  0.00  0.00    -0.326 N 
ATOM      4  H19 NON d   1     -41.349  20.648  -4.339  0.00  0.00     0.169 HD
ENDROOT
BRANCH   1   5
ATOM      5  C12 NON d   1     -39.836  20.126  -2.168  0.00  0.00     0.223 C 
BRANCH   5   6
ATOM      6  N2  NON d   1     -40.679  18.906  -1.972  0.00  0.00    -0.381 N 
ATOM      7  H16 NON d   1     -40.298  18.266  -1.282  0.00  0.00     0.160 HD
BRANCH   6   8
ATOM      8  C11 NON d   1     -41.403  18.251  -2.976  0.00  0.00     0.030 A 
ATOM      9  C10 NON d   1     -40.885  18.065  -4.257  0.00  0.00     0.029 A 
ATOM     10  C9  NON d   1     -41.680  17.630  -5.312  0.00  0.00     0.004 A 
ATOM     11  C8  NON d   1     -43.017  17.309  -5.102  0.00  0.00     0.029 A 
ATOM     12  C7  NON d   1     -43.588  17.391  -3.834  0.00  0.00     0.036 A 
ATOM     13  C27 NON d   1     -42.775  17.897  -2.784  0.00  0.00     0.058 A 
BRANCH  12  14
ATOM     14  N1  NON d   1     -44.955  17.013  -3.602  0.00  0.00    -0.327 N 
ATOM     15  C6  NON d   1     -45.938  16.847  -4.591  0.00  0.00     0.222 C 
ATOM     16  O1  NON d   1     -45.744  16.912  -5.808  0.00  0.00    -0.273 OA
ATOM     17  H12 NON d   1     -45.208  16.794  -2.647  0.00  0.00     0.169 HD
BRANCH  15  18
ATOM     18  C5  NON d   1     -47.343  16.517  -4.072  0.00  0.00     0.103 C 
BRANCH  18  19
ATOM     19  C4  NON d   1     -48.053  15.362  -4.849  0.00  0.00     0.009 C 
BRANCH  19  20
ATOM     20  C3  NON d   1     -49.409  14.945  -4.241  0.00  0.00     0.000 C 
BRANCH  20  21
ATOM     21  C2  NON d   1     -49.697  15.411  -2.784  0.00  0.00    -0.005 C 
ATOM     22  C1  NON d   1     -50.816  16.454  -2.606  0.00  0.00     0.005 C 
ENDBRANCH  20  21
ENDBRANCH  19  20
ENDBRANCH  18  19
ENDBRANCH  15  18
ENDBRANCH  12  14
ENDBRANCH   6   8
ENDBRANCH   5   6
ENDBRANCH   1   5
BRANCH   3  23
ATOM     23  C14 NON d   1     -40.142  21.880  -5.533  0.00  0.00     0.035 A 
ATOM     24  C15 NON d   1     -40.173  23.265  -5.370  0.00  0.00     0.031 A 
ATOM     25  C16 NON d   1     -39.985  24.120  -6.456  0.00  0.00     0.027 A 
ATOM     26  C17 NON d   1     -39.719  23.614  -7.731  0.00  0.00     0.049 A 
ATOM     27 Cl1  NON d   1     -39.438  24.812  -8.948  0.00  0.00    -0.083 Cl
ATOM     28  C18 NON d   1     -39.665  22.225  -7.937  0.00  0.00     0.055 A 
ATOM     29  C26 NON d   1     -39.913  21.366  -6.823  0.00  0.00     0.048 A 
BRANCH  28  30
ATOM     30  C19 NON d   1     -39.265  21.573  -9.242  0.00  0.00     0.253 C 
ATOM     31  O3  NON d   1     -38.509  20.607  -9.205  0.00  0.00    -0.268 OA
ATOM     32  N4  NON d   1     -39.758  22.099 -10.422  0.00  0.00    -0.352 N 
ATOM     33  H22 NON d   1     -40.270  22.970 -10.335  0.00  0.00     0.163 HD
BRANCH  32  34
ATOM     34  C20 NON d   1     -39.185  21.860 -11.759  0.00  0.00     0.084 C 
ATOM     35  C21 NON d   1     -37.669  21.618 -11.629  0.00  0.00     0.025 C 
ATOM     36  C22 NON d   1     -37.024  21.286 -12.970  0.00  0.00     0.002 C 
ATOM     37  C23 NON d   1     -37.274  22.377 -14.004  0.00  0.00     0.000 C 
ATOM     38  C24 NON d   1     -38.745  22.767 -14.108  0.00  0.00     0.002 C 
ATOM     39  C25 NON d   1     -39.430  23.000 -12.756  0.00  0.00     0.025 C 
ENDBRANCH  32  34
ENDBRANCH  28  30
ENDBRANCH   3  23
TORSDOF 11
ENDMDL
MODEL 9
REMARK VINA RESULT:   -12.778      5.857      9.416
REMARK INTER + INTRA:         -17.449
REMARK INTER:                 -16.059
REMARK INTRA:                  -1.390
REMARK CONF_INDEPENDENT:        3.281
REMARK UNBOUND:                -1.390
REMARK  11 active torsions:
REMARK  status: ('A' for Active; 'I' for Inactive)
REMARK    1  A    between atoms: C2_2  and  C3_3 
REMARK    2  A    between atoms: C3_3  and  C4_4 
REMARK    3  A    between atoms: C4_4  and  C5_5 
REMARK    4  A    between atoms: C5_5  and  C6_6 
REMARK       I    between atoms: C6_6  and  N1_8 
REMARK    5  A    between atoms: N1_8  and  C7_9 
REMARK    6  A    between atoms: C11_13  and  N2_14 
REMARK    7  A    between atoms: N2_14  and  C12_15 
REMARK    8  A    between atoms: C12_15  and  C13_16 
REMARK       I    between atoms: C13_16  and  N3_18 
REMARK    9  A    between atoms: N3_18  and  C14_19 
REMARK   10  A    between atoms: C18_24  and  C19_25 
REMARK       I    between atoms: C19_25  and  N4_27 
REMARK   11  A    between atoms: N4_27  and  C20_28 
ROOT
ATOM      1  C13 NON d   1     -40.415  19.961  -7.431  0.00  0.00     0.239 C 
ATOM      2  O2  NON d   1     -41.117  19.978  -8.440  0.00  0.00    -0.271 OA
ATOM      3  N3  NON d   1     -40.058  21.138  -6.749  0.00  0.00    -0.326 N 
ATOM      4  H19 NON d   1     -40.057  21.112  -5.736  0.00  0.00     0.169 HD
ENDROOT
BRANCH   1   5
ATOM      5  C12 NON d   1     -39.845  18.651  -6.819  0.00  0.00     0.223 C 
BRANCH   5   6
ATOM      6  N2  NON d   1     -40.834  17.667  -6.279  0.00  0.00    -0.381 N 
ATOM      7  H16 NON d   1     -41.322  17.154  -7.008  0.00  0.00     0.160 HD
BRANCH   6   8
ATOM      8  C11 NON d   1     -41.614  17.847  -5.130  0.00  0.00     0.030 A 
ATOM      9  C10 NON d   1     -41.114  18.479  -3.992  0.00  0.00     0.029 A 
ATOM     10  C9  NON d   1     -41.797  18.452  -2.781  0.00  0.00     0.004 A 
ATOM     11  C8  NON d   1     -43.041  17.837  -2.686  0.00  0.00     0.029 A 
ATOM     12  C7  NON d   1     -43.644  17.254  -3.798  0.00  0.00     0.036 A 
ATOM     13  C27 NON d   1     -42.901  17.238  -5.010  0.00  0.00     0.058 A 
BRANCH  12  14
ATOM     14  N1  NON d   1     -44.951  16.661  -3.717  0.00  0.00    -0.327 N 
ATOM     15  C6  NON d   1     -45.951  16.745  -4.698  0.00  0.00     0.222 C 
ATOM     16  O1  NON d   1     -45.819  17.262  -5.810  0.00  0.00    -0.273 OA
ATOM     17  H12 NON d   1     -45.137  16.088  -2.903  0.00  0.00     0.169 HD
BRANCH  15  18
ATOM     18  C5  NON d   1     -47.289  16.090  -4.330  0.00  0.00     0.103 C 
BRANCH  18  19
ATOM     19  C4  NON d   1     -47.590  16.081  -2.796  0.00  0.00     0.009 C 
BRANCH  19  20
ATOM     20  C3  NON d   1     -48.998  16.600  -2.437  0.00  0.00     0.000 C 
BRANCH  20  21
ATOM     21  C2  NON d   1     -50.198  15.673  -2.785  0.00  0.00    -0.005 C 
ATOM     22  C1  NON d   1     -49.920  14.539  -3.790  0.00  0.00     0.005 C 
ENDBRANCH  20  21
ENDBRANCH  19  20
ENDBRANCH  18  19
ENDBRANCH  15  18
ENDBRANCH  12  14
ENDBRANCH   6   8
ENDBRANCH   5   6
ENDBRANCH   1   5
BRANCH   3  23
ATOM     23  C14 NON d   1     -39.982  22.413  -7.379  0.00  0.00     0.035 A 
ATOM     24  C15 NON d   1     -39.840  23.566  -6.607  0.00  0.00     0.031 A 
ATOM     25  C16 NON d   1     -39.838  24.830  -7.197  0.00  0.00     0.027 A 
ATOM     26  C17 NON d   1     -39.936  24.975  -8.584  0.00  0.00     0.049 A 
ATOM     27 Cl1  NON d   1     -39.843  26.607  -9.155  0.00  0.00    -0.083 Cl
ATOM     28  C18 NON d   1     -40.066  23.839  -9.400  0.00  0.00     0.055 A 
ATOM     29  C26 NON d   1     -40.120  22.558  -8.772  0.00  0.00     0.048 A 
BRANCH  28  30
ATOM     30  C19 NON d   1     -40.057  23.872 -10.912  0.00  0.00     0.253 C 
ATOM     31  O3  NON d   1     -39.338  23.077 -11.510  0.00  0.00    -0.268 OA
ATOM     32  N4  NON d   1     -40.850  24.804 -11.559  0.00  0.00    -0.352 N 
ATOM     33  H22 NON d   1     -41.301  25.486 -10.960  0.00  0.00     0.163 HD
BRANCH  32  34
ATOM     34  C20 NON d   1     -40.675  25.238 -12.957  0.00  0.00     0.084 C 
ATOM     35  C21 NON d   1     -40.646  24.001 -13.875  0.00  0.00     0.025 C 
ATOM     36  C22 NON d   1     -40.545  24.383 -15.348  0.00  0.00     0.002 C 
ATOM     37  C23 NON d   1     -39.322  25.248 -15.625  0.00  0.00     0.000 C 
ATOM     38  C24 NON d   1     -39.206  26.434 -14.673  0.00  0.00     0.002 C 
ATOM     39  C25 NON d   1     -39.411  26.075 -13.196  0.00  0.00     0.025 C 
ENDBRANCH  32  34
ENDBRANCH  28  30
ENDBRANCH   3  23
TORSDOF 11
ENDMDL
