MODEL 1
REMARK VINA RESULT:   -12.913      0.000      0.000
REMARK INTER + INTRA:         -16.301
REMARK INTER:                 -14.703
REMARK INTRA:                  -1.598
REMARK CONF_INDEPENDENT:        1.790
REMARK UNBOUND:                -1.598
REMARK  6 active torsions:
REMARK  status: ('A' for Active; 'I' for Inactive)
REMARK       I    between atoms: C1_2  and  N1_3 
REMARK       I    between atoms: C1_2  and  N2_14 
REMARK    1  A    between atoms: N1_3  and  C2_4 
REMARK    2  A    between atoms: C6_8  and  C7_9 
REMARK    3  A    between atoms: N2_14  and  C9_15 
REMARK    4  A    between atoms: C11_17  and  N3_18 
REMARK       I    between atoms: N3_18  and  C12_19 
REMARK    5  A    between atoms: C12_19  and  C13_21 
REMARK    6  A    between atoms: C21_30  and  N4_31 
ROOT
ATOM      1  C9  NON d   1     -41.632  18.854  -3.966  0.00  0.00     0.065 A 
ATOM      2  C10 NON d   1     -42.917  18.387  -3.575  0.00  0.00     0.061 A 
ATOM      3  C11 NON d   1     -43.616  17.396  -4.264  0.00  0.00     0.037 A 
ATOM      4  C19 NON d   1     -43.006  16.815  -5.362  0.00  0.00     0.032 A 
ATOM      5  C20 NON d   1     -41.748  17.255  -5.776  0.00  0.00     0.034 A 
ATOM      6  C21 NON d   1     -41.001  18.267  -5.117  0.00  0.00     0.057 A 
ENDROOT
BRANCH   1   7
ATOM      7  N2  NON d   1     -41.026  19.936  -3.233  0.00  0.00    -0.306 N 
ATOM      8  C1  NON d   1     -40.606  21.154  -3.712  0.00  0.00     0.325 C 
ATOM      9  O1  NON d   1     -40.649  21.541  -4.877  0.00  0.00    -0.247 OA
ATOM     10  N1  NON d   1     -40.043  22.048  -2.843  0.00  0.00    -0.309 N 
ATOM     11  H1  NON d   1     -39.578  22.778  -3.375  0.00  0.00     0.170 HD
ATOM     12  H6  NON d   1     -40.682  19.681  -2.326  0.00  0.00     0.170 HD
BRANCH  10  13
ATOM     13  C2  NON d   1     -40.133  22.269  -1.462  0.00  0.00     0.037 C 
ATOM     14  C3  NON d   1     -39.922  21.259  -0.531  0.00  0.00     0.029 C 
ATOM     15  C4  NON d   1     -39.984  21.512   0.833  0.00  0.00     0.003 C 
ATOM     16  C5  NON d   1     -40.375  22.769   1.271  0.00  0.00     0.016 C 
ATOM     17  C6  NON d   1     -40.731  23.788   0.356  0.00  0.00     0.050 C 
ATOM     18  C8  NON d   1     -40.576  23.529  -1.017  0.00  0.00     0.045 C 
BRANCH  17  19
ATOM     19  C7  NON d   1     -41.440  24.980   1.025  0.00  0.00     0.417 C 
ATOM     20  F1  NON d   1     -42.149  26.171   1.695  0.00  0.00    -0.166 F 
ATOM     21  F2  NON d   1     -40.229  25.436   1.634  0.00  0.00    -0.166 F 
ATOM     22  F3  NON d   1     -41.497  25.744  -0.184  0.00  0.00    -0.166 F 
ENDBRANCH  17  19
ENDBRANCH  10  13
ENDBRANCH   1   7
BRANCH   6  23
ATOM     23  N4  NON d   1     -39.756  18.606  -5.662  0.00  0.00    -0.379 N 
ATOM     24  C22 NON d   1     -38.571  18.781  -4.801  0.00  0.00     0.123 C 
ATOM     25  C23 NON d   1     -37.460  19.177  -5.760  0.00  0.00     0.021 C 
ATOM     26  C24 NON d   1     -38.190  20.052  -6.755  0.00  0.00     0.021 C 
ATOM     27  C25 NON d   1     -39.575  19.413  -6.864  0.00  0.00     0.123 C 
ENDBRANCH   6  23
BRANCH   3  28
ATOM     28  N3  NON d   1     -44.918  16.943  -3.944  0.00  0.00    -0.323 N 
ATOM     29  C12 NON d   1     -46.022  16.898  -4.779  0.00  0.00     0.256 C 
ATOM     30  O2  NON d   1     -46.045  17.255  -5.952  0.00  0.00    -0.267 OA
ATOM     31  H8  NON d   1     -45.012  16.567  -3.016  0.00  0.00     0.169 HD
BRANCH  29  32
ATOM     32  C13 NON d   1     -47.294  16.341  -4.204  0.00  0.00     0.032 A 
ATOM     33  C14 NON d   1     -47.711  16.846  -2.958  0.00  0.00     0.020 A 
ATOM     34  C15 NON d   1     -48.891  16.397  -2.358  0.00  0.00     0.043 A 
ATOM     35  C16 NON d   1     -49.660  15.439  -3.004  0.00  0.00     0.116 A 
ATOM     36  F4  NON d   1     -50.792  15.005  -2.435  0.00  0.00    -0.206 F 
ATOM     37  C17 NON d   1     -49.273  14.929  -4.238  0.00  0.00     0.043 A 
ATOM     38  C18 NON d   1     -48.094  15.380  -4.844  0.00  0.00     0.020 A 
ENDBRANCH  29  32
ENDBRANCH   3  28
TORSDOF 6
ENDMDL
MODEL 2
REMARK VINA RESULT:   -12.820      1.569      2.175
REMARK INTER + INTRA:         -16.223
REMARK INTER:                 -14.610
REMARK INTRA:                  -1.613
REMARK CONF_INDEPENDENT:        1.790
REMARK UNBOUND:                -1.613
REMARK  6 active torsions:
REMARK  status: ('A' for Active; 'I' for Inactive)
REMARK       I    between atoms: C1_2  and  N1_3 
REMARK       I    between atoms: C1_2  and  N2_14 
REMARK    1  A    between atoms: N1_3  and  C2_4 
REMARK    2  A    between atoms: C6_8  and  C7_9 
REMARK    3  A    between atoms: N2_14  and  C9_15 
REMARK    4  A    between atoms: C11_17  and  N3_18 
REMARK       I    between atoms: N3_18  and  C12_19 
REMARK    5  A    between atoms: C12_19  and  C13_21 
REMARK    6  A    between atoms: C21_30  and  N4_31 
ROOT
ATOM      1  C9  NON d   1     -41.586  18.848  -3.957  0.00  0.00     0.065 A 
ATOM      2  C10 NON d   1     -42.872  18.381  -3.567  0.00  0.00     0.061 A 
ATOM      3  C11 NON d   1     -43.572  17.394  -4.259  0.00  0.00     0.037 A 
ATOM      4  C19 NON d   1     -42.963  16.816  -5.359  0.00  0.00     0.032 A 
ATOM      5  C20 NON d   1     -41.704  17.255  -5.773  0.00  0.00     0.034 A 
ATOM      6  C21 NON d   1     -40.956  18.264  -5.111  0.00  0.00     0.057 A 
ENDROOT
BRANCH   1   7
ATOM      7  N2  NON d   1     -40.978  19.926  -3.221  0.00  0.00    -0.306 N 
ATOM      8  C1  NON d   1     -40.710  21.203  -3.654  0.00  0.00     0.325 C 
ATOM      9  O1  NON d   1     -40.920  21.659  -4.774  0.00  0.00    -0.247 OA
ATOM     10  N1  NON d   1     -40.115  22.083  -2.791  0.00  0.00    -0.309 N 
ATOM     11  H1  NON d   1     -39.772  22.881  -3.318  0.00  0.00     0.170 HD
ATOM     12  H6  NON d   1     -40.510  19.643  -2.381  0.00  0.00     0.170 HD
BRANCH  10  13
ATOM     13  C2  NON d   1     -40.055  22.206  -1.397  0.00  0.00     0.037 C 
ATOM     14  C3  NON d   1     -40.955  22.982  -0.678  0.00  0.00     0.029 C 
ATOM     15  C4  NON d   1     -40.893  23.060   0.708  0.00  0.00     0.003 C 
ATOM     16  C5  NON d   1     -39.845  22.441   1.374  0.00  0.00     0.016 C 
ATOM     17  C6  NON d   1     -38.830  21.754   0.668  0.00  0.00     0.050 C 
ATOM     18  C8  NON d   1     -38.965  21.620  -0.724  0.00  0.00     0.045 C 
BRANCH  17  19
ATOM     19  C7  NON d   1     -37.603  21.427   1.541  0.00  0.00     0.417 C 
ATOM     20  F1  NON d   1     -36.377  21.100   2.413  0.00  0.00    -0.166 F 
ATOM     21  F2  NON d   1     -36.696  21.960   0.572  0.00  0.00    -0.166 F 
ATOM     22  F3  NON d   1     -37.818  22.536   2.420  0.00  0.00    -0.166 F 
ENDBRANCH  17  19
ENDBRANCH  10  13
ENDBRANCH   1   7
BRANCH   6  23
ATOM     23  N4  NON d   1     -39.710  18.603  -5.655  0.00  0.00    -0.379 N 
ATOM     24  C22 NON d   1     -38.552  18.884  -4.786  0.00  0.00     0.123 C 
ATOM     25  C23 NON d   1     -37.433  19.244  -5.750  0.00  0.00     0.021 C 
ATOM     26  C24 NON d   1     -38.169  20.014  -6.825  0.00  0.00     0.021 C 
ATOM     27  C25 NON d   1     -39.529  19.321  -6.912  0.00  0.00     0.123 C 
ENDBRANCH   6  23
BRANCH   3  28
ATOM     28  N3  NON d   1     -44.874  16.941  -3.940  0.00  0.00    -0.323 N 
ATOM     29  C12 NON d   1     -45.978  16.898  -4.776  0.00  0.00     0.256 C 
ATOM     30  O2  NON d   1     -46.000  17.255  -5.949  0.00  0.00    -0.267 OA
ATOM     31  H8  NON d   1     -44.970  16.565  -3.012  0.00  0.00     0.169 HD
BRANCH  29  32
ATOM     32  C13 NON d   1     -47.250  16.341  -4.202  0.00  0.00     0.032 A 
ATOM     33  C14 NON d   1     -47.666  16.841  -2.954  0.00  0.00     0.020 A 
ATOM     34  C15 NON d   1     -48.846  16.393  -2.354  0.00  0.00     0.043 A 
ATOM     35  C16 NON d   1     -49.618  15.440  -3.003  0.00  0.00     0.116 A 
ATOM     36  F4  NON d   1     -50.750  15.006  -2.435  0.00  0.00    -0.206 F 
ATOM     37  C17 NON d   1     -49.232  14.933  -4.240  0.00  0.00     0.043 A 
ATOM     38  C18 NON d   1     -48.053  15.384  -4.845  0.00  0.00     0.020 A 
ENDBRANCH  29  32
ENDBRANCH   3  28
TORSDOF 6
ENDMDL
MODEL 3
REMARK VINA RESULT:   -12.680      1.654      2.307
REMARK INTER + INTRA:         -15.858
REMARK INTER:                 -14.470
REMARK INTRA:                  -1.387
REMARK CONF_INDEPENDENT:        1.790
REMARK UNBOUND:                -1.387
REMARK  6 active torsions:
REMARK  status: ('A' for Active; 'I' for Inactive)
REMARK       I    between atoms: C1_2  and  N1_3 
REMARK       I    between atoms: C1_2  and  N2_14 
REMARK    1  A    between atoms: N1_3  and  C2_4 
REMARK    2  A    between atoms: C6_8  and  C7_9 
REMARK    3  A    between atoms: N2_14  and  C9_15 
REMARK    4  A    between atoms: C11_17  and  N3_18 
REMARK       I    between atoms: N3_18  and  C12_19 
REMARK    5  A    between atoms: C12_19  and  C13_21 
REMARK    6  A    between atoms: C21_30  and  N4_31 
ROOT
ATOM      1  C9  NON d   1     -41.513  18.712  -3.596  0.00  0.00     0.065 A 
ATOM      2  C10 NON d   1     -42.806  18.234  -3.246  0.00  0.00     0.061 A 
ATOM      3  C11 NON d   1     -43.561  17.396  -4.065  0.00  0.00     0.037 A 
ATOM      4  C19 NON d   1     -43.003  16.981  -5.261  0.00  0.00     0.032 A 
ATOM      5  C20 NON d   1     -41.739  17.437  -5.638  0.00  0.00     0.034 A 
ATOM      6  C21 NON d   1     -40.936  18.299  -4.847  0.00  0.00     0.057 A 
ENDROOT
BRANCH   1   7
ATOM      7  N2  NON d   1     -40.845  19.636  -2.716  0.00  0.00    -0.306 N 
ATOM      8  C1  NON d   1     -39.649  19.467  -2.060  0.00  0.00     0.325 C 
ATOM      9  O1  NON d   1     -38.929  18.472  -2.086  0.00  0.00    -0.247 OA
ATOM     10  N1  NON d   1     -39.187  20.473  -1.255  0.00  0.00    -0.309 N 
ATOM     11  H1  NON d   1     -38.440  20.112  -0.671  0.00  0.00     0.170 HD
ATOM     12  H6  NON d   1     -41.423  20.383  -2.382  0.00  0.00     0.170 HD
BRANCH  10  13
ATOM     13  C2  NON d   1     -39.379  21.860  -1.206  0.00  0.00     0.037 C 
ATOM     14  C3  NON d   1     -39.391  22.568  -0.011  0.00  0.00     0.029 C 
ATOM     15  C4  NON d   1     -39.549  23.948   0.008  0.00  0.00     0.003 C 
ATOM     16  C5  NON d   1     -39.813  24.615  -1.181  0.00  0.00     0.016 C 
ATOM     17  C6  NON d   1     -39.945  23.914  -2.402  0.00  0.00     0.050 C 
ATOM     18  C8  NON d   1     -39.695  22.531  -2.403  0.00  0.00     0.045 C 
BRANCH  17  19
ATOM     19  C7  NON d   1     -40.554  24.771  -3.528  0.00  0.00     0.417 C 
ATOM     20  F1  NON d   1     -41.162  25.628  -4.653  0.00  0.00    -0.166 F 
ATOM     21  F2  NON d   1     -41.549  23.787  -3.822  0.00  0.00    -0.166 F 
ATOM     22  F3  NON d   1     -41.231  25.646  -2.620  0.00  0.00    -0.166 F 
ENDBRANCH  17  19
ENDBRANCH  10  13
ENDBRANCH   1   7
BRANCH   6  23
ATOM     23  N4  NON d   1     -39.691  18.677  -5.368  0.00  0.00    -0.379 N 
ATOM     24  C22 NON d   1     -39.478  18.791  -6.823  0.00  0.00     0.123 C 
ATOM     25  C23 NON d   1     -38.014  19.175  -6.963  0.00  0.00     0.021 C 
ATOM     26  C24 NON d   1     -37.364  18.380  -5.852  0.00  0.00     0.021 C 
ATOM     27  C25 NON d   1     -38.410  18.380  -4.736  0.00  0.00     0.123 C 
ENDBRANCH   6  23
BRANCH   3  28
ATOM     28  N3  NON d   1     -44.873  16.944  -3.783  0.00  0.00    -0.323 N 
ATOM     29  C12 NON d   1     -45.952  16.898  -4.650  0.00  0.00     0.256 C 
ATOM     30  O2  NON d   1     -45.940  17.253  -5.823  0.00  0.00    -0.267 OA
ATOM     31  H8  NON d   1     -44.994  16.570  -2.857  0.00  0.00     0.169 HD
BRANCH  29  32
ATOM     32  C13 NON d   1     -47.240  16.343  -4.111  0.00  0.00     0.032 A 
ATOM     33  C14 NON d   1     -47.666  16.810  -2.853  0.00  0.00     0.020 A 
ATOM     34  C15 NON d   1     -48.860  16.360  -2.285  0.00  0.00     0.043 A 
ATOM     35  C16 NON d   1     -49.637  15.439  -2.974  0.00  0.00     0.116 A 
ATOM     36  F4  NON d   1     -50.783  15.005  -2.435  0.00  0.00    -0.206 F 
ATOM     37  C17 NON d   1     -49.242  14.967  -4.220  0.00  0.00     0.043 A 
ATOM     38  C18 NON d   1     -48.048  15.419  -4.795  0.00  0.00     0.020 A 
ENDBRANCH  29  32
ENDBRANCH   3  28
TORSDOF 6
ENDMDL
MODEL 4
REMARK VINA RESULT:   -12.413      1.592      2.312
REMARK INTER + INTRA:         -15.683
REMARK INTER:                 -14.203
REMARK INTRA:                  -1.480
REMARK CONF_INDEPENDENT:        1.790
REMARK UNBOUND:                -1.480
REMARK  6 active torsions:
REMARK  status: ('A' for Active; 'I' for Inactive)
REMARK       I    between atoms: C1_2  and  N1_3 
REMARK       I    between atoms: C1_2  and  N2_14 
REMARK    1  A    between atoms: N1_3  and  C2_4 
REMARK    2  A    between atoms: C6_8  and  C7_9 
REMARK    3  A    between atoms: N2_14  and  C9_15 
REMARK    4  A    between atoms: C11_17  and  N3_18 
REMARK       I    between atoms: N3_18  and  C12_19 
REMARK    5  A    between atoms: C12_19  and  C13_21 
REMARK    6  A    between atoms: C21_30  and  N4_31 
ROOT
ATOM      1  C9  NON d   1     -41.683  19.479  -4.865  0.00  0.00     0.065 A 
ATOM      2  C10 NON d   1     -42.961  19.131  -4.348  0.00  0.00     0.061 A 
ATOM      3  C11 NON d   1     -43.563  17.891  -4.561  0.00  0.00     0.037 A 
ATOM      4  C19 NON d   1     -42.860  16.943  -5.283  0.00  0.00     0.032 A 
ATOM      5  C20 NON d   1     -41.605  17.255  -5.810  0.00  0.00     0.034 A 
ATOM      6  C21 NON d   1     -40.955  18.504  -5.631  0.00  0.00     0.057 A 
ENDROOT
BRANCH   1   7
ATOM      7  N2  NON d   1     -41.181  20.813  -4.652  0.00  0.00    -0.306 N 
ATOM      8  C1  NON d   1     -40.690  21.692  -5.588  0.00  0.00     0.325 C 
ATOM      9  O1  NON d   1     -40.565  21.491  -6.793  0.00  0.00    -0.247 OA
ATOM     10  N1  NON d   1     -40.251  22.921  -5.175  0.00  0.00    -0.309 N 
ATOM     11  H1  NON d   1     -39.711  23.347  -5.922  0.00  0.00     0.170 HD
ATOM     12  H6  NON d   1     -40.970  21.029  -3.697  0.00  0.00     0.170 HD
BRANCH  10  13
ATOM     13  C2  NON d   1     -40.534  23.751  -4.082  0.00  0.00     0.037 C 
ATOM     14  C3  NON d   1     -40.581  25.135  -4.191  0.00  0.00     0.029 C 
ATOM     15  C4  NON d   1     -40.897  25.933  -3.099  0.00  0.00     0.003 C 
ATOM     16  C5  NON d   1     -41.056  25.343  -1.853  0.00  0.00     0.016 C 
ATOM     17  C6  NON d   1     -40.881  23.951  -1.672  0.00  0.00     0.050 C 
ATOM     18  C8  NON d   1     -40.647  23.160  -2.810  0.00  0.00     0.045 C 
BRANCH  17  19
ATOM     19  C7  NON d   1     -40.775  23.543  -0.191  0.00  0.00     0.417 C 
ATOM     20  F1  NON d   1     -40.669  23.137   1.290  0.00  0.00    -0.166 F 
ATOM     21  F2  NON d   1     -42.190  23.627  -0.004  0.00  0.00    -0.166 F 
ATOM     22  F3  NON d   1     -40.575  22.158  -0.491  0.00  0.00    -0.166 F 
ENDBRANCH  17  19
ENDBRANCH  10  13
ENDBRANCH   1   7
BRANCH   6  23
ATOM     23  N4  NON d   1     -39.700  18.669  -6.232  0.00  0.00    -0.379 N 
ATOM     24  C22 NON d   1     -38.570  19.254  -5.486  0.00  0.00     0.123 C 
ATOM     25  C23 NON d   1     -37.431  19.292  -6.492  0.00  0.00     0.021 C 
ATOM     26  C24 NON d   1     -38.149  19.637  -7.779  0.00  0.00     0.021 C 
ATOM     27  C25 NON d   1     -39.496  18.924  -7.654  0.00  0.00     0.123 C 
ENDBRANCH   6  23
BRANCH   3  28
ATOM     28  N3  NON d   1     -44.855  17.524  -4.115  0.00  0.00    -0.323 N 
ATOM     29  C12 NON d   1     -45.753  16.677  -4.744  0.00  0.00     0.256 C 
ATOM     30  O2  NON d   1     -45.565  16.102  -5.810  0.00  0.00    -0.267 OA
ATOM     31  H8  NON d   1     -45.105  17.891  -3.212  0.00  0.00     0.169 HD
BRANCH  29  32
ATOM     32  C13 NON d   1     -47.058  16.421  -4.045  0.00  0.00     0.032 A 
ATOM     33  C14 NON d   1     -47.977  15.571  -4.689  0.00  0.00     0.020 A 
ATOM     34  C15 NON d   1     -49.208  15.265  -4.102  0.00  0.00     0.043 A 
ATOM     35  C16 NON d   1     -49.526  15.809  -2.866  0.00  0.00     0.116 A 
ATOM     36  F4  NON d   1     -50.704  15.519  -2.298  0.00  0.00    -0.206 F 
ATOM     37  C17 NON d   1     -48.634  16.647  -2.207  0.00  0.00     0.043 A 
ATOM     38  C18 NON d   1     -47.398  16.952  -2.789  0.00  0.00     0.020 A 
ENDBRANCH  29  32
ENDBRANCH   3  28
TORSDOF 6
ENDMDL
MODEL 5
REMARK VINA RESULT:   -12.398      4.550      6.242
REMARK INTER + INTRA:         -15.750
REMARK INTER:                 -14.188
REMARK INTRA:                  -1.562
REMARK CONF_INDEPENDENT:        1.790
REMARK UNBOUND:                -1.562
REMARK  6 active torsions:
REMARK  status: ('A' for Active; 'I' for Inactive)
REMARK       I    between atoms: C1_2  and  N1_3 
REMARK       I    between atoms: C1_2  and  N2_14 
REMARK    1  A    between atoms: N1_3  and  C2_4 
REMARK    2  A    between atoms: C6_8  and  C7_9 
REMARK    3  A    between atoms: N2_14  and  C9_15 
REMARK    4  A    between atoms: C11_17  and  N3_18 
REMARK       I    between atoms: N3_18  and  C12_19 
REMARK    5  A    between atoms: C12_19  and  C13_21 
REMARK    6  A    between atoms: C21_30  and  N4_31 
ROOT
ATOM      1  C9  NON d   1     -41.582  18.678  -5.100  0.00  0.00     0.065 A 
ATOM      2  C10 NON d   1     -42.927  18.235  -4.968  0.00  0.00     0.061 A 
ATOM      3  C11 NON d   1     -43.445  17.698  -3.790  0.00  0.00     0.037 A 
ATOM      4  C19 NON d   1     -42.614  17.630  -2.686  0.00  0.00     0.032 A 
ATOM      5  C20 NON d   1     -41.286  18.050  -2.784  0.00  0.00     0.034 A 
ATOM      6  C21 NON d   1     -40.708  18.592  -3.961  0.00  0.00     0.057 A 
ENDROOT
BRANCH   1   7
ATOM      7  N2  NON d   1     -41.121  19.147  -6.382  0.00  0.00    -0.306 N 
ATOM      8  C1  NON d   1     -41.815  19.880  -7.315  0.00  0.00     0.325 C 
ATOM      9  O1  NON d   1     -42.982  20.255  -7.237  0.00  0.00    -0.247 OA
ATOM     10  N1  NON d   1     -41.192  20.221  -8.485  0.00  0.00    -0.309 N 
ATOM     11  H1  NON d   1     -41.889  20.540  -9.150  0.00  0.00     0.170 HD
ATOM     12  H6  NON d   1     -40.283  18.705  -6.709  0.00  0.00     0.170 HD
BRANCH  10  13
ATOM     13  C2  NON d   1     -39.857  20.402  -8.873  0.00  0.00     0.037 C 
ATOM     14  C3  NON d   1     -38.840  19.550  -8.462  0.00  0.00     0.029 C 
ATOM     15  C4  NON d   1     -37.531  19.732  -8.888  0.00  0.00     0.003 C 
ATOM     16  C5  NON d   1     -37.216  20.851  -9.646  0.00  0.00     0.016 C 
ATOM     17  C6  NON d   1     -38.196  21.817  -9.972  0.00  0.00     0.050 C 
ATOM     18  C8  NON d   1     -39.527  21.562  -9.600  0.00  0.00     0.045 C 
BRANCH  17  19
ATOM     19  C7  NON d   1     -37.596  23.124 -10.524  0.00  0.00     0.417 C 
ATOM     20  F1  NON d   1     -36.996  24.430 -11.075  0.00  0.00    -0.166 F 
ATOM     21  F2  NON d   1     -37.163  22.487 -11.729  0.00  0.00    -0.166 F 
ATOM     22  F3  NON d   1     -38.871  23.663 -10.889  0.00  0.00    -0.166 F 
ENDBRANCH  17  19
ENDBRANCH  10  13
ENDBRANCH   1   7
BRANCH   6  23
ATOM     23  N4  NON d   1     -39.357  18.959  -3.905  0.00  0.00    -0.379 N 
ATOM     24  C22 NON d   1     -38.469  18.775  -5.068  0.00  0.00     0.123 C 
ATOM     25  C23 NON d   1     -37.108  19.249  -4.585  0.00  0.00     0.021 C 
ATOM     26  C24 NON d   1     -37.092  18.774  -3.149  0.00  0.00     0.021 C 
ATOM     27  C25 NON d   1     -38.544  18.920  -2.693  0.00  0.00     0.123 C 
ENDBRANCH   6  23
BRANCH   3  28
ATOM     28  N3  NON d   1     -44.758  17.193  -3.632  0.00  0.00    -0.323 N 
ATOM     29  C12 NON d   1     -45.712  17.005  -4.619  0.00  0.00     0.256 C 
ATOM     30  O2  NON d   1     -45.565  17.255  -5.810  0.00  0.00    -0.267 OA
ATOM     31  H8  NON d   1     -44.981  16.895  -2.697  0.00  0.00     0.169 HD
BRANCH  29  32
ATOM     32  C13 NON d   1     -47.030  16.421  -4.195  0.00  0.00     0.032 A 
ATOM     33  C14 NON d   1     -47.572  16.873  -2.977  0.00  0.00     0.020 A 
ATOM     34  C15 NON d   1     -48.802  16.397  -2.515  0.00  0.00     0.043 A 
ATOM     35  C16 NON d   1     -49.497  15.464  -3.272  0.00  0.00     0.116 A 
ATOM     36  F4  NON d   1     -50.676  15.004  -2.835  0.00  0.00    -0.206 F 
ATOM     37  C17 NON d   1     -48.986  15.005  -4.481  0.00  0.00     0.043 A 
ATOM     38  C18 NON d   1     -47.756  15.484  -4.949  0.00  0.00     0.020 A 
ENDBRANCH  29  32
ENDBRANCH   3  28
TORSDOF 6
ENDMDL
MODEL 6
REMARK VINA RESULT:   -12.148      4.200      5.803
REMARK INTER + INTRA:         -15.579
REMARK INTER:                 -13.938
REMARK INTRA:                  -1.640
REMARK CONF_INDEPENDENT:        1.790
REMARK UNBOUND:                -1.640
REMARK  6 active torsions:
REMARK  status: ('A' for Active; 'I' for Inactive)
REMARK       I    between atoms: C1_2  and  N1_3 
REMARK       I    between atoms: C1_2  and  N2_14 
REMARK    1  A    between atoms: N1_3  and  C2_4 
REMARK    2  A    between atoms: C6_8  and  C7_9 
REMARK    3  A    between atoms: N2_14  and  C9_15 
REMARK    4  A    between atoms: C11_17  and  N3_18 
REMARK       I    between atoms: N3_18  and  C12_19 
REMARK    5  A    between atoms: C12_19  and  C13_21 
REMARK    6  A    between atoms: C21_30  and  N4_31 
ROOT
ATOM      1  C9  NON d   1     -41.797  19.025  -4.789  0.00  0.00     0.065 A 
ATOM      2  C10 NON d   1     -43.173  18.709  -4.616  0.00  0.00     0.061 A 
ATOM      3  C11 NON d   1     -43.623  17.639  -3.844  0.00  0.00     0.037 A 
ATOM      4  C19 NON d   1     -42.680  16.871  -3.185  0.00  0.00     0.032 A 
ATOM      5  C20 NON d   1     -41.321  17.149  -3.339  0.00  0.00     0.034 A 
ATOM      6  C21 NON d   1     -40.811  18.218  -4.122  0.00  0.00     0.057 A 
ENDROOT
BRANCH   1   7
ATOM      7  N2  NON d   1     -41.431  20.105  -5.668  0.00  0.00    -0.306 N 
ATOM      8  C1  NON d   1     -40.978  21.358  -5.328  0.00  0.00     0.325 C 
ATOM      9  O1  NON d   1     -40.822  21.801  -4.194  0.00  0.00    -0.247 OA
ATOM     10  N1  NON d   1     -40.690  22.250  -6.325  0.00  0.00    -0.309 N 
ATOM     11  H1  NON d   1     -40.604  23.178  -5.923  0.00  0.00     0.170 HD
ATOM     12  H6  NON d   1     -41.749  19.997  -6.613  0.00  0.00     0.170 HD
BRANCH  10  13
ATOM     13  C2  NON d   1     -40.316  22.136  -7.671  0.00  0.00     0.037 C 
ATOM     14  C3  NON d   1     -39.834  20.951  -8.212  0.00  0.00     0.029 C 
ATOM     15  C4  NON d   1     -39.502  20.855  -9.558  0.00  0.00     0.003 C 
ATOM     16  C5  NON d   1     -39.548  21.995 -10.348  0.00  0.00     0.016 C 
ATOM     17  C6  NON d   1     -39.903  23.251  -9.805  0.00  0.00     0.050 C 
ATOM     18  C8  NON d   1     -40.315  23.300  -8.462  0.00  0.00     0.045 C 
BRANCH  17  19
ATOM     19  C7  NON d   1     -39.580  24.428 -10.745  0.00  0.00     0.417 C 
ATOM     20  F1  NON d   1     -39.258  25.604 -11.685  0.00  0.00    -0.166 F 
ATOM     21  F2  NON d   1     -40.875  24.378 -11.350  0.00  0.00    -0.166 F 
ATOM     22  F3  NON d   1     -39.746  25.413  -9.719  0.00  0.00    -0.166 F 
ENDBRANCH  17  19
ENDBRANCH  10  13
ENDBRANCH   1   7
BRANCH   6  23
ATOM     23  N4  NON d   1     -39.419  18.363  -4.186  0.00  0.00    -0.379 N 
ATOM     24  C22 NON d   1     -38.613  18.521  -2.960  0.00  0.00     0.123 C 
ATOM     25  C23 NON d   1     -37.188  18.685  -3.462  0.00  0.00     0.021 C 
ATOM     26  C24 NON d   1     -37.381  19.501  -4.721  0.00  0.00     0.021 C 
ATOM     27  C25 NON d   1     -38.707  18.996  -5.291  0.00  0.00     0.123 C 
ENDBRANCH   6  23
BRANCH   3  28
ATOM     28  N3  NON d   1     -44.977  17.255  -3.692  0.00  0.00    -0.323 N 
ATOM     29  C12 NON d   1     -45.808  16.700  -4.651  0.00  0.00     0.256 C 
ATOM     30  O2  NON d   1     -45.493  16.452  -5.810  0.00  0.00    -0.267 OA
ATOM     31  H8  NON d   1     -45.337  17.357  -2.758  0.00  0.00     0.169 HD
BRANCH  29  32
ATOM     32  C13 NON d   1     -47.206  16.350  -4.228  0.00  0.00     0.032 A 
ATOM     33  C14 NON d   1     -47.896  15.403  -5.008  0.00  0.00     0.020 A 
ATOM     34  C15 NON d   1     -49.194  15.005  -4.676  0.00  0.00     0.043 A 
ATOM     35  C16 NON d   1     -49.809  15.554  -3.560  0.00  0.00     0.116 A 
ATOM     36  F4  NON d   1     -51.052  15.177  -3.237  0.00  0.00    -0.206 F 
ATOM     37  C17 NON d   1     -49.147  16.488  -2.770  0.00  0.00     0.043 A 
ATOM     38  C18 NON d   1     -47.845  16.885  -3.097  0.00  0.00     0.020 A 
ENDBRANCH  29  32
ENDBRANCH   3  28
TORSDOF 6
ENDMDL
MODEL 7
REMARK VINA RESULT:   -12.096      3.882      4.980
REMARK INTER + INTRA:         -15.769
REMARK INTER:                 -13.886
REMARK INTRA:                  -1.883
REMARK CONF_INDEPENDENT:        1.790
REMARK UNBOUND:                -1.883
REMARK  6 active torsions:
REMARK  status: ('A' for Active; 'I' for Inactive)
REMARK       I    between atoms: C1_2  and  N1_3 
REMARK       I    between atoms: C1_2  and  N2_14 
REMARK    1  A    between atoms: N1_3  and  C2_4 
REMARK    2  A    between atoms: C6_8  and  C7_9 
REMARK    3  A    between atoms: N2_14  and  C9_15 
REMARK    4  A    between atoms: C11_17  and  N3_18 
REMARK       I    between atoms: N3_18  and  C12_19 
REMARK    5  A    between atoms: C12_19  and  C13_21 
REMARK    6  A    between atoms: C21_30  and  N4_31 
ROOT
ATOM      1  C9  NON d   1     -41.863  19.589  -5.203  0.00  0.00     0.065 A 
ATOM      2  C10 NON d   1     -43.144  19.252  -4.684  0.00  0.00     0.061 A 
ATOM      3  C11 NON d   1     -43.673  17.963  -4.725  0.00  0.00     0.037 A 
ATOM      4  C19 NON d   1     -42.892  16.957  -5.265  0.00  0.00     0.032 A 
ATOM      5  C20 NON d   1     -41.633  17.254  -5.789  0.00  0.00     0.034 A 
ATOM      6  C21 NON d   1     -41.054  18.551  -5.783  0.00  0.00     0.057 A 
ENDROOT
BRANCH   1   7
ATOM      7  N2  NON d   1     -41.438  20.965  -5.182  0.00  0.00    -0.306 N 
ATOM      8  C1  NON d   1     -40.866  21.659  -4.142  0.00  0.00     0.325 C 
ATOM      9  O1  NON d   1     -40.631  21.234  -3.014  0.00  0.00    -0.247 OA
ATOM     10  N1  NON d   1     -40.539  22.975  -4.326  0.00  0.00    -0.309 N 
ATOM     11  H1  NON d   1     -40.359  23.400  -3.422  0.00  0.00     0.170 HD
ATOM     12  H6  NON d   1     -41.799  21.522  -5.933  0.00  0.00     0.170 HD
BRANCH  10  13
ATOM     13  C2  NON d   1     -40.228  23.766  -5.440  0.00  0.00     0.037 C 
ATOM     14  C3  NON d   1     -40.314  25.152  -5.418  0.00  0.00     0.029 C 
ATOM     15  C4  NON d   1     -39.967  25.914  -6.526  0.00  0.00     0.003 C 
ATOM     16  C5  NON d   1     -39.636  25.273  -7.711  0.00  0.00     0.016 C 
ATOM     17  C6  NON d   1     -39.668  23.862  -7.816  0.00  0.00     0.050 C 
ATOM     18  C8  NON d   1     -39.940  23.118  -6.656  0.00  0.00     0.045 C 
BRANCH  17  19
ATOM     19  C7  NON d   1     -39.594  23.364  -9.272  0.00  0.00     0.417 C 
ATOM     20  F1  NON d   1     -39.520  22.865 -10.726  0.00  0.00    -0.166 F 
ATOM     21  F2  NON d   1     -40.261  22.140  -8.950  0.00  0.00    -0.166 F 
ATOM     22  F3  NON d   1     -40.666  24.205  -9.711  0.00  0.00    -0.166 F 
ENDBRANCH  17  19
ENDBRANCH  10  13
ENDBRANCH   1   7
BRANCH   6  23
ATOM     23  N4  NON d   1     -39.784  18.692  -6.357  0.00  0.00    -0.379 N 
ATOM     24  C22 NON d   1     -38.643  19.193  -5.567  0.00  0.00     0.123 C 
ATOM     25  C23 NON d   1     -37.488  19.233  -6.553  0.00  0.00     0.021 C 
ATOM     26  C24 NON d   1     -38.170  19.668  -7.832  0.00  0.00     0.021 C 
ATOM     27  C25 NON d   1     -39.547  19.007  -7.762  0.00  0.00     0.123 C 
ENDBRANCH   6  23
BRANCH   3  28
ATOM     28  N3  NON d   1     -44.963  17.595  -4.273  0.00  0.00    -0.323 N 
ATOM     29  C12 NON d   1     -45.808  16.645  -4.823  0.00  0.00     0.256 C 
ATOM     30  O2  NON d   1     -45.565  15.960  -5.810  0.00  0.00    -0.267 OA
ATOM     31  H8  NON d   1     -45.254  18.052  -3.425  0.00  0.00     0.169 HD
BRANCH  29  32
ATOM     32  C13 NON d   1     -47.123  16.418  -4.133  0.00  0.00     0.032 A 
ATOM     33  C14 NON d   1     -48.072  15.622  -4.804  0.00  0.00     0.020 A 
ATOM     34  C15 NON d   1     -49.315  15.344  -4.229  0.00  0.00     0.043 A 
ATOM     35  C16 NON d   1     -49.615  15.862  -2.977  0.00  0.00     0.116 A 
ATOM     36  F4  NON d   1     -50.804  15.600  -2.420  0.00  0.00    -0.206 F 
ATOM     37  C17 NON d   1     -48.694  16.647  -2.292  0.00  0.00     0.043 A 
ATOM     38  C18 NON d   1     -47.446  16.923  -2.863  0.00  0.00     0.020 A 
ENDBRANCH  29  32
ENDBRANCH   3  28
TORSDOF 6
ENDMDL
MODEL 8
REMARK VINA RESULT:   -10.227      3.657      5.328
REMARK INTER + INTRA:         -13.475
REMARK INTER:                 -12.017
REMARK INTRA:                  -1.458
REMARK CONF_INDEPENDENT:        1.790
REMARK UNBOUND:                -1.458
REMARK  6 active torsions:
REMARK  status: ('A' for Active; 'I' for Inactive)
REMARK       I    between atoms: C1_2  and  N1_3 
REMARK       I    between atoms: C1_2  and  N2_14 
REMARK    1  A    between atoms: N1_3  and  C2_4 
REMARK    2  A    between atoms: C6_8  and  C7_9 
REMARK    3  A    between atoms: N2_14  and  C9_15 
REMARK    4  A    between atoms: C11_17  and  N3_18 
REMARK       I    between atoms: N3_18  and  C12_19 
REMARK    5  A    between atoms: C12_19  and  C13_21 
REMARK    6  A    between atoms: C21_30  and  N4_31 
ROOT
ATOM      1  C9  NON d   1     -40.690  18.850  -5.050  0.00  0.00     0.065 A 
ATOM      2  C10 NON d   1     -42.040  18.403  -5.006  0.00  0.00     0.061 A 
ATOM      3  C11 NON d   1     -42.589  17.728  -3.916  0.00  0.00     0.037 A 
ATOM      4  C19 NON d   1     -41.786  17.518  -2.810  0.00  0.00     0.032 A 
ATOM      5  C20 NON d   1     -40.455  17.938  -2.823  0.00  0.00     0.034 A 
ATOM      6  C21 NON d   1     -39.845  18.618  -3.910  0.00  0.00     0.057 A 
ENDROOT
BRANCH   1   7
ATOM      7  N2  NON d   1     -40.197  19.471  -6.252  0.00  0.00    -0.306 N 
ATOM      8  C1  NON d   1     -39.899  18.873  -7.453  0.00  0.00     0.325 C 
ATOM      9  O1  NON d   1     -39.977  17.677  -7.720  0.00  0.00    -0.247 OA
ATOM     10  N1  NON d   1     -39.429  19.647  -8.480  0.00  0.00    -0.309 N 
ATOM     11  H1  NON d   1     -39.038  19.044  -9.197  0.00  0.00     0.170 HD
ATOM     12  H6  NON d   1     -39.830  20.395  -6.122  0.00  0.00     0.170 HD
BRANCH  10  13
ATOM     13  C2  NON d   1     -39.543  21.001  -8.823  0.00  0.00     0.037 C 
ATOM     14  C3  NON d   1     -39.414  21.451 -10.131  0.00  0.00     0.029 C 
ATOM     15  C4  NON d   1     -39.565  22.795 -10.449  0.00  0.00     0.003 C 
ATOM     16  C5  NON d   1     -39.734  23.717  -9.425  0.00  0.00     0.016 C 
ATOM     17  C6  NON d   1     -39.735  23.317  -8.069  0.00  0.00     0.050 C 
ATOM     18  C8  NON d   1     -39.666  21.943  -7.784  0.00  0.00     0.045 C 
BRANCH  17  19
ATOM     19  C7  NON d   1     -39.605  24.499  -7.090  0.00  0.00     0.417 C 
ATOM     20  F1  NON d   1     -39.476  25.682  -6.113  0.00  0.00    -0.166 F 
ATOM     21  F2  NON d   1     -40.636  25.237  -7.752  0.00  0.00    -0.166 F 
ATOM     22  F3  NON d   1     -40.315  23.830  -6.043  0.00  0.00    -0.166 F 
ENDBRANCH  17  19
ENDBRANCH  10  13
ENDBRANCH   1   7
BRANCH   6  23
ATOM     23  N4  NON d   1     -38.495  18.966  -3.776  0.00  0.00    -0.379 N 
ATOM     24  C22 NON d   1     -37.517  18.645  -4.833  0.00  0.00     0.123 C 
ATOM     25  C23 NON d   1     -36.190  19.145  -4.287  0.00  0.00     0.021 C 
ATOM     26  C24 NON d   1     -36.306  18.825  -2.813  0.00  0.00     0.021 C 
ATOM     27  C25 NON d   1     -37.787  19.044  -2.501  0.00  0.00     0.123 C 
ENDBRANCH   6  23
BRANCH   3  28
ATOM     28  N3  NON d   1     -43.907  17.216  -3.854  0.00  0.00    -0.323 N 
ATOM     29  C12 NON d   1     -44.989  17.577  -4.640  0.00  0.00     0.256 C 
ATOM     30  O2  NON d   1     -44.973  18.417  -5.533  0.00  0.00    -0.267 OA
ATOM     31  H8  NON d   1     -44.034  16.470  -3.191  0.00  0.00     0.169 HD
BRANCH  29  32
ATOM     32  C13 NON d   1     -46.285  16.858  -4.395  0.00  0.00     0.032 A 
ATOM     33  C14 NON d   1     -46.808  16.095  -5.457  0.00  0.00     0.020 A 
ATOM     34  C15 NON d   1     -48.000  15.380  -5.310  0.00  0.00     0.043 A 
ATOM     35  C16 NON d   1     -48.675  15.424  -4.098  0.00  0.00     0.116 A 
ATOM     36  F4  NON d   1     -49.816  14.741  -3.951  0.00  0.00    -0.206 F 
ATOM     37  C17 NON d   1     -48.176  16.165  -3.033  0.00  0.00     0.043 A 
ATOM     38  C18 NON d   1     -46.980  16.879  -3.175  0.00  0.00     0.020 A 
ENDBRANCH  29  32
ENDBRANCH   3  28
TORSDOF 6
ENDMDL
MODEL 9
REMARK VINA RESULT:   -10.150      5.042      6.601
REMARK INTER + INTRA:         -13.327
REMARK INTER:                 -11.940
REMARK INTRA:                  -1.387
REMARK CONF_INDEPENDENT:        1.790
REMARK UNBOUND:                -1.387
REMARK  6 active torsions:
REMARK  status: ('A' for Active; 'I' for Inactive)
REMARK       I    between atoms: C1_2  and  N1_3 
REMARK       I    between atoms: C1_2  and  N2_14 
REMARK    1  A    between atoms: N1_3  and  C2_4 
REMARK    2  A    between atoms: C6_8  and  C7_9 
REMARK    3  A    between atoms: N2_14  and  C9_15 
REMARK    4  A    between atoms: C11_17  and  N3_18 
REMARK       I    between atoms: N3_18  and  C12_19 
REMARK    5  A    between atoms: C12_19  and  C13_21 
REMARK    6  A    between atoms: C21_30  and  N4_31 
ROOT
ATOM      1  C9  NON d   1     -40.877  19.076  -5.131  0.00  0.00     0.065 A 
ATOM      2  C10 NON d   1     -42.261  18.750  -5.072  0.00  0.00     0.061 A 
ATOM      3  C11 NON d   1     -42.849  18.096  -3.991  0.00  0.00     0.037 A 
ATOM      4  C19 NON d   1     -42.049  17.784  -2.906  0.00  0.00     0.032 A 
ATOM      5  C20 NON d   1     -40.686  18.083  -2.934  0.00  0.00     0.034 A 
ATOM      6  C21 NON d   1     -40.037  18.737  -4.015  0.00  0.00     0.057 A 
ENDROOT
BRANCH   1   7
ATOM      7  N2  NON d   1     -40.351  19.684  -6.326  0.00  0.00    -0.306 N 
ATOM      8  C1  NON d   1     -39.949  19.064  -7.485  0.00  0.00     0.325 C 
ATOM      9  O1  NON d   1     -39.942  17.857  -7.710  0.00  0.00    -0.247 OA
ATOM     10  N1  NON d   1     -39.466  19.830  -8.511  0.00  0.00    -0.309 N 
ATOM     11  H1  NON d   1     -38.998  19.227  -9.182  0.00  0.00     0.170 HD
ATOM     12  H6  NON d   1     -40.047  20.632  -6.210  0.00  0.00     0.170 HD
BRANCH  10  13
ATOM     13  C2  NON d   1     -39.637  21.162  -8.911  0.00  0.00     0.037 C 
ATOM     14  C3  NON d   1     -40.182  22.127  -8.072  0.00  0.00     0.029 C 
ATOM     15  C4  NON d   1     -40.310  23.448  -8.481  0.00  0.00     0.003 C 
ATOM     16  C5  NON d   1     -39.993  23.784  -9.790  0.00  0.00     0.016 C 
ATOM     17  C6  NON d   1     -39.564  22.805 -10.717  0.00  0.00     0.050 C 
ATOM     18  C8  NON d   1     -39.363  21.495 -10.251  0.00  0.00     0.045 C 
BRANCH  17  19
ATOM     19  C7  NON d   1     -39.580  23.306 -12.174  0.00  0.00     0.417 C 
ATOM     20  F1  NON d   1     -39.595  23.806 -13.629  0.00  0.00    -0.166 F 
ATOM     21  F2  NON d   1     -38.206  22.963 -12.370  0.00  0.00    -0.166 F 
ATOM     22  F3  NON d   1     -40.269  22.149 -12.661  0.00  0.00    -0.166 F 
ENDBRANCH  17  19
ENDBRANCH  10  13
ENDBRANCH   1   7
BRANCH   6  23
ATOM     23  N4  NON d   1     -38.658  18.959  -3.898  0.00  0.00    -0.379 N 
ATOM     24  C22 NON d   1     -37.802  19.071  -5.093  0.00  0.00     0.123 C 
ATOM     25  C23 NON d   1     -36.400  19.263  -4.539  0.00  0.00     0.021 C 
ATOM     26  C24 NON d   1     -36.410  18.370  -3.318  0.00  0.00     0.021 C 
ATOM     27  C25 NON d   1     -37.840  18.486  -2.786  0.00  0.00     0.123 C 
ENDBRANCH   6  23
BRANCH   3  28
ATOM     28  N3  NON d   1     -44.207  17.702  -3.915  0.00  0.00    -0.323 N 
ATOM     29  C12 NON d   1     -44.858  16.771  -4.708  0.00  0.00     0.256 C 
ATOM     30  O2  NON d   1     -44.349  16.130  -5.620  0.00  0.00    -0.267 OA
ATOM     31  H8  NON d   1     -44.721  18.121  -3.159  0.00  0.00     0.169 HD
BRANCH  29  32
ATOM     32  C13 NON d   1     -46.305  16.507  -4.405  0.00  0.00     0.032 A 
ATOM     33  C14 NON d   1     -46.780  16.897  -3.138  0.00  0.00     0.020 A 
ATOM     34  C15 NON d   1     -48.116  16.706  -2.778  0.00  0.00     0.043 A 
ATOM     35  C16 NON d   1     -48.987  16.121  -3.687  0.00  0.00     0.116 A 
ATOM     36  F4  NON d   1     -50.269  15.935  -3.349  0.00  0.00    -0.206 F 
ATOM     37  C17 NON d   1     -48.546  15.731  -4.946  0.00  0.00     0.043 A 
ATOM     38  C18 NON d   1     -47.208  15.926  -5.311  0.00  0.00     0.020 A 
ENDBRANCH  29  32
ENDBRANCH   3  28
TORSDOF 6
ENDMDL
