MODEL 1
REMARK VINA RESULT:    -9.134      0.000      0.000
REMARK INTER + INTRA:         -11.658
REMARK INTER:                 -10.923
REMARK INTRA:                  -0.735
REMARK CONF_INDEPENDENT:        1.790
REMARK UNBOUND:                -0.735
REMARK  6 active torsions:
REMARK  status: ('A' for Active; 'I' for Inactive)
REMARK    1  A    between atoms: C2_2  and  O1_3 
REMARK    2  A    between atoms: O1_3  and  C3_4 
REMARK    3  A    between atoms: C3_4  and  C4_6 
REMARK    4  A    between atoms: C7_9  and  N1_10 
REMARK       I    between atoms: N1_10  and  C8_11 
REMARK       I    between atoms: C8_11  and  N2_13 
REMARK    5  A    between atoms: N2_13  and  C9_14 
REMARK    6  A    between atoms: C13_18  and  C12_17 
ROOT
ATOM      1  C9  NON d   1     -42.364  18.324  -5.372  0.00  0.00     0.036 A 
ATOM      2  C10 NON d   1     -42.747  19.506  -6.019  0.00  0.00     0.030 A 
ATOM      3  C11 NON d   1     -41.910  20.116  -6.982  0.00  0.00     0.016 A 
ATOM      4  C12 NON d   1     -40.667  19.563  -7.322  0.00  0.00    -0.009 A 
ATOM      5  C21 NON d   1     -40.296  18.388  -6.660  0.00  0.00     0.016 A 
ATOM      6  C22 NON d   1     -41.124  17.784  -5.707  0.00  0.00     0.030 A 
ENDROOT
BRANCH   1   7
ATOM      7  N2  NON d   1     -43.235  17.738  -4.409  0.00  0.00    -0.309 N 
ATOM      8  C8  NON d   1     -44.624  17.672  -4.499  0.00  0.00     0.325 C 
ATOM      9  N1  NON d   1     -45.196  16.968  -3.445  0.00  0.00    -0.309 N 
ATOM     10  O3  NON d   1     -45.276  18.172  -5.408  0.00  0.00    -0.247 OA
ATOM     11  H8  NON d   1     -44.585  16.673  -2.700  0.00  0.00     0.170 HD
ATOM     12  H9  NON d   1     -42.797  17.380  -3.575  0.00  0.00     0.170 HD
BRANCH   9  13
ATOM     13  C7  NON d   1     -46.579  16.660  -3.297  0.00  0.00     0.036 A 
ATOM     14  C6  NON d   1     -47.161  15.760  -4.190  0.00  0.00     0.030 A 
ATOM     15  C5  NON d   1     -48.539  15.427  -4.115  0.00  0.00     0.020 A 
ATOM     16  C4  NON d   1     -49.396  15.979  -3.149  0.00  0.00     0.039 A 
ATOM     17  C24 NON d   1     -48.781  16.876  -2.254  0.00  0.00     0.020 A 
ATOM     18  C23 NON d   1     -47.411  17.209  -2.323  0.00  0.00     0.030 A 
BRANCH  16  19
ATOM     19  C3  NON d   1     -50.907  15.775  -2.944  0.00  0.00     0.293 C 
ATOM     20  O2  NON d   1     -51.350  14.650  -3.186  0.00  0.00    -0.259 OA
BRANCH  19  21
ATOM     21  O1  NON d   1     -51.811  16.713  -2.514  0.00  0.00    -0.318 OA
BRANCH  21  22
ATOM     22  C2  NON d   1     -53.183  16.414  -2.456  0.00  0.00     0.174 C 
ATOM     23  C1  NON d   1     -54.169  17.308  -1.681  0.00  0.00     0.034 C 
ENDBRANCH  21  22
ENDBRANCH  19  21
ENDBRANCH  16  19
ENDBRANCH   9  13
ENDBRANCH   1   7
BRANCH   4  24
ATOM     24  C13 NON d   1     -39.773  20.177  -8.324  0.00  0.00     0.043 A 
ATOM     25  C14 NON d   1     -39.901  21.308  -9.120  0.00  0.00     0.044 A 
ATOM     26  C15 NON d   1     -38.729  21.449  -9.924  0.00  0.00    -0.006 A 
ATOM     27  C16 NON d   1     -38.297  22.377 -10.895  0.00  0.00     0.037 A 
ATOM     28  C20 NON d   1     -37.892  20.388  -9.604  0.00  0.00     0.043 A 
ATOM     29  C17 NON d   1     -37.045  22.192 -11.497  0.00  0.00     0.035 A 
ATOM     30 Cl1  NON d   1     -36.502  23.317 -12.686  0.00  0.00    -0.084 Cl
ATOM     31  C18 NON d   1     -36.228  21.118 -11.155  0.00  0.00     0.026 A 
ATOM     32  C19 NON d   1     -36.639  20.190 -10.197  0.00  0.00     0.032 A 
ATOM     33  N3  NON d   1     -38.540  19.645  -8.649  0.00  0.00    -0.355 N 
ATOM     34  H16 NON d   1     -38.143  18.810  -8.243  0.00  0.00     0.166 HD
ENDBRANCH   4  24
TORSDOF 6
ENDMDL
MODEL 2
REMARK VINA RESULT:    -7.534      5.085     12.925
REMARK INTER + INTRA:         -10.131
REMARK INTER:                  -9.324
REMARK INTRA:                  -0.807
REMARK CONF_INDEPENDENT:        1.790
REMARK UNBOUND:                -0.807
REMARK  6 active torsions:
REMARK  status: ('A' for Active; 'I' for Inactive)
REMARK    1  A    between atoms: C2_2  and  O1_3 
REMARK    2  A    between atoms: O1_3  and  C3_4 
REMARK    3  A    between atoms: C3_4  and  C4_6 
REMARK    4  A    between atoms: C7_9  and  N1_10 
REMARK       I    between atoms: N1_10  and  C8_11 
REMARK       I    between atoms: C8_11  and  N2_13 
REMARK    5  A    between atoms: N2_13  and  C9_14 
REMARK    6  A    between atoms: C13_18  and  C12_17 
ROOT
ATOM      1  C9  NON d   1     -41.595  18.681  -5.871  0.00  0.00     0.036 A 
ATOM      2  C10 NON d   1     -41.745  17.359  -5.431  0.00  0.00     0.030 A 
ATOM      3  C11 NON d   1     -42.995  16.879  -4.973  0.00  0.00     0.016 A 
ATOM      4  C12 NON d   1     -44.126  17.707  -4.940  0.00  0.00    -0.009 A 
ATOM      5  C21 NON d   1     -43.957  19.026  -5.374  0.00  0.00     0.016 A 
ATOM      6  C22 NON d   1     -42.720  19.501  -5.826  0.00  0.00     0.030 A 
ENDROOT
BRANCH   1   7
ATOM      7  N2  NON d   1     -40.322  19.128  -6.326  0.00  0.00    -0.309 N 
ATOM      8  C8  NON d   1     -40.059  19.721  -7.559  0.00  0.00     0.325 C 
ATOM      9  N1  NON d   1     -38.734  20.126  -7.687  0.00  0.00    -0.309 N 
ATOM     10  O3  NON d   1     -40.899  19.877  -8.437  0.00  0.00    -0.247 OA
ATOM     11  H8  NON d   1     -38.100  19.873  -6.947  0.00  0.00     0.170 HD
ATOM     12  H9  NON d   1     -39.545  18.957  -5.707  0.00  0.00     0.170 HD
BRANCH   9  13
ATOM     13  C7  NON d   1     -38.179  20.833  -8.792  0.00  0.00     0.036 A 
ATOM     14  C6  NON d   1     -39.030  21.592  -9.595  0.00  0.00     0.030 A 
ATOM     15  C5  NON d   1     -38.547  22.301 -10.725  0.00  0.00     0.020 A 
ATOM     16  C4  NON d   1     -37.195  22.282 -11.105  0.00  0.00     0.039 A 
ATOM     17  C24 NON d   1     -36.356  21.516 -10.273  0.00  0.00     0.020 A 
ATOM     18  C23 NON d   1     -36.831  20.811  -9.147  0.00  0.00     0.030 A 
BRANCH  16  19
ATOM     19  C3  NON d   1     -36.503  22.943 -12.311  0.00  0.00     0.293 C 
ATOM     20  O2  NON d   1     -36.192  24.130 -12.186  0.00  0.00    -0.259 OA
BRANCH  19  21
ATOM     21  O1  NON d   1     -36.190  22.347 -13.506  0.00  0.00    -0.318 OA
BRANCH  21  22
ATOM     22  C2  NON d   1     -36.911  21.230 -13.962  0.00  0.00     0.174 C 
ATOM     23  C1  NON d   1     -36.430  19.794 -13.683  0.00  0.00     0.034 C 
ENDBRANCH  21  22
ENDBRANCH  19  21
ENDBRANCH  16  19
ENDBRANCH   9  13
ENDBRANCH   1   7
BRANCH   4  24
ATOM     24  C13 NON d   1     -45.443  17.233  -4.469  0.00  0.00     0.043 A 
ATOM     25  C14 NON d   1     -46.507  16.629  -5.127  0.00  0.00     0.044 A 
ATOM     26  C15 NON d   1     -47.553  16.373  -4.190  0.00  0.00    -0.006 A 
ATOM     27  C16 NON d   1     -48.837  15.797  -4.268  0.00  0.00     0.037 A 
ATOM     28  C20 NON d   1     -47.106  16.830  -2.956  0.00  0.00     0.043 A 
ATOM     29  C17 NON d   1     -49.611  15.708  -3.104  0.00  0.00     0.035 A 
ATOM     30 Cl1  NON d   1     -51.185  15.006  -3.182  0.00  0.00    -0.084 Cl
ATOM     31  C18 NON d   1     -49.137  16.174  -1.881  0.00  0.00     0.026 A 
ATOM     32  C19 NON d   1     -47.868  16.748  -1.783  0.00  0.00     0.032 A 
ATOM     33  N3  NON d   1     -45.846  17.338  -3.152  0.00  0.00    -0.355 N 
ATOM     34  H16 NON d   1     -45.296  17.737  -2.407  0.00  0.00     0.166 HD
ENDBRANCH   4  24
TORSDOF 6
ENDMDL
MODEL 3
REMARK VINA RESULT:    -7.420      2.387      3.024
REMARK INTER + INTRA:          -9.992
REMARK INTER:                  -9.210
REMARK INTRA:                  -0.782
REMARK CONF_INDEPENDENT:        1.790
REMARK UNBOUND:                -0.782
REMARK  6 active torsions:
REMARK  status: ('A' for Active; 'I' for Inactive)
REMARK    1  A    between atoms: C2_2  and  O1_3 
REMARK    2  A    between atoms: O1_3  and  C3_4 
REMARK    3  A    between atoms: C3_4  and  C4_6 
REMARK    4  A    between atoms: C7_9  and  N1_10 
REMARK       I    between atoms: N1_10  and  C8_11 
REMARK       I    between atoms: C8_11  and  N2_13 
REMARK    5  A    between atoms: N2_13  and  C9_14 
REMARK    6  A    between atoms: C13_18  and  C12_17 
ROOT
ATOM      1  C9  NON d   1     -41.609  19.928  -5.759  0.00  0.00     0.036 A 
ATOM      2  C10 NON d   1     -41.592  19.879  -7.159  0.00  0.00     0.030 A 
ATOM      3  C11 NON d   1     -40.924  20.870  -7.916  0.00  0.00     0.016 A 
ATOM      4  C12 NON d   1     -40.258  21.936  -7.295  0.00  0.00    -0.009 A 
ATOM      5  C21 NON d   1     -40.292  21.974  -5.897  0.00  0.00     0.016 A 
ATOM      6  C22 NON d   1     -40.954  20.994  -5.148  0.00  0.00     0.030 A 
ENDROOT
BRANCH   1   7
ATOM      7  N2  NON d   1     -42.291  18.912  -5.031  0.00  0.00    -0.309 N 
ATOM      8  C8  NON d   1     -43.650  18.615  -5.123  0.00  0.00     0.325 C 
ATOM      9  N1  NON d   1     -44.012  17.517  -4.350  0.00  0.00    -0.309 N 
ATOM     10  O3  NON d   1     -44.443  19.245  -5.812  0.00  0.00    -0.247 OA
ATOM     11  H8  NON d   1     -43.307  17.121  -3.749  0.00  0.00     0.170 HD
ATOM     12  H9  NON d   1     -41.739  18.397  -4.363  0.00  0.00     0.170 HD
BRANCH   9  13
ATOM     13  C7  NON d   1     -45.305  16.921  -4.297  0.00  0.00     0.036 A 
ATOM     14  C6  NON d   1     -45.784  16.264  -5.431  0.00  0.00     0.030 A 
ATOM     15  C5  NON d   1     -47.072  15.669  -5.454  0.00  0.00     0.020 A 
ATOM     16  C4  NON d   1     -47.940  15.706  -4.350  0.00  0.00     0.039 A 
ATOM     17  C24 NON d   1     -47.428  16.367  -3.216  0.00  0.00     0.020 A 
ATOM     18  C23 NON d   1     -46.147  16.958  -3.187  0.00  0.00     0.030 A 
BRANCH  16  19
ATOM     19  C3  NON d   1     -49.373  15.164  -4.207  0.00  0.00     0.293 C 
ATOM     20  O2  NON d   1     -49.861  14.626  -5.203  0.00  0.00    -0.259 OA
BRANCH  19  21
ATOM     21  O1  NON d   1     -50.160  15.212  -3.084  0.00  0.00    -0.318 OA
BRANCH  21  22
ATOM     22  C2  NON d   1     -50.594  16.443  -2.564  0.00  0.00     0.174 C 
ATOM     23  C1  NON d   1     -52.091  16.779  -2.435  0.00  0.00     0.034 C 
ENDBRANCH  21  22
ENDBRANCH  19  21
ENDBRANCH  16  19
ENDBRANCH   9  13
ENDBRANCH   1   7
BRANCH   4  24
ATOM     24  C13 NON d   1     -39.551  22.983  -8.059  0.00  0.00     0.043 A 
ATOM     25  C14 NON d   1     -38.911  22.967  -9.292  0.00  0.00     0.044 A 
ATOM     26  C15 NON d   1     -38.386  24.266  -9.564  0.00  0.00    -0.006 A 
ATOM     27  C16 NON d   1     -37.660  24.842 -10.628  0.00  0.00     0.037 A 
ATOM     28  C20 NON d   1     -38.716  25.068  -8.479  0.00  0.00     0.043 A 
ATOM     29  C17 NON d   1     -37.302  26.194 -10.549  0.00  0.00     0.035 A 
ATOM     30 Cl1  NON d   1     -36.415  26.912 -11.842  0.00  0.00    -0.084 Cl
ATOM     31  C18 NON d   1     -37.647  26.972  -9.448  0.00  0.00     0.026 A 
ATOM     32  C19 NON d   1     -38.365  26.421  -8.385  0.00  0.00     0.032 A 
ATOM     33  N3  NON d   1     -39.409  24.277  -7.596  0.00  0.00    -0.355 N 
ATOM     34  H16 NON d   1     -39.765  24.621  -6.717  0.00  0.00     0.166 HD
ENDBRANCH   4  24
TORSDOF 6
ENDMDL
MODEL 4
REMARK VINA RESULT:    -7.015      7.788      8.862
REMARK INTER + INTRA:          -9.494
REMARK INTER:                  -8.805
REMARK INTRA:                  -0.690
REMARK CONF_INDEPENDENT:        1.790
REMARK UNBOUND:                -0.690
REMARK  6 active torsions:
REMARK  status: ('A' for Active; 'I' for Inactive)
REMARK    1  A    between atoms: C2_2  and  O1_3 
REMARK    2  A    between atoms: O1_3  and  C3_4 
REMARK    3  A    between atoms: C3_4  and  C4_6 
REMARK    4  A    between atoms: C7_9  and  N1_10 
REMARK       I    between atoms: N1_10  and  C8_11 
REMARK       I    between atoms: C8_11  and  N2_13 
REMARK    5  A    between atoms: N2_13  and  C9_14 
REMARK    6  A    between atoms: C13_18  and  C12_17 
ROOT
ATOM      1  C9  NON d   1     -39.964  22.292  -5.730  0.00  0.00     0.036 A 
ATOM      2  C10 NON d   1     -40.324  21.331  -6.682  0.00  0.00     0.030 A 
ATOM      3  C11 NON d   1     -40.310  21.630  -8.065  0.00  0.00     0.016 A 
ATOM      4  C12 NON d   1     -39.939  22.899  -8.531  0.00  0.00    -0.009 A 
ATOM      5  C21 NON d   1     -39.591  23.851  -7.566  0.00  0.00     0.016 A 
ATOM      6  C22 NON d   1     -39.606  23.554  -6.198  0.00  0.00     0.030 A 
ENDROOT
BRANCH   1   7
ATOM      7  N2  NON d   1     -39.990  21.953  -4.347  0.00  0.00    -0.309 N 
ATOM      8  C8  NON d   1     -40.185  22.843  -3.292  0.00  0.00     0.325 C 
ATOM      9  N1  NON d   1     -40.240  22.206  -2.057  0.00  0.00    -0.309 N 
ATOM     10  O3  NON d   1     -40.301  24.054  -3.431  0.00  0.00    -0.247 OA
ATOM     11  H8  NON d   1     -40.044  21.218  -2.037  0.00  0.00     0.170 HD
ATOM     12  H9  NON d   1     -39.808  20.987  -4.124  0.00  0.00     0.170 HD
BRANCH   9  13
ATOM     13  C7  NON d   1     -40.509  22.829  -0.805  0.00  0.00     0.036 A 
ATOM     14  C6  NON d   1     -40.088  22.193   0.363  0.00  0.00     0.030 A 
ATOM     15  C5  NON d   1     -40.344  22.747   1.644  0.00  0.00     0.020 A 
ATOM     16  C4  NON d   1     -41.034  23.958   1.816  0.00  0.00     0.039 A 
ATOM     17  C24 NON d   1     -41.439  24.585   0.622  0.00  0.00     0.020 A 
ATOM     18  C23 NON d   1     -41.185  24.039  -0.654  0.00  0.00     0.030 A 
BRANCH  16  19
ATOM     19  C3  NON d   1     -41.440  24.683   3.112  0.00  0.00     0.293 C 
ATOM     20  O2  NON d   1     -41.455  24.005   4.142  0.00  0.00    -0.259 OA
BRANCH  19  21
ATOM     21  O1  NON d   1     -41.781  26.006   3.240  0.00  0.00    -0.318 OA
BRANCH  21  22
ATOM     22  C2  NON d   1     -42.195  26.523   4.480  0.00  0.00     0.174 C 
ATOM     23  C1  NON d   1     -43.686  26.716   4.813  0.00  0.00     0.034 C 
ENDBRANCH  21  22
ENDBRANCH  19  21
ENDBRANCH  16  19
ENDBRANCH   9  13
ENDBRANCH   1   7
BRANCH   4  24
ATOM     24  C13 NON d   1     -39.913  23.241  -9.968  0.00  0.00     0.043 A 
ATOM     25  C14 NON d   1     -39.196  22.719 -11.037  0.00  0.00     0.044 A 
ATOM     26  C15 NON d   1     -39.553  23.424 -12.227  0.00  0.00    -0.006 A 
ATOM     27  C16 NON d   1     -39.167  23.344 -13.581  0.00  0.00     0.037 A 
ATOM     28  C20 NON d   1     -40.494  24.378 -11.862  0.00  0.00     0.043 A 
ATOM     29  C17 NON d   1     -39.746  24.227 -14.503  0.00  0.00     0.035 A 
ATOM     30 Cl1  NON d   1     -39.285  24.144 -16.162  0.00  0.00    -0.084 Cl
ATOM     31  C18 NON d   1     -40.687  25.173 -14.106  0.00  0.00     0.026 A 
ATOM     32  C19 NON d   1     -41.081  25.267 -12.771  0.00  0.00     0.032 A 
ATOM     33  N3  NON d   1     -40.689  24.247 -10.509  0.00  0.00    -0.355 N 
ATOM     34  H16 NON d   1     -41.330  24.828  -9.991  0.00  0.00     0.166 HD
ENDBRANCH   4  24
TORSDOF 6
ENDMDL
MODEL 5
REMARK VINA RESULT:    -6.631      7.385      8.667
REMARK INTER + INTRA:          -9.114
REMARK INTER:                  -8.421
REMARK INTRA:                  -0.693
REMARK CONF_INDEPENDENT:        1.790
REMARK UNBOUND:                -0.693
REMARK  6 active torsions:
REMARK  status: ('A' for Active; 'I' for Inactive)
REMARK    1  A    between atoms: C2_2  and  O1_3 
REMARK    2  A    between atoms: O1_3  and  C3_4 
REMARK    3  A    between atoms: C3_4  and  C4_6 
REMARK    4  A    between atoms: C7_9  and  N1_10 
REMARK       I    between atoms: N1_10  and  C8_11 
REMARK       I    between atoms: C8_11  and  N2_13 
REMARK    5  A    between atoms: N2_13  and  C9_14 
REMARK    6  A    between atoms: C13_18  and  C12_17 
ROOT
ATOM      1  C9  NON d   1     -39.824  21.318  -5.248  0.00  0.00     0.036 A 
ATOM      2  C10 NON d   1     -38.868  22.239  -5.696  0.00  0.00     0.030 A 
ATOM      3  C11 NON d   1     -38.527  22.329  -7.066  0.00  0.00     0.016 A 
ATOM      4  C12 NON d   1     -39.129  21.500  -8.023  0.00  0.00    -0.009 A 
ATOM      5  C21 NON d   1     -40.075  20.580  -7.557  0.00  0.00     0.016 A 
ATOM      6  C22 NON d   1     -40.412  20.490  -6.201  0.00  0.00     0.030 A 
ENDROOT
BRANCH   1   7
ATOM      7  N2  NON d   1     -40.142  21.257  -3.861  0.00  0.00    -0.309 N 
ATOM      8  C8  NON d   1     -40.109  22.328  -2.969  0.00  0.00     0.325 C 
ATOM      9  N1  NON d   1     -40.550  21.979  -1.697  0.00  0.00    -0.309 N 
ATOM     10  O3  NON d   1     -39.739  23.457  -3.267  0.00  0.00    -0.247 OA
ATOM     11  H8  NON d   1     -40.748  21.006  -1.527  0.00  0.00     0.170 HD
ATOM     12  H9  NON d   1     -40.369  20.345  -3.497  0.00  0.00     0.170 HD
BRANCH   9  13
ATOM     13  C7  NON d   1     -40.709  22.866  -0.594  0.00  0.00     0.036 A 
ATOM     14  C6  NON d   1     -41.216  24.144  -0.833  0.00  0.00     0.030 A 
ATOM     15  C5  NON d   1     -41.378  25.086   0.216  0.00  0.00     0.020 A 
ATOM     16  C4  NON d   1     -41.038  24.796   1.548  0.00  0.00     0.039 A 
ATOM     17  C24 NON d   1     -40.539  23.497   1.763  0.00  0.00     0.020 A 
ATOM     18  C23 NON d   1     -40.378  22.556   0.724  0.00  0.00     0.030 A 
BRANCH  16  19
ATOM     19  C3  NON d   1     -41.101  25.694   2.796  0.00  0.00     0.293 C 
ATOM     20  O2  NON d   1     -40.389  26.701   2.787  0.00  0.00    -0.259 OA
BRANCH  19  21
ATOM     21  O1  NON d   1     -41.870  25.493   3.914  0.00  0.00    -0.318 OA
BRANCH  21  22
ATOM     22  C2  NON d   1     -42.664  26.530   4.435  0.00  0.00     0.174 C 
ATOM     23  C1  NON d   1     -44.058  26.255   5.028  0.00  0.00     0.034 C 
ENDBRANCH  21  22
ENDBRANCH  19  21
ENDBRANCH  16  19
ENDBRANCH   9  13
ENDBRANCH   1   7
BRANCH   4  24
ATOM     24  C13 NON d   1     -38.795  21.573  -9.460  0.00  0.00     0.043 A 
ATOM     25  C14 NON d   1     -37.751  21.037 -10.202  0.00  0.00     0.044 A 
ATOM     26  C15 NON d   1     -37.905  21.418 -11.570  0.00  0.00    -0.006 A 
ATOM     27  C16 NON d   1     -37.179  21.181 -12.755  0.00  0.00     0.037 A 
ATOM     28  C20 NON d   1     -39.057  22.192 -11.643  0.00  0.00     0.043 A 
ATOM     29  C17 NON d   1     -37.644  21.734 -13.956  0.00  0.00     0.035 A 
ATOM     30 Cl1  NON d   1     -36.767  21.454 -15.414  0.00  0.00    -0.084 Cl
ATOM     31  C18 NON d   1     -38.802  22.506 -13.998  0.00  0.00     0.026 A 
ATOM     32  C19 NON d   1     -39.534  22.751 -12.835  0.00  0.00     0.032 A 
ATOM     33  N3  NON d   1     -39.566  22.269 -10.370  0.00  0.00    -0.355 N 
ATOM     34  H16 NON d   1     -40.407  22.779 -10.148  0.00  0.00     0.166 HD
ENDBRANCH   4  24
TORSDOF 6
ENDMDL
