MODEL 1
REMARK VINA RESULT:   -12.573      0.000      0.000
REMARK INTER + INTRA:         -15.558
REMARK INTER:                 -13.767
REMARK INTRA:                  -1.791
REMARK CONF_INDEPENDENT:        1.193
REMARK UNBOUND:                -1.791
REMARK  4 active torsions:
REMARK  status: ('A' for Active; 'I' for Inactive)
REMARK       I    between atoms: C1_2  and  N1_3 
REMARK    1  A    between atoms: C1_2  and  C13_19 
REMARK    2  A    between atoms: N1_3  and  N2_4 
REMARK       I    between atoms: N2_4  and  C2_5 
REMARK    3  A    between atoms: C2_5  and  C3_7 
REMARK    4  A    between atoms: C6_10  and  C7_11 
ROOT
ATOM      1  N2  NON d   1     -44.066  17.291  -4.350  0.00  0.00    -0.263 N 
ATOM      2  C2  NON d   1     -43.063  17.821  -3.560  0.00  0.00     0.277 C 
ATOM      3  O2  NON d   1     -43.249  18.005  -2.355  0.00  0.00    -0.265 OA
ATOM      4  H2  NON d   1     -43.960  17.122  -5.348  0.00  0.00     0.190 HD
ENDROOT
BRANCH   2   5
ATOM      5  C3  NON d   1     -41.811  18.136  -4.232  0.00  0.00     0.075 A 
ATOM      6  C4  NON d   1     -40.541  18.007  -3.710  0.00  0.00     0.026 A 
ATOM      7  C5  NON d   1     -39.529  18.403  -4.632  0.00  0.00     0.021 A 
ATOM      8  C6  NON d   1     -40.031  18.831  -5.852  0.00  0.00     0.016 A 
ATOM      9  S1  NON d   1     -41.752  18.733  -5.830  0.00  0.00    -0.084 SA
BRANCH   8  10
ATOM     10  C7  NON d   1     -39.298  19.314  -7.049  0.00  0.00    -0.019 A 
ATOM     11  C8  NON d   1     -39.820  20.374  -7.819  0.00  0.00     0.016 A 
ATOM     12  C9  NON d   1     -39.152  20.851  -8.952  0.00  0.00     0.043 A 
ATOM     13  C10 NON d   1     -37.951  20.274  -9.331  0.00  0.00     0.116 A 
ATOM     14  F1  NON d   1     -37.309  20.729 -10.415  0.00  0.00    -0.206 F 
ATOM     15  C11 NON d   1     -37.404  19.230  -8.600  0.00  0.00     0.043 A 
ATOM     16  C12 NON d   1     -38.075  18.755  -7.467  0.00  0.00     0.016 A 
ENDBRANCH   8  10
ENDBRANCH   2   5
BRANCH   1  17
ATOM     17  N1  NON d   1     -45.296  16.965  -3.771  0.00  0.00    -0.263 N 
ATOM     18  C1  NON d   1     -46.297  16.501  -4.599  0.00  0.00     0.270 C 
ATOM     19  O1  NON d   1     -46.127  16.372  -5.810  0.00  0.00    -0.266 OA
ATOM     20  H1  NON d   1     -45.360  17.098  -2.766  0.00  0.00     0.190 HD
BRANCH  18  21
ATOM     21  C13 NON d   1     -47.610  16.153  -3.980  0.00  0.00     0.036 A 
ATOM     22  C14 NON d   1     -47.949  16.790  -2.782  0.00  0.00     0.036 A 
ATOM     23  C15 NON d   1     -49.161  16.483  -2.191  0.00  0.00     0.117 A 
ATOM     24  N3  NON d   1     -50.039  15.600  -2.706  0.00  0.00    -0.273 NA
ATOM     25  C16 NON d   1     -49.693  14.996  -3.862  0.00  0.00     0.117 A 
ATOM     26  C17 NON d   1     -48.504  15.233  -4.533  0.00  0.00     0.036 A 
ENDBRANCH  18  21
ENDBRANCH   1  17
TORSDOF 4
ENDMDL
MODEL 2
REMARK VINA RESULT:   -12.376      1.305      1.514
REMARK INTER + INTRA:         -15.365
REMARK INTER:                 -13.569
REMARK INTRA:                  -1.796
REMARK CONF_INDEPENDENT:        1.193
REMARK UNBOUND:                -1.796
REMARK  4 active torsions:
REMARK  status: ('A' for Active; 'I' for Inactive)
REMARK       I    between atoms: C1_2  and  N1_3 
REMARK    1  A    between atoms: C1_2  and  C13_19 
REMARK    2  A    between atoms: N1_3  and  N2_4 
REMARK       I    between atoms: N2_4  and  C2_5 
REMARK    3  A    between atoms: C2_5  and  C3_7 
REMARK    4  A    between atoms: C6_10  and  C7_11 
ROOT
ATOM      1  N2  NON d   1     -44.458  17.564  -4.665  0.00  0.00    -0.263 N 
ATOM      2  C2  NON d   1     -43.271  17.679  -3.966  0.00  0.00     0.277 C 
ATOM      3  O2  NON d   1     -43.184  17.257  -2.811  0.00  0.00    -0.265 OA
ATOM      4  H2  NON d   1     -44.579  17.898  -5.620  0.00  0.00     0.190 HD
ENDROOT
BRANCH   2   5
ATOM      5  C3  NON d   1     -42.167  18.316  -4.669  0.00  0.00     0.075 A 
ATOM      6  C4  NON d   1     -40.823  18.071  -4.485  0.00  0.00     0.026 A 
ATOM      7  C5  NON d   1     -40.001  18.866  -5.336  0.00  0.00     0.021 A 
ATOM      8  C6  NON d   1     -40.722  19.712  -6.164  0.00  0.00     0.016 A 
ATOM      9  S1  NON d   1     -42.408  19.505  -5.870  0.00  0.00    -0.084 SA
BRANCH   8  10
ATOM     10  C7  NON d   1     -40.226  20.680  -7.175  0.00  0.00    -0.019 A 
ATOM     11  C8  NON d   1     -39.888  21.993  -6.792  0.00  0.00     0.016 A 
ATOM     12  C9  NON d   1     -39.417  22.927  -7.722  0.00  0.00     0.043 A 
ATOM     13  C10 NON d   1     -39.278  22.559  -9.050  0.00  0.00     0.116 A 
ATOM     14  F1  NON d   1     -38.828  23.451  -9.942  0.00  0.00    -0.206 F 
ATOM     15  C11 NON d   1     -39.600  21.276  -9.467  0.00  0.00     0.043 A 
ATOM     16  C12 NON d   1     -40.070  20.345  -8.535  0.00  0.00     0.016 A 
ENDBRANCH   8  10
ENDBRANCH   2   5
BRANCH   1  17
ATOM     17  N1  NON d   1     -45.561  16.963  -4.051  0.00  0.00    -0.263 N 
ATOM     18  C1  NON d   1     -46.725  16.847  -4.783  0.00  0.00     0.270 C 
ATOM     19  O1  NON d   1     -46.804  17.255  -5.941  0.00  0.00    -0.266 OA
ATOM     20  H1  NON d   1     -45.419  16.652  -3.095  0.00  0.00     0.190 HD
BRANCH  18  21
ATOM     21  C13 NON d   1     -47.902  16.206  -4.128  0.00  0.00     0.036 A 
ATOM     22  C14 NON d   1     -48.303  16.708  -2.886  0.00  0.00     0.036 A 
ATOM     23  C15 NON d   1     -49.392  16.130  -2.259  0.00  0.00     0.117 A 
ATOM     24  N3  NON d   1     -50.092  15.103  -2.780  0.00  0.00    -0.273 NA
ATOM     25  C16 NON d   1     -49.689  14.633  -3.979  0.00  0.00     0.117 A 
ATOM     26  C17 NON d   1     -48.612  15.142  -4.688  0.00  0.00     0.036 A 
ENDBRANCH  18  21
ENDBRANCH   1  17
TORSDOF 4
ENDMDL
MODEL 3
REMARK VINA RESULT:   -11.175      4.999     10.945
REMARK INTER + INTRA:         -14.025
REMARK INTER:                 -12.368
REMARK INTRA:                  -1.657
REMARK CONF_INDEPENDENT:        1.193
REMARK UNBOUND:                -1.657
REMARK  4 active torsions:
REMARK  status: ('A' for Active; 'I' for Inactive)
REMARK       I    between atoms: C1_2  and  N1_3 
REMARK    1  A    between atoms: C1_2  and  C13_19 
REMARK    2  A    between atoms: N1_3  and  N2_4 
REMARK       I    between atoms: N2_4  and  C2_5 
REMARK    3  A    between atoms: C2_5  and  C3_7 
REMARK    4  A    between atoms: C6_10  and  C7_11 
ROOT
ATOM      1  N2  NON d   1     -45.713  16.899  -3.874  0.00  0.00    -0.263 N 
ATOM      2  C2  NON d   1     -46.713  16.310  -4.625  0.00  0.00     0.277 C 
ATOM      3  O2  NON d   1     -46.518  16.025  -5.809  0.00  0.00    -0.265 OA
ATOM      4  H2  NON d   1     -45.827  17.152  -2.894  0.00  0.00     0.190 HD
ENDROOT
BRANCH   2   5
ATOM      5  C3  NON d   1     -47.972  16.058  -3.940  0.00  0.00     0.075 A 
ATOM      6  C4  NON d   1     -48.437  14.839  -3.493  0.00  0.00     0.026 A 
ATOM      7  C5  NON d   1     -49.711  14.939  -2.861  0.00  0.00     0.021 A 
ATOM      8  C6  NON d   1     -50.210  16.232  -2.830  0.00  0.00     0.016 A 
ATOM      9  S1  NON d   1     -49.088  17.300  -3.586  0.00  0.00    -0.084 SA
BRANCH   8  10
ATOM     10  C7  NON d   1     -51.490  16.727  -2.263  0.00  0.00    -0.019 A 
ATOM     11  C8  NON d   1     -51.483  17.630  -1.181  0.00  0.00     0.016 A 
ATOM     12  C9  NON d   1     -52.673  18.114  -0.626  0.00  0.00     0.043 A 
ATOM     13  C10 NON d   1     -53.888  17.702  -1.147  0.00  0.00     0.116 A 
ATOM     14  F1  NON d   1     -55.028  18.164  -0.618  0.00  0.00    -0.206 F 
ATOM     15  C11 NON d   1     -53.938  16.815  -2.212  0.00  0.00     0.043 A 
ATOM     16  C12 NON d   1     -52.746  16.333  -2.765  0.00  0.00     0.016 A 
ENDBRANCH   8  10
ENDBRANCH   2   5
BRANCH   1  17
ATOM     17  N1  NON d   1     -44.477  17.171  -4.467  0.00  0.00    -0.263 N 
ATOM     18  C1  NON d   1     -43.436  17.552  -3.647  0.00  0.00     0.270 C 
ATOM     19  O1  NON d   1     -43.576  17.654  -2.429  0.00  0.00    -0.266 OA
ATOM     20  H1  NON d   1     -44.439  17.064  -5.477  0.00  0.00     0.190 HD
BRANCH  18  21
ATOM     21  C13 NON d   1     -42.116  17.842  -4.281  0.00  0.00     0.036 A 
ATOM     22  C14 NON d   1     -41.008  17.967  -3.437  0.00  0.00     0.036 A 
ATOM     23  C15 NON d   1     -39.774  18.236  -4.002  0.00  0.00     0.117 A 
ATOM     24  N3  NON d   1     -39.578  18.384  -5.327  0.00  0.00    -0.273 NA
ATOM     25  C16 NON d   1     -40.660  18.259  -6.124  0.00  0.00     0.117 A 
ATOM     26  C17 NON d   1     -41.938  17.991  -5.658  0.00  0.00     0.036 A 
ENDBRANCH  18  21
ENDBRANCH   1  17
TORSDOF 4
ENDMDL
