MODEL 1
REMARK VINA RESULT:   -32.300      0.000      0.000
REMARK INTER + INTRA:         -33.208
REMARK INTER:                 -32.896
REMARK INTRA:                  -0.312
REMARK CONF_INDEPENDENT:        0.597
REMARK UNBOUND:                -0.312
REMARK  2 active torsions:
REMARK  status: ('A' for Active; 'I' for Inactive)
REMARK       I    between atoms: N1_1  and  C1_2 
REMARK    1  A    between atoms: C2_4  and  C1_2 
REMARK    2  A    between atoms: C8_10  and  O2_11 
ROOT
ATOM      1  C2  NON d   1     -47.743  15.461  -3.840  0.00  0.00     0.105 C 
ATOM      2  C3  NON d   1     -47.978  16.795  -3.083  0.00  0.00     0.001 C 
ATOM      3  C4  NON d   1     -48.221  16.494  -1.593  0.00  0.00     0.006 C 
ATOM      4  C5  NON d   1     -49.624  15.871  -1.588  0.00  0.00     0.007 C 
ATOM      5  C6  NON d   1     -50.007  15.872  -3.076  0.00  0.00     0.015 C 
ATOM      6  C7  NON d   1     -49.382  17.183  -3.554  0.00  0.00     0.012 C 
ATOM      7  C8  NON d   1     -49.152  14.817  -3.811  0.00  0.00     0.135 C 
ENDROOT
BRANCH   1   8
ATOM      8  C1  NON d   1     -47.107  15.703  -5.205  0.00  0.00     0.202 C 
ATOM      9  N1  NON d   1     -47.438  16.880  -5.810  0.00  0.00    -0.272 NA
ATOM     10  H1  NON d   1     -47.523  17.675  -5.179  0.00  0.00     0.127 HD
ATOM     11  H2  NON d   1     -46.926  17.063  -6.663  0.00  0.00     0.127 HD
ATOM     12  O1  NON d   1     -46.433  14.872  -5.805  0.00  0.00    -0.280 OA
ENDBRANCH   1   8
BRANCH   7  13
ATOM     13  O2  NON d   1     -49.692  14.552  -5.100  0.00  0.00    -0.394 OA
ATOM     14  H13 NON d   1     -49.175  15.074  -5.742  0.00  0.00     0.210 HD
ENDBRANCH   7  13
TORSDOF 2
ENDMDL
MODEL 2
REMARK VINA RESULT:   -30.231      3.494      5.071
REMARK INTER + INTRA:         -31.790
REMARK INTER:                 -30.828
REMARK INTRA:                  -0.962
REMARK CONF_INDEPENDENT:        0.597
REMARK UNBOUND:                -0.962
REMARK  2 active torsions:
REMARK  status: ('A' for Active; 'I' for Inactive)
REMARK       I    between atoms: N1_1  and  C1_2 
REMARK    1  A    between atoms: C2_4  and  C1_2 
REMARK    2  A    between atoms: C8_10  and  O2_11 
ROOT
ATOM      1  C2  NON d   1     -45.291  16.959  -4.618  0.00  0.00     0.105 C 
ATOM      2  C3  NON d   1     -43.949  16.193  -4.482  0.00  0.00     0.001 C 
ATOM      3  C4  NON d   1     -43.245  16.634  -3.186  0.00  0.00     0.006 C 
ATOM      4  C5  NON d   1     -42.769  18.056  -3.515  0.00  0.00     0.007 C 
ATOM      5  C6  NON d   1     -43.275  18.265  -4.951  0.00  0.00     0.015 C 
ATOM      6  C7  NON d   1     -43.087  16.871  -5.549  0.00  0.00     0.012 C 
ATOM      7  C8  NON d   1     -44.812  18.402  -4.922  0.00  0.00     0.135 C 
ENDROOT
BRANCH   1   8
ATOM      8  C1  NON d   1     -46.208  16.292  -5.638  0.00  0.00     0.202 C 
ATOM      9  N1  NON d   1     -47.427  16.880  -5.810  0.00  0.00    -0.272 NA
ATOM     10  H1  NON d   1     -47.417  17.898  -5.777  0.00  0.00     0.127 HD
ATOM     11  H2  NON d   1     -47.974  16.481  -6.562  0.00  0.00     0.127 HD
ATOM     12  O1  NON d   1     -45.953  15.230  -6.198  0.00  0.00    -0.280 OA
ENDBRANCH   1   8
BRANCH   7  13
ATOM     13  O2  NON d   1     -45.287  18.918  -6.160  0.00  0.00    -0.394 OA
ATOM     14  H13 NON d   1     -46.210  18.621  -6.262  0.00  0.00     0.210 HD
ENDBRANCH   7  13
TORSDOF 2
ENDMDL
