MODEL 1
REMARK VINA RESULT:   -10.504      0.000      0.000
REMARK INTER + INTRA:         -13.436
REMARK INTER:                 -12.890
REMARK INTRA:                  -0.546
REMARK CONF_INDEPENDENT:        2.386
REMARK UNBOUND:                -0.546
REMARK  8 active torsions:
REMARK  status: ('A' for Active; 'I' for Inactive)
REMARK    1  A    between atoms: O1_2  and  C2_3 
REMARK    2  A    between atoms: C8_9  and  C7_8 
REMARK    3  A    between atoms: C12_13  and  O2_14 
REMARK    4  A    between atoms: N2_21  and  C17_22 
REMARK    5  A    between atoms: C17_22  and  C18_23 
REMARK    6  A    between atoms: C18_23  and  C19_24 
REMARK    7  A    between atoms: C19_24  and  O4_25 
REMARK    8  A    between atoms: C20_26  and  N3_27 
ROOT
ATOM      1  C8  NON d   1     -40.310  20.264  -4.686  0.00  0.00     0.098 C 
ATOM      2  C9  NON d   1     -40.009  21.135  -3.462  0.00  0.00    -0.011 C 
ATOM      3  C10 NON d   1     -40.050  22.521  -3.330  0.00  0.00     0.014 C 
ATOM      4  C11 NON d   1     -39.486  23.138  -2.205  0.00  0.00     0.037 C 
ATOM      5  C12 NON d   1     -38.970  22.371  -1.167  0.00  0.00     0.068 C 
ATOM      6  C13 NON d   1     -39.096  20.991  -1.184  0.00  0.00     0.074 C 
ATOM      7  C14 NON d   1     -39.650  20.395  -2.315  0.00  0.00     0.087 C 
ATOM      8  O3  NON d   1     -39.887  19.033  -2.275  0.00  0.00    -0.291 OA
ATOM      9  C15 NON d   1     -41.007  18.626  -2.984  0.00  0.00     0.182 C 
ATOM     10  N1  NON d   1     -41.713  17.658  -2.392  0.00  0.00    -0.219 NA
ATOM     11  C16 NON d   1     -42.799  17.249  -3.057  0.00  0.00     0.214 C 
ATOM     12  N2  NON d   1     -43.227  17.739  -4.234  0.00  0.00    -0.327 N 
ATOM     13  C20 NON d   1     -42.596  18.850  -4.737  0.00  0.00     0.113 C 
ATOM     14  C21 NON d   1     -41.357  19.236  -4.193  0.00  0.00     0.052 C 
ENDROOT
BRANCH   1  15
ATOM     15  C7  NON d   1     -40.278  20.772  -6.153  0.00  0.00    -0.011 C 
ATOM     16  C6  NON d   1     -40.639  19.863  -7.176  0.00  0.00     0.011 C 
ATOM     17  C5  NON d   1     -40.692  20.220  -8.526  0.00  0.00     0.001 C 
ATOM     18  C4  NON d   1     -40.313  21.493  -8.912  0.00  0.00     0.003 C 
ATOM     19  C3  NON d   1     -39.790  22.362  -7.963  0.00  0.00     0.037 C 
ATOM     20  C2  NON d   1     -39.700  21.982  -6.614  0.00  0.00     0.075 C 
BRANCH  20  21
ATOM     21  O1  NON d   1     -38.970  22.720  -5.731  0.00  0.00    -0.355 OA
ATOM     22  C1  NON d   1     -37.485  22.358  -5.547  0.00  0.00     0.210 C 
ENDBRANCH  20  21
ENDBRANCH   1  15
BRANCH  13  23
ATOM     23  N3  NON d   1     -43.145  19.506  -5.834  0.00  0.00    -0.385 N 
ATOM     24  H21 NON d   1     -44.166  19.481  -5.876  0.00  0.00     0.157 HD
ATOM     25  H22 NON d   1     -42.748  19.413  -6.758  0.00  0.00     0.157 HD
ENDBRANCH  13  23
BRANCH  12  26
ATOM     26  C17 NON d   1     -44.257  17.033  -5.059  0.00  0.00     0.133 C 
BRANCH  26  27
ATOM     27  C18 NON d   1     -45.606  16.707  -4.417  0.00  0.00     0.046 C 
BRANCH  27  28
ATOM     28  C19 NON d   1     -46.730  16.641  -5.444  0.00  0.00     0.165 C 
BRANCH  28  29
ATOM     29  O4  NON d   1     -46.692  15.380  -6.088  0.00  0.00    -0.401 OA
ATOM     30  H20 NON d   1     -46.812  15.550  -7.046  0.00  0.00     0.209 HD
ENDBRANCH  28  29
ENDBRANCH  27  28
ENDBRANCH  26  27
ENDBRANCH  12  26
BRANCH   5  31
ATOM     31  O2  NON d   1     -38.373  23.019  -0.128  0.00  0.00    -0.361 OA
ATOM     32  H11 NON d   1     -37.515  22.601   0.054  0.00  0.00     0.217 HD
ENDBRANCH   5  31
TORSDOF 8
ENDMDL
MODEL 2
REMARK VINA RESULT:   -10.456      1.574      1.709
REMARK INTER + INTRA:         -14.394
REMARK INTER:                 -12.842
REMARK INTRA:                  -1.551
REMARK CONF_INDEPENDENT:        2.386
REMARK UNBOUND:                -1.551
REMARK  8 active torsions:
REMARK  status: ('A' for Active; 'I' for Inactive)
REMARK    1  A    between atoms: O1_2  and  C2_3 
REMARK    2  A    between atoms: C8_9  and  C7_8 
REMARK    3  A    between atoms: C12_13  and  O2_14 
REMARK    4  A    between atoms: N2_21  and  C17_22 
REMARK    5  A    between atoms: C17_22  and  C18_23 
REMARK    6  A    between atoms: C18_23  and  C19_24 
REMARK    7  A    between atoms: C19_24  and  O4_25 
REMARK    8  A    between atoms: C20_26  and  N3_27 
ROOT
ATOM      1  C8  NON d   1     -39.763  19.144  -5.197  0.00  0.00     0.098 C 
ATOM      2  C9  NON d   1     -38.965  19.635  -3.985  0.00  0.00    -0.011 C 
ATOM      3  C10 NON d   1     -38.444  20.899  -3.721  0.00  0.00     0.014 C 
ATOM      4  C11 NON d   1     -37.521  21.077  -2.682  0.00  0.00     0.037 C 
ATOM      5  C12 NON d   1     -37.191  20.017  -1.844  0.00  0.00     0.068 C 
ATOM      6  C13 NON d   1     -37.844  18.801  -1.962  0.00  0.00     0.074 C 
ATOM      7  C14 NON d   1     -38.750  18.640  -3.007  0.00  0.00     0.087 C 
ATOM      8  O3  NON d   1     -39.489  17.471  -3.046  0.00  0.00    -0.291 OA
ATOM      9  C15 NON d   1     -40.773  17.621  -3.547  0.00  0.00     0.182 C 
ATOM     10  N1  NON d   1     -41.701  16.894  -2.915  0.00  0.00    -0.219 NA
ATOM     11  C16 NON d   1     -42.948  17.023  -3.381  0.00  0.00     0.214 C 
ATOM     12  N2  NON d   1     -43.326  17.819  -4.397  0.00  0.00    -0.327 N 
ATOM     13  C20 NON d   1     -42.397  18.689  -4.913  0.00  0.00     0.113 C 
ATOM     14  C21 NON d   1     -41.039  18.503  -4.599  0.00  0.00     0.052 C 
ENDROOT
BRANCH   1  15
ATOM     15  C7  NON d   1     -39.760  19.835  -6.588  0.00  0.00    -0.011 C 
ATOM     16  C6  NON d   1     -38.971  19.260  -7.612  0.00  0.00     0.011 C 
ATOM     17  C5  NON d   1     -38.928  19.767  -8.914  0.00  0.00     0.001 C 
ATOM     18  C4  NON d   1     -39.625  20.920  -9.222  0.00  0.00     0.003 C 
ATOM     19  C3  NON d   1     -40.274  21.613  -8.206  0.00  0.00     0.037 C 
ATOM     20  C2  NON d   1     -40.278  21.120  -6.891  0.00  0.00     0.075 C 
BRANCH  20  21
ATOM     21  O1  NON d   1     -40.694  21.904  -5.857  0.00  0.00    -0.355 OA
ATOM     22  C1  NON d   1     -39.997  23.264  -5.663  0.00  0.00     0.210 C 
ENDBRANCH  20  21
ENDBRANCH   1  15
BRANCH  13  23
ATOM     23  N3  NON d   1     -42.809  19.669  -5.811  0.00  0.00    -0.385 N 
ATOM     24  H21 NON d   1     -42.438  20.602  -5.622  0.00  0.00     0.157 HD
ATOM     25  H22 NON d   1     -43.766  19.725  -6.130  0.00  0.00     0.157 HD
ENDBRANCH  13  23
BRANCH  12  26
ATOM     26  C17 NON d   1     -44.662  17.681  -5.058  0.00  0.00     0.133 C 
BRANCH  26  27
ATOM     27  C18 NON d   1     -45.670  16.696  -4.464  0.00  0.00     0.046 C 
BRANCH  27  28
ATOM     28  C19 NON d   1     -46.890  16.513  -5.358  0.00  0.00     0.165 C 
BRANCH  28  29
ATOM     29  O4  NON d   1     -46.689  15.380  -6.184  0.00  0.00    -0.401 OA
ATOM     30  H20 NON d   1     -46.761  15.691  -7.111  0.00  0.00     0.209 HD
ENDBRANCH  28  29
ENDBRANCH  27  28
ENDBRANCH  26  27
ENDBRANCH  12  26
BRANCH   5  31
ATOM     31  O2  NON d   1     -36.238  20.226  -0.893  0.00  0.00    -0.361 OA
ATOM     32  H11 NON d   1     -36.623  20.058  -0.018  0.00  0.00     0.217 HD
ENDBRANCH   5  31
TORSDOF 8
ENDMDL
MODEL 3
REMARK VINA RESULT:   -10.199      1.061      1.647
REMARK INTER + INTRA:         -14.047
REMARK INTER:                 -12.585
REMARK INTRA:                  -1.462
REMARK CONF_INDEPENDENT:        2.386
REMARK UNBOUND:                -1.462
REMARK  8 active torsions:
REMARK  status: ('A' for Active; 'I' for Inactive)
REMARK    1  A    between atoms: O1_2  and  C2_3 
REMARK    2  A    between atoms: C8_9  and  C7_8 
REMARK    3  A    between atoms: C12_13  and  O2_14 
REMARK    4  A    between atoms: N2_21  and  C17_22 
REMARK    5  A    between atoms: C17_22  and  C18_23 
REMARK    6  A    between atoms: C18_23  and  C19_24 
REMARK    7  A    between atoms: C19_24  and  O4_25 
REMARK    8  A    between atoms: C20_26  and  N3_27 
ROOT
ATOM      1  C8  NON d   1     -40.160  20.394  -4.622  0.00  0.00     0.098 C 
ATOM      2  C9  NON d   1     -39.912  21.268  -3.389  0.00  0.00    -0.011 C 
ATOM      3  C10 NON d   1     -40.019  22.650  -3.248  0.00  0.00     0.014 C 
ATOM      4  C11 NON d   1     -39.497  23.283  -2.112  0.00  0.00     0.037 C 
ATOM      5  C12 NON d   1     -38.957  22.534  -1.074  0.00  0.00     0.068 C 
ATOM      6  C13 NON d   1     -39.018  21.150  -1.102  0.00  0.00     0.074 C 
ATOM      7  C14 NON d   1     -39.531  20.537  -2.243  0.00  0.00     0.087 C 
ATOM      8  O3  NON d   1     -39.705  19.166  -2.215  0.00  0.00    -0.291 OA
ATOM      9  C15 NON d   1     -40.798  18.713  -2.939  0.00  0.00     0.182 C 
ATOM     10  N1  NON d   1     -41.465  17.708  -2.361  0.00  0.00    -0.219 NA
ATOM     11  C16 NON d   1     -42.523  17.254  -3.041  0.00  0.00     0.214 C 
ATOM     12  N2  NON d   1     -42.962  17.732  -4.219  0.00  0.00    -0.327 N 
ATOM     13  C20 NON d   1     -42.377  18.875  -4.707  0.00  0.00     0.113 C 
ATOM     14  C21 NON d   1     -41.163  19.314  -4.147  0.00  0.00     0.052 C 
ENDROOT
BRANCH   1  15
ATOM     15  C7  NON d   1     -40.136  20.913  -6.085  0.00  0.00    -0.011 C 
ATOM     16  C6  NON d   1     -40.275  22.305  -6.297  0.00  0.00     0.011 C 
ATOM     17  C5  NON d   1     -40.222  22.890  -7.565  0.00  0.00     0.001 C 
ATOM     18  C4  NON d   1     -40.096  22.087  -8.684  0.00  0.00     0.003 C 
ATOM     19  C3  NON d   1     -40.128  20.705  -8.535  0.00  0.00     0.037 C 
ATOM     20  C2  NON d   1     -40.225  20.124  -7.260  0.00  0.00     0.075 C 
BRANCH  20  21
ATOM     21  O1  NON d   1     -40.503  18.796  -7.122  0.00  0.00    -0.355 OA
ATOM     22  C1  NON d   1     -39.783  17.810  -8.060  0.00  0.00     0.210 C 
ENDBRANCH  20  21
ENDBRANCH   1  15
BRANCH  13  23
ATOM     23  N3  NON d   1     -42.945  19.513  -5.805  0.00  0.00    -0.385 N 
ATOM     24  H21 NON d   1     -43.966  19.479  -5.836  0.00  0.00     0.157 HD
ATOM     25  H22 NON d   1     -42.558  19.412  -6.733  0.00  0.00     0.157 HD
ENDBRANCH  13  23
BRANCH  12  26
ATOM     26  C17 NON d   1     -43.949  16.985  -5.060  0.00  0.00     0.133 C 
BRANCH  26  27
ATOM     27  C18 NON d   1     -45.312  16.646  -4.455  0.00  0.00     0.046 C 
BRANCH  27  28
ATOM     28  C19 NON d   1     -46.428  16.695  -5.490  0.00  0.00     0.165 C 
BRANCH  28  29
ATOM     29  O4  NON d   1     -46.690  15.380  -5.947  0.00  0.00    -0.401 OA
ATOM     30  H20 NON d   1     -46.690  15.418  -6.927  0.00  0.00     0.209 HD
ENDBRANCH  28  29
ENDBRANCH  27  28
ENDBRANCH  26  27
ENDBRANCH  12  26
BRANCH   5  31
ATOM     31  O2  NON d   1     -38.400  23.201  -0.024  0.00  0.00    -0.361 OA
ATOM     32  H11 NON d   1     -38.250  22.576   0.704  0.00  0.00     0.217 HD
ENDBRANCH   5  31
TORSDOF 8
ENDMDL
MODEL 4
REMARK VINA RESULT:    -9.828      1.455      1.699
REMARK INTER + INTRA:         -14.023
REMARK INTER:                 -12.214
REMARK INTRA:                  -1.809
REMARK CONF_INDEPENDENT:        2.386
REMARK UNBOUND:                -1.809
REMARK  8 active torsions:
REMARK  status: ('A' for Active; 'I' for Inactive)
REMARK    1  A    between atoms: O1_2  and  C2_3 
REMARK    2  A    between atoms: C8_9  and  C7_8 
REMARK    3  A    between atoms: C12_13  and  O2_14 
REMARK    4  A    between atoms: N2_21  and  C17_22 
REMARK    5  A    between atoms: C17_22  and  C18_23 
REMARK    6  A    between atoms: C18_23  and  C19_24 
REMARK    7  A    between atoms: C19_24  and  O4_25 
REMARK    8  A    between atoms: C20_26  and  N3_27 
ROOT
ATOM      1  C8  NON d   1     -39.461  19.315  -4.628  0.00  0.00     0.098 C 
ATOM      2  C9  NON d   1     -39.115  20.443  -3.652  0.00  0.00    -0.011 C 
ATOM      3  C10 NON d   1     -38.764  21.765  -3.915  0.00  0.00     0.014 C 
ATOM      4  C11 NON d   1     -38.230  22.568  -2.897  0.00  0.00     0.037 C 
ATOM      5  C12 NON d   1     -38.138  22.086  -1.597  0.00  0.00     0.068 C 
ATOM      6  C13 NON d   1     -38.662  20.846  -1.269  0.00  0.00     0.074 C 
ATOM      7  C14 NON d   1     -39.179  20.059  -2.295  0.00  0.00     0.087 C 
ATOM      8  O3  NON d   1     -39.812  18.879  -1.947  0.00  0.00    -0.291 OA
ATOM      9  C15 NON d   1     -40.874  18.535  -2.769  0.00  0.00     0.182 C 
ATOM     10  N1  NON d   1     -41.921  18.006  -2.126  0.00  0.00    -0.219 NA
ATOM     11  C16 NON d   1     -42.958  17.667  -2.899  0.00  0.00     0.214 C 
ATOM     12  N2  NON d   1     -43.028  17.829  -4.233  0.00  0.00    -0.327 N 
ATOM     13  C20 NON d   1     -42.024  18.535  -4.848  0.00  0.00     0.113 C 
ATOM     14  C21 NON d   1     -40.830  18.778  -4.145  0.00  0.00     0.052 C 
ENDROOT
BRANCH   1  15
ATOM     15  C7  NON d   1     -39.045  19.291  -6.125  0.00  0.00    -0.011 C 
ATOM     16  C6  NON d   1     -37.777  18.755  -6.452  0.00  0.00     0.011 C 
ATOM     17  C5  NON d   1     -37.318  18.639  -7.766  0.00  0.00     0.001 C 
ATOM     18  C4  NON d   1     -38.089  19.125  -8.806  0.00  0.00     0.003 C 
ATOM     19  C3  NON d   1     -39.262  19.812  -8.517  0.00  0.00     0.037 C 
ATOM     20  C2  NON d   1     -39.697  19.962  -7.190  0.00  0.00     0.075 C 
BRANCH  20  21
ATOM     21  O1  NON d   1     -40.698  20.834  -6.882  0.00  0.00    -0.355 OA
ATOM     22  C1  NON d   1     -40.314  22.299  -6.603  0.00  0.00     0.210 C 
ENDBRANCH  20  21
ENDBRANCH   1  15
BRANCH  13  23
ATOM     23  N3  NON d   1     -42.171  18.904  -6.182  0.00  0.00    -0.385 N 
ATOM     24  H21 NON d   1     -41.369  18.685  -6.775  0.00  0.00     0.157 HD
ATOM     25  H22 NON d   1     -42.573  19.793  -6.442  0.00  0.00     0.157 HD
ENDBRANCH  13  23
BRANCH  12  26
ATOM     26  C17 NON d   1     -44.075  17.151  -5.060  0.00  0.00     0.133 C 
BRANCH  26  27
ATOM     27  C18 NON d   1     -45.422  16.831  -4.411  0.00  0.00     0.046 C 
BRANCH  27  28
ATOM     28  C19 NON d   1     -46.545  16.732  -5.436  0.00  0.00     0.165 C 
BRANCH  28  29
ATOM     29  O4  NON d   1     -46.690  15.380  -5.831  0.00  0.00    -0.401 OA
ATOM     30  H20 NON d   1     -46.779  15.380  -6.807  0.00  0.00     0.209 HD
ENDBRANCH  28  29
ENDBRANCH  27  28
ENDBRANCH  26  27
ENDBRANCH  12  26
BRANCH   5  31
ATOM     31  O2  NON d   1     -37.549  22.881  -0.660  0.00  0.00    -0.361 OA
ATOM     32  H11 NON d   1     -36.895  23.452  -1.096  0.00  0.00     0.217 HD
ENDBRANCH   5  31
TORSDOF 8
ENDMDL
MODEL 5
REMARK VINA RESULT:    -9.422      2.767      5.453
REMARK INTER + INTRA:         -12.784
REMARK INTER:                 -11.808
REMARK INTRA:                  -0.976
REMARK CONF_INDEPENDENT:        2.386
REMARK UNBOUND:                -0.976
REMARK  8 active torsions:
REMARK  status: ('A' for Active; 'I' for Inactive)
REMARK    1  A    between atoms: O1_2  and  C2_3 
REMARK    2  A    between atoms: C8_9  and  C7_8 
REMARK    3  A    between atoms: C12_13  and  O2_14 
REMARK    4  A    between atoms: N2_21  and  C17_22 
REMARK    5  A    between atoms: C17_22  and  C18_23 
REMARK    6  A    between atoms: C18_23  and  C19_24 
REMARK    7  A    between atoms: C19_24  and  O4_25 
REMARK    8  A    between atoms: C20_26  and  N3_27 
ROOT
ATOM      1  C8  NON d   1     -38.516  19.338  -5.023  0.00  0.00     0.098 C 
ATOM      2  C9  NON d   1     -37.931  19.128  -6.423  0.00  0.00    -0.011 C 
ATOM      3  C10 NON d   1     -36.892  18.296  -6.832  0.00  0.00     0.014 C 
ATOM      4  C11 NON d   1     -36.335  18.443  -8.110  0.00  0.00     0.037 C 
ATOM      5  C12 NON d   1     -36.876  19.350  -9.014  0.00  0.00     0.068 C 
ATOM      6  C13 NON d   1     -38.032  20.047  -8.701  0.00  0.00     0.074 C 
ATOM      7  C14 NON d   1     -38.565  19.896  -7.423  0.00  0.00     0.087 C 
ATOM      8  O3  NON d   1     -39.784  20.495  -7.158  0.00  0.00    -0.291 OA
ATOM      9  C15 NON d   1     -40.587  19.791  -6.275  0.00  0.00     0.182 C 
ATOM     10  N1  NON d   1     -41.889  19.802  -6.583  0.00  0.00    -0.219 NA
ATOM     11  C16 NON d   1     -42.684  19.129  -5.745  0.00  0.00     0.214 C 
ATOM     12  N2  NON d   1     -42.280  18.448  -4.658  0.00  0.00    -0.327 N 
ATOM     13  C20 NON d   1     -40.930  18.297  -4.459  0.00  0.00     0.113 C 
ATOM     14  C21 NON d   1     -40.037  19.103  -5.188  0.00  0.00     0.052 C 
ENDROOT
BRANCH   1  15
ATOM     15  C7  NON d   1     -37.769  19.010  -3.701  0.00  0.00    -0.011 C 
ATOM     16  C6  NON d   1     -37.207  17.719  -3.561  0.00  0.00     0.011 C 
ATOM     17  C5  NON d   1     -36.474  17.328  -2.437  0.00  0.00     0.001 C 
ATOM     18  C4  NON d   1     -36.335  18.200  -1.373  0.00  0.00     0.003 C 
ATOM     19  C3  NON d   1     -37.014  19.413  -1.397  0.00  0.00     0.037 C 
ATOM     20  C2  NON d   1     -37.783  19.782  -2.512  0.00  0.00     0.075 C 
BRANCH  20  21
ATOM     21  O1  NON d   1     -38.640  20.840  -2.445  0.00  0.00    -0.355 OA
ATOM     22  C1  NON d   1     -39.824  20.744  -1.465  0.00  0.00     0.210 C 
ENDBRANCH  20  21
ENDBRANCH   1  15
BRANCH  13  23
ATOM     23  N3  NON d   1     -40.482  17.424  -3.472  0.00  0.00    -0.385 N 
ATOM     24  H21 NON d   1     -41.220  16.890  -3.010  0.00  0.00     0.157 HD
ATOM     25  H22 NON d   1     -39.772  17.699  -2.807  0.00  0.00     0.157 HD
ENDBRANCH  13  23
BRANCH  12  26
ATOM     26  C17 NON d   1     -43.242  17.986  -3.608  0.00  0.00     0.133 C 
BRANCH  26  27
ATOM     27  C18 NON d   1     -44.711  17.811  -3.994  0.00  0.00     0.046 C 
BRANCH  27  28
ATOM     28  C19 NON d   1     -44.902  16.734  -5.055  0.00  0.00     0.165 C 
BRANCH  28  29
ATOM     29  O4  NON d   1     -46.063  17.032  -5.810  0.00  0.00    -0.401 OA
ATOM     30  H20 NON d   1     -46.509  17.778  -5.356  0.00  0.00     0.209 HD
ENDBRANCH  28  29
ENDBRANCH  27  28
ENDBRANCH  26  27
ENDBRANCH  12  26
BRANCH   5  31
ATOM     31  O2  NON d   1     -36.255  19.502 -10.217  0.00  0.00    -0.361 OA
ATOM     32  H11 NON d   1     -36.298  18.663 -10.704  0.00  0.00     0.217 HD
ENDBRANCH   5  31
TORSDOF 8
ENDMDL
MODEL 6
REMARK VINA RESULT:    -9.003      1.494      2.048
REMARK INTER + INTRA:         -12.404
REMARK INTER:                 -11.389
REMARK INTRA:                  -1.014
REMARK CONF_INDEPENDENT:        2.386
REMARK UNBOUND:                -1.014
REMARK  8 active torsions:
REMARK  status: ('A' for Active; 'I' for Inactive)
REMARK    1  A    between atoms: O1_2  and  C2_3 
REMARK    2  A    between atoms: C8_9  and  C7_8 
REMARK    3  A    between atoms: C12_13  and  O2_14 
REMARK    4  A    between atoms: N2_21  and  C17_22 
REMARK    5  A    between atoms: C17_22  and  C18_23 
REMARK    6  A    between atoms: C18_23  and  C19_24 
REMARK    7  A    between atoms: C19_24  and  O4_25 
REMARK    8  A    between atoms: C20_26  and  N3_27 
ROOT
ATOM      1  C8  NON d   1     -39.984  21.312  -3.788  0.00  0.00     0.098 C 
ATOM      2  C9  NON d   1     -40.286  22.188  -2.568  0.00  0.00    -0.011 C 
ATOM      3  C10 NON d   1     -40.723  23.509  -2.514  0.00  0.00     0.014 C 
ATOM      4  C11 NON d   1     -40.688  24.212  -1.302  0.00  0.00     0.037 C 
ATOM      5  C12 NON d   1     -40.311  23.571  -0.127  0.00  0.00     0.068 C 
ATOM      6  C13 NON d   1     -40.063  22.209  -0.120  0.00  0.00     0.074 C 
ATOM      7  C14 NON d   1     -40.092  21.528  -1.335  0.00  0.00     0.087 C 
ATOM      8  O3  NON d   1     -39.966  20.151  -1.307  0.00  0.00    -0.291 OA
ATOM      9  C15 NON d   1     -40.688  19.490  -2.288  0.00  0.00     0.182 C 
ATOM     10  N1  NON d   1     -41.257  18.350  -1.882  0.00  0.00    -0.219 NA
ATOM     11  C16 NON d   1     -41.960  17.695  -2.813  0.00  0.00     0.214 C 
ATOM     12  N2  NON d   1     -42.144  18.096  -4.083  0.00  0.00    -0.327 N 
ATOM     13  C20 NON d   1     -41.707  19.351  -4.431  0.00  0.00     0.113 C 
ATOM     14  C21 NON d   1     -40.822  20.028  -3.572  0.00  0.00     0.052 C 
ENDROOT
BRANCH   1  15
ATOM     15  C7  NON d   1     -39.664  21.861  -5.206  0.00  0.00    -0.011 C 
ATOM     16  C6  NON d   1     -40.195  23.123  -5.562  0.00  0.00     0.011 C 
ATOM     17  C5  NON d   1     -39.935  23.737  -6.791  0.00  0.00     0.001 C 
ATOM     18  C4  NON d   1     -39.186  23.071  -7.743  0.00  0.00     0.003 C 
ATOM     19  C3  NON d   1     -38.790  21.761  -7.501  0.00  0.00     0.037 C 
ATOM     20  C2  NON d   1     -39.090  21.135  -6.280  0.00  0.00     0.075 C 
BRANCH  20  21
ATOM     21  O1  NON d   1     -38.926  19.790  -6.130  0.00  0.00    -0.355 OA
ATOM     22  C1  NON d   1     -39.654  18.863  -7.122  0.00  0.00     0.210 C 
ENDBRANCH  20  21
ENDBRANCH   1  15
BRANCH  13  23
ATOM     23  N3  NON d   1     -42.069  19.878  -5.667  0.00  0.00    -0.385 N 
ATOM     24  H21 NON d   1     -41.647  20.783  -5.882  0.00  0.00     0.157 HD
ATOM     25  H22 NON d   1     -43.022  19.842  -5.997  0.00  0.00     0.157 HD
ENDBRANCH  13  23
BRANCH  12  26
ATOM     26  C17 NON d   1     -42.671  17.174  -5.138  0.00  0.00     0.133 C 
BRANCH  26  27
ATOM     27  C18 NON d   1     -44.050  16.545  -4.931  0.00  0.00     0.046 C 
BRANCH  27  28
ATOM     28  C19 NON d   1     -45.155  17.592  -4.870  0.00  0.00     0.165 C 
BRANCH  28  29
ATOM     29  O4  NON d   1     -46.160  17.256  -5.810  0.00  0.00    -0.401 OA
ATOM     30  H20 NON d   1     -46.787  18.009  -5.832  0.00  0.00     0.209 HD
ENDBRANCH  28  29
ENDBRANCH  27  28
ENDBRANCH  26  27
ENDBRANCH  12  26
BRANCH   5  31
ATOM     31  O2  NON d   1     -40.229  24.317   1.010  0.00  0.00    -0.361 OA
ATOM     32  H11 NON d   1     -39.521  23.960   1.571  0.00  0.00     0.217 HD
ENDBRANCH   5  31
TORSDOF 8
ENDMDL
MODEL 7
REMARK VINA RESULT:    -8.652      1.682      4.847
REMARK INTER + INTRA:         -12.657
REMARK INTER:                 -11.038
REMARK INTRA:                  -1.619
REMARK CONF_INDEPENDENT:        2.386
REMARK UNBOUND:                -1.619
REMARK  8 active torsions:
REMARK  status: ('A' for Active; 'I' for Inactive)
REMARK    1  A    between atoms: O1_2  and  C2_3 
REMARK    2  A    between atoms: C8_9  and  C7_8 
REMARK    3  A    between atoms: C12_13  and  O2_14 
REMARK    4  A    between atoms: N2_21  and  C17_22 
REMARK    5  A    between atoms: C17_22  and  C18_23 
REMARK    6  A    between atoms: C18_23  and  C19_24 
REMARK    7  A    between atoms: C19_24  and  O4_25 
REMARK    8  A    between atoms: C20_26  and  N3_27 
ROOT
ATOM      1  C8  NON d   1     -40.189  21.817  -3.436  0.00  0.00     0.098 C 
ATOM      2  C9  NON d   1     -38.965  22.205  -4.272  0.00  0.00    -0.011 C 
ATOM      3  C10 NON d   1     -37.644  22.395  -3.872  0.00  0.00     0.014 C 
ATOM      4  C11 NON d   1     -36.727  23.002  -4.740  0.00  0.00     0.037 C 
ATOM      5  C12 NON d   1     -37.098  23.330  -6.039  0.00  0.00     0.068 C 
ATOM      6  C13 NON d   1     -38.345  22.972  -6.524  0.00  0.00     0.074 C 
ATOM      7  C14 NON d   1     -39.248  22.379  -5.644  0.00  0.00     0.087 C 
ATOM      8  O3  NON d   1     -40.442  21.911  -6.162  0.00  0.00    -0.291 OA
ATOM      9  C15 NON d   1     -40.930  20.773  -5.540  0.00  0.00     0.182 C 
ATOM     10  N1  NON d   1     -41.486  19.884  -6.370  0.00  0.00    -0.219 NA
ATOM     11  C16 NON d   1     -41.963  18.777  -5.791  0.00  0.00     0.214 C 
ATOM     12  N2  NON d   1     -41.911  18.494  -4.478  0.00  0.00    -0.327 N 
ATOM     13  C20 NON d   1     -41.179  19.329  -3.669  0.00  0.00     0.113 C 
ATOM     14  C21 NON d   1     -40.791  20.588  -4.160  0.00  0.00     0.052 C 
ENDROOT
BRANCH   1  15
ATOM     15  C7  NON d   1     -40.297  22.004  -1.898  0.00  0.00    -0.011 C 
ATOM     16  C6  NON d   1     -40.880  23.200  -1.415  0.00  0.00     0.011 C 
ATOM     17  C5  NON d   1     -41.072  23.456  -0.055  0.00  0.00     0.001 C 
ATOM     18  C4  NON d   1     -40.618  22.547   0.883  0.00  0.00     0.003 C 
ATOM     19  C3  NON d   1     -39.888  21.443   0.460  0.00  0.00     0.037 C 
ATOM     20  C2  NON d   1     -39.662  21.213  -0.907  0.00  0.00     0.075 C 
BRANCH  20  21
ATOM     21  O1  NON d   1     -38.752  20.284  -1.314  0.00  0.00    -0.355 OA
ATOM     22  C1  NON d   1     -37.259  20.600  -1.100  0.00  0.00     0.210 C 
ENDBRANCH  20  21
ENDBRANCH   1  15
BRANCH  13  23
ATOM     23  N3  NON d   1     -40.927  18.951  -2.354  0.00  0.00    -0.385 N 
ATOM     24  H21 NON d   1     -41.711  19.092  -1.713  0.00  0.00     0.157 HD
ATOM     25  H22 NON d   1     -40.053  19.172  -1.899  0.00  0.00     0.157 HD
ENDBRANCH  13  23
BRANCH  12  26
ATOM     26  C17 NON d   1     -42.729  17.399  -3.869  0.00  0.00     0.133 C 
BRANCH  26  27
ATOM     27  C18 NON d   1     -43.874  16.803  -4.689  0.00  0.00     0.046 C 
BRANCH  27  28
ATOM     28  C19 NON d   1     -45.015  17.795  -4.886  0.00  0.00     0.165 C 
BRANCH  28  29
ATOM     29  O4  NON d   1     -45.942  17.252  -5.810  0.00  0.00    -0.401 OA
ATOM     30  H20 NON d   1     -46.701  17.871  -5.841  0.00  0.00     0.209 HD
ENDBRANCH  28  29
ENDBRANCH  27  28
ENDBRANCH  26  27
ENDBRANCH  12  26
BRANCH   5  31
ATOM     31  O2  NON d   1     -36.190  23.980  -6.819  0.00  0.00    -0.361 OA
ATOM     32  H11 NON d   1     -36.437  23.869  -7.752  0.00  0.00     0.217 HD
ENDBRANCH   5  31
TORSDOF 8
ENDMDL
MODEL 8
REMARK VINA RESULT:    -8.101      2.031      2.686
REMARK INTER + INTRA:         -12.057
REMARK INTER:                 -10.487
REMARK INTRA:                  -1.569
REMARK CONF_INDEPENDENT:        2.386
REMARK UNBOUND:                -1.569
REMARK  8 active torsions:
REMARK  status: ('A' for Active; 'I' for Inactive)
REMARK    1  A    between atoms: O1_2  and  C2_3 
REMARK    2  A    between atoms: C8_9  and  C7_8 
REMARK    3  A    between atoms: C12_13  and  O2_14 
REMARK    4  A    between atoms: N2_21  and  C17_22 
REMARK    5  A    between atoms: C17_22  and  C18_23 
REMARK    6  A    between atoms: C18_23  and  C19_24 
REMARK    7  A    between atoms: C19_24  and  O4_25 
REMARK    8  A    between atoms: C20_26  and  N3_27 
ROOT
ATOM      1  C8  NON d   1     -39.781  21.634  -2.903  0.00  0.00     0.098 C 
ATOM      2  C9  NON d   1     -40.207  22.389  -1.640  0.00  0.00    -0.011 C 
ATOM      3  C10 NON d   1     -40.625  23.710  -1.497  0.00  0.00     0.014 C 
ATOM      4  C11 NON d   1     -40.719  24.284  -0.222  0.00  0.00     0.037 C 
ATOM      5  C12 NON d   1     -40.492  23.516   0.914  0.00  0.00     0.068 C 
ATOM      6  C13 NON d   1     -40.269  22.153   0.807  0.00  0.00     0.074 C 
ATOM      7  C14 NON d   1     -40.168  21.602  -0.469  0.00  0.00     0.087 C 
ATOM      8  O3  NON d   1     -40.070  20.226  -0.571  0.00  0.00    -0.291 OA
ATOM      9  C15 NON d   1     -40.684  19.690  -1.692  0.00  0.00     0.182 C 
ATOM     10  N1  NON d   1     -41.315  18.531  -1.475  0.00  0.00    -0.219 NA
ATOM     11  C16 NON d   1     -41.917  17.994  -2.542  0.00  0.00     0.214 C 
ATOM     12  N2  NON d   1     -41.945  18.528  -3.776  0.00  0.00    -0.327 N 
ATOM     13  C20 NON d   1     -41.450  19.799  -3.939  0.00  0.00     0.113 C 
ATOM     14  C21 NON d   1     -40.659  20.360  -2.919  0.00  0.00     0.052 C 
ENDROOT
BRANCH   1  15
ATOM     15  C7  NON d   1     -39.290  22.315  -4.209  0.00  0.00    -0.011 C 
ATOM     16  C6  NON d   1     -37.905  22.273  -4.498  0.00  0.00     0.011 C 
ATOM     17  C5  NON d   1     -37.356  22.810  -5.666  0.00  0.00     0.001 C 
ATOM     18  C4  NON d   1     -38.171  23.478  -6.561  0.00  0.00     0.003 C 
ATOM     19  C3  NON d   1     -39.505  23.692  -6.234  0.00  0.00     0.037 C 
ATOM     20  C2  NON d   1     -40.041  23.185  -5.039  0.00  0.00     0.075 C 
BRANCH  20  21
ATOM     21  O1  NON d   1     -41.264  23.595  -4.598  0.00  0.00    -0.355 OA
ATOM     22  C1  NON d   1     -41.458  25.096  -4.312  0.00  0.00     0.210 C 
ENDBRANCH  20  21
ENDBRANCH   1  15
BRANCH  13  23
ATOM     23  N3  NON d   1     -41.657  20.460  -5.146  0.00  0.00    -0.385 N 
ATOM     24  H21 NON d   1     -41.663  21.479  -5.076  0.00  0.00     0.157 HD
ATOM     25  H22 NON d   1     -42.352  20.145  -5.808  0.00  0.00     0.157 HD
ENDBRANCH  13  23
BRANCH  12  26
ATOM     26  C17 NON d   1     -42.362  17.735  -4.975  0.00  0.00     0.133 C 
BRANCH  26  27
ATOM     27  C18 NON d   1     -43.696  16.988  -4.925  0.00  0.00     0.046 C 
BRANCH  27  28
ATOM     28  C19 NON d   1     -44.885  17.926  -5.088  0.00  0.00     0.165 C 
BRANCH  28  29
ATOM     29  O4  NON d   1     -45.904  17.256  -5.809  0.00  0.00    -0.401 OA
ATOM     30  H20 NON d   1     -46.725  17.778  -5.686  0.00  0.00     0.209 HD
ENDBRANCH  28  29
ENDBRANCH  27  28
ENDBRANCH  26  27
ENDBRANCH  12  26
BRANCH   5  31
ATOM     31  O2  NON d   1     -40.529  24.138   2.126  0.00  0.00    -0.361 OA
ATOM     32  H11 NON d   1     -39.806  23.799   2.678  0.00  0.00     0.217 HD
ENDBRANCH   5  31
TORSDOF 8
ENDMDL
