MODEL 1
REMARK VINA RESULT:   -28.481      0.000      0.000
REMARK INTER + INTRA:         -30.574
REMARK INTER:                 -29.973
REMARK INTRA:                  -0.601
REMARK CONF_INDEPENDENT:        1.492
REMARK UNBOUND:                -0.601
REMARK  5 active torsions:
REMARK  status: ('A' for Active; 'I' for Inactive)
REMARK    1  A    between atoms: C4_7  and  C5_8 
REMARK    2  A    between atoms: C5_8  and  C6_9 
REMARK       I    between atoms: C6_9  and  N2_11 
REMARK    3  A    between atoms: N2_11  and  C7_12 
REMARK    4  A    between atoms: C8_14  and  C9_15 
REMARK    5  A    between atoms: C11_18  and  C12_19 
REMARK       I    between atoms: C12_19  and  N5_20 
ROOT
ATOM      1  C7  NON d   1     -41.426  18.546  -3.630  0.00  0.00     0.173 A 
ATOM      2  N3  NON d   1     -41.040  18.770  -4.881  0.00  0.00    -0.223 NA
ATOM      3  C8  NON d   1     -39.657  19.018  -4.909  0.00  0.00     0.078 A 
ATOM      4  C14 NON d   1     -39.052  19.017  -3.668  0.00  0.00     0.086 A 
ATOM      5  S3  NON d   1     -40.194  18.734  -2.453  0.00  0.00    -0.061 SA
ENDROOT
BRANCH   1   6
ATOM      6  N2  NON d   1     -42.731  18.241  -3.234  0.00  0.00    -0.306 N 
ATOM      7  C6  NON d   1     -43.668  17.606  -4.043  0.00  0.00     0.225 C 
ATOM      8  O1  NON d   1     -43.495  17.336  -5.230  0.00  0.00    -0.273 OA
ATOM      9  H7  NON d   1     -42.992  18.632  -2.340  0.00  0.00     0.171 HD
BRANCH   7  10
ATOM     10  C5  NON d   1     -45.034  17.287  -3.412  0.00  0.00     0.124 C 
BRANCH  10  11
ATOM     11  C4  NON d   1     -45.850  16.373  -4.362  0.00  0.00     0.111 C 
ATOM     12  S2  NON d   1     -47.166  15.464  -3.478  0.00  0.00    -0.087 SA
ATOM     13  C3  NON d   1     -48.198  15.535  -4.913  0.00  0.00     0.161 C 
ATOM     14  N1  NON d   1     -47.814  16.505  -5.811  0.00  0.00    -0.238 NA
ATOM     15  S1  NON d   1     -49.484  14.488  -5.118  0.00  0.00    -0.051 SA
ATOM     16  C2  NON d   1     -46.634  16.972  -5.539  0.00  0.00     0.025 C 
ATOM     17  C1  NON d   1     -45.946  18.038  -6.412  0.00  0.00     0.067 C 
ENDBRANCH  10  11
ENDBRANCH   7  10
ENDBRANCH   1   6
BRANCH   3  18
ATOM     18  C9  NON d   1     -38.898  19.262  -6.156  0.00  0.00     0.011 A 
ATOM     19  C10 NON d   1     -37.639  18.861  -6.544  0.00  0.00     0.102 A 
ATOM     20  N4  NON d   1     -37.405  19.346  -7.818  0.00  0.00    -0.361 N 
ATOM     21  C11 NON d   1     -38.495  20.058  -8.276  0.00  0.00     0.101 A 
ATOM     22  H9  NON d   1     -36.553  19.193  -8.337  0.00  0.00     0.165 HD
ATOM     23  C13 NON d   1     -39.422  20.014  -7.247  0.00  0.00     0.050 A 
BRANCH  21  24
ATOM     24  C12 NON d   1     -38.673  20.728  -9.550  0.00  0.00     0.266 C 
ATOM     25  N5  NON d   1     -39.908  21.242  -9.820  0.00  0.00    -0.365 N 
ATOM     26  H10 NON d   1     -40.001  21.720 -10.707  0.00  0.00     0.159 HD
ATOM     27  H11 NON d   1     -40.701  21.223  -9.202  0.00  0.00     0.159 HD
ATOM     28  O2  NON d   1     -37.784  20.866 -10.387  0.00  0.00    -0.266 OA
ENDBRANCH  21  24
ENDBRANCH   3  18
TORSDOF 5
ENDMDL
MODEL 2
REMARK VINA RESULT:   -28.466      1.192      1.336
REMARK INTER + INTRA:         -30.678
REMARK INTER:                 -29.957
REMARK INTRA:                  -0.720
REMARK CONF_INDEPENDENT:        1.492
REMARK UNBOUND:                -0.720
REMARK  5 active torsions:
REMARK  status: ('A' for Active; 'I' for Inactive)
REMARK    1  A    between atoms: C4_7  and  C5_8 
REMARK    2  A    between atoms: C5_8  and  C6_9 
REMARK       I    between atoms: C6_9  and  N2_11 
REMARK    3  A    between atoms: N2_11  and  C7_12 
REMARK    4  A    between atoms: C8_14  and  C9_15 
REMARK    5  A    between atoms: C11_18  and  C12_19 
REMARK       I    between atoms: C12_19  and  N5_20 
ROOT
ATOM      1  C7  NON d   1     -41.847  18.736  -5.093  0.00  0.00     0.173 A 
ATOM      2  N3  NON d   1     -41.512  19.189  -6.295  0.00  0.00    -0.223 NA
ATOM      3  C8  NON d   1     -40.111  19.249  -6.401  0.00  0.00     0.078 A 
ATOM      4  C14 NON d   1     -39.437  18.880  -5.254  0.00  0.00     0.086 A 
ATOM      5  S3  NON d   1     -40.529  18.480  -4.028  0.00  0.00    -0.061 SA
ENDROOT
BRANCH   1   6
ATOM      6  N2  NON d   1     -43.156  18.525  -4.650  0.00  0.00    -0.306 N 
ATOM      7  C6  NON d   1     -43.565  17.422  -3.907  0.00  0.00     0.225 C 
ATOM      8  O1  NON d   1     -42.852  16.456  -3.645  0.00  0.00    -0.273 OA
ATOM      9  H7  NON d   1     -43.826  19.184  -5.021  0.00  0.00     0.171 HD
BRANCH   7  10
ATOM     10  C5  NON d   1     -45.032  17.396  -3.447  0.00  0.00     0.124 C 
BRANCH  10  11
ATOM     11  C4  NON d   1     -45.849  16.439  -4.354  0.00  0.00     0.111 C 
ATOM     12  S2  NON d   1     -47.166  15.574  -3.429  0.00  0.00    -0.087 SA
ATOM     13  C3  NON d   1     -48.197  15.578  -4.867  0.00  0.00     0.161 C 
ATOM     14  N1  NON d   1     -47.811  16.505  -5.809  0.00  0.00    -0.238 NA
ATOM     15  S1  NON d   1     -49.484  14.525  -5.024  0.00  0.00    -0.051 SA
ATOM     16  C2  NON d   1     -46.631  16.983  -5.559  0.00  0.00     0.025 C 
ATOM     17  C1  NON d   1     -45.941  18.007  -6.480  0.00  0.00     0.067 C 
ENDBRANCH  10  11
ENDBRANCH   7  10
ENDBRANCH   1   6
BRANCH   3  18
ATOM     18  C9  NON d   1     -39.403  19.671  -7.631  0.00  0.00     0.011 A 
ATOM     19  C10 NON d   1     -38.557  18.981  -8.471  0.00  0.00     0.102 A 
ATOM     20  N4  NON d   1     -38.175  19.833  -9.492  0.00  0.00    -0.361 N 
ATOM     21  C11 NON d   1     -38.761  21.073  -9.337  0.00  0.00     0.101 A 
ATOM     22  H9  NON d   1     -37.555  19.576 -10.245  0.00  0.00     0.165 HD
ATOM     23  C13 NON d   1     -39.520  20.980  -8.181  0.00  0.00     0.050 A 
BRANCH  21  24
ATOM     24  C12 NON d   1     -38.635  22.250 -10.176  0.00  0.00     0.266 C 
ATOM     25  N5  NON d   1     -39.778  22.936 -10.467  0.00  0.00    -0.365 N 
ATOM     26  H10 NON d   1     -39.659  23.763 -11.039  0.00  0.00     0.159 HD
ATOM     27  H11 NON d   1     -40.698  22.717 -10.129  0.00  0.00     0.159 HD
ATOM     28  O2  NON d   1     -37.570  22.664 -10.627  0.00  0.00    -0.266 OA
ENDBRANCH  21  24
ENDBRANCH   3  18
TORSDOF 5
ENDMDL
MODEL 3
REMARK VINA RESULT:   -28.108      1.663      2.044
REMARK INTER + INTRA:         -30.352
REMARK INTER:                 -29.600
REMARK INTRA:                  -0.752
REMARK CONF_INDEPENDENT:        1.492
REMARK UNBOUND:                -0.752
REMARK  5 active torsions:
REMARK  status: ('A' for Active; 'I' for Inactive)
REMARK    1  A    between atoms: C4_7  and  C5_8 
REMARK    2  A    between atoms: C5_8  and  C6_9 
REMARK       I    between atoms: C6_9  and  N2_11 
REMARK    3  A    between atoms: N2_11  and  C7_12 
REMARK    4  A    between atoms: C8_14  and  C9_15 
REMARK    5  A    between atoms: C11_18  and  C12_19 
REMARK       I    between atoms: C12_19  and  N5_20 
ROOT
ATOM      1  C7  NON d   1     -42.183  19.257  -5.095  0.00  0.00     0.173 A 
ATOM      2  N3  NON d   1     -42.033  19.884  -6.256  0.00  0.00    -0.223 NA
ATOM      3  C8  NON d   1     -40.666  20.116  -6.490  0.00  0.00     0.078 A 
ATOM      4  C14 NON d   1     -39.834  19.694  -5.474  0.00  0.00     0.086 A 
ATOM      5  S3  NON d   1     -40.735  19.030  -4.207  0.00  0.00    -0.061 SA
ENDROOT
BRANCH   1   6
ATOM      6  N2  NON d   1     -43.407  18.846  -4.556  0.00  0.00    -0.306 N 
ATOM      7  C6  NON d   1     -43.649  17.579  -4.036  0.00  0.00     0.225 C 
ATOM      8  O1  NON d   1     -42.855  16.641  -4.086  0.00  0.00    -0.273 OA
ATOM      9  H7  NON d   1     -44.156  19.511  -4.685  0.00  0.00     0.171 HD
BRANCH   7  10
ATOM     10  C5  NON d   1     -45.035  17.331  -3.420  0.00  0.00     0.124 C 
BRANCH  10  11
ATOM     11  C4  NON d   1     -45.860  16.395  -4.343  0.00  0.00     0.111 C 
ATOM     12  S2  NON d   1     -47.195  15.539  -3.436  0.00  0.00    -0.087 SA
ATOM     13  C3  NON d   1     -48.216  15.574  -4.881  0.00  0.00     0.161 C 
ATOM     14  N1  NON d   1     -47.811  16.505  -5.810  0.00  0.00    -0.238 NA
ATOM     15  S1  NON d   1     -49.517  14.540  -5.058  0.00  0.00    -0.051 SA
ATOM     16  C2  NON d   1     -46.626  16.963  -5.547  0.00  0.00     0.025 C 
ATOM     17  C1  NON d   1     -45.915  17.987  -6.452  0.00  0.00     0.067 C 
ENDBRANCH  10  11
ENDBRANCH   7  10
ENDBRANCH   1   6
BRANCH   3  18
ATOM     18  C9  NON d   1     -40.148  20.759  -7.720  0.00  0.00     0.011 A 
ATOM     19  C10 NON d   1     -39.432  20.244  -8.777  0.00  0.00     0.102 A 
ATOM     20  N4  NON d   1     -39.207  21.266  -9.682  0.00  0.00    -0.361 N 
ATOM     21  C11 NON d   1     -39.767  22.445  -9.236  0.00  0.00     0.101 A 
ATOM     22  H9  NON d   1     -38.703  21.156 -10.550  0.00  0.00     0.165 HD
ATOM     23  C13 NON d   1     -40.348  22.138  -8.015  0.00  0.00     0.050 A 
BRANCH  21  24
ATOM     24  C12 NON d   1     -39.769  23.749  -9.871  0.00  0.00     0.266 C 
ATOM     25  N5  NON d   1     -40.755  24.620  -9.510  0.00  0.00    -0.365 N 
ATOM     26  H10 NON d   1     -40.723  25.529  -9.954  0.00  0.00     0.159 HD
ATOM     27  H11 NON d   1     -41.466  24.451  -8.820  0.00  0.00     0.159 HD
ATOM     28  O2  NON d   1     -38.938  24.113 -10.700  0.00  0.00    -0.266 OA
ENDBRANCH  21  24
ENDBRANCH   3  18
TORSDOF 5
ENDMDL
MODEL 4
REMARK VINA RESULT:   -26.687      2.703      2.850
REMARK INTER + INTRA:         -28.884
REMARK INTER:                 -28.178
REMARK INTRA:                  -0.706
REMARK CONF_INDEPENDENT:        1.492
REMARK UNBOUND:                -0.706
REMARK  5 active torsions:
REMARK  status: ('A' for Active; 'I' for Inactive)
REMARK    1  A    between atoms: C4_7  and  C5_8 
REMARK    2  A    between atoms: C5_8  and  C6_9 
REMARK       I    between atoms: C6_9  and  N2_11 
REMARK    3  A    between atoms: N2_11  and  C7_12 
REMARK    4  A    between atoms: C8_14  and  C9_15 
REMARK    5  A    between atoms: C11_18  and  C12_19 
REMARK       I    between atoms: C12_19  and  N5_20 
ROOT
ATOM      1  C7  NON d   1     -42.160  18.807  -5.323  0.00  0.00     0.173 A 
ATOM      2  N3  NON d   1     -41.623  20.020  -5.295  0.00  0.00    -0.223 NA
ATOM      3  C8  NON d   1     -40.371  19.994  -5.936  0.00  0.00     0.078 A 
ATOM      4  C14 NON d   1     -39.987  18.748  -6.386  0.00  0.00     0.086 A 
ATOM      5  S3  NON d   1     -41.158  17.592  -5.999  0.00  0.00    -0.061 SA
ENDROOT
BRANCH   1   6
ATOM      6  N2  NON d   1     -43.412  18.470  -4.799  0.00  0.00    -0.306 N 
ATOM      7  C6  NON d   1     -43.631  17.442  -3.888  0.00  0.00     0.225 C 
ATOM      8  O1  NON d   1     -42.772  16.643  -3.519  0.00  0.00    -0.273 OA
ATOM      9  H7  NON d   1     -44.183  18.958  -5.232  0.00  0.00     0.171 HD
BRANCH   7  10
ATOM     10  C5  NON d   1     -45.066  17.264  -3.368  0.00  0.00     0.124 C 
BRANCH  10  11
ATOM     11  C4  NON d   1     -45.868  16.359  -4.340  0.00  0.00     0.111 C 
ATOM     12  S2  NON d   1     -47.191  15.434  -3.483  0.00  0.00    -0.087 SA
ATOM     13  C3  NON d   1     -48.206  15.520  -4.929  0.00  0.00     0.161 C 
ATOM     14  N1  NON d   1     -47.816  16.504  -5.810  0.00  0.00    -0.238 NA
ATOM     15  S1  NON d   1     -49.486  14.472  -5.163  0.00  0.00    -0.051 SA
ATOM     16  C2  NON d   1     -46.640  16.971  -5.518  0.00  0.00     0.025 C 
ATOM     17  C1  NON d   1     -45.946  18.051  -6.369  0.00  0.00     0.067 C 
ENDBRANCH  10  11
ENDBRANCH   7  10
ENDBRANCH   1   6
BRANCH   3  18
ATOM     18  C9  NON d   1     -39.524  21.195  -6.119  0.00  0.00     0.011 A 
ATOM     19  C10 NON d   1     -38.246  21.335  -6.612  0.00  0.00     0.102 A 
ATOM     20  N4  NON d   1     -37.918  22.679  -6.584  0.00  0.00    -0.361 N 
ATOM     21  C11 NON d   1     -38.965  23.425  -6.083  0.00  0.00     0.101 A 
ATOM     22  H9  NON d   1     -37.034  23.055  -6.893  0.00  0.00     0.165 HD
ATOM     23  C13 NON d   1     -39.963  22.509  -5.787  0.00  0.00     0.050 A 
BRANCH  21  24
ATOM     24  C12 NON d   1     -39.046  24.860  -5.886  0.00  0.00     0.266 C 
ATOM     25  N5  NON d   1     -40.246  25.370  -5.481  0.00  0.00    -0.365 N 
ATOM     26  H10 NON d   1     -40.271  26.371  -5.334  0.00  0.00     0.159 HD
ATOM     27  H11 NON d   1     -41.073  24.836  -5.279  0.00  0.00     0.159 HD
ATOM     28  O2  NON d   1     -38.107  25.634  -6.053  0.00  0.00    -0.266 OA
ENDBRANCH  21  24
ENDBRANCH   3  18
TORSDOF 5
ENDMDL
