MODEL 1
REMARK VINA RESULT:   -32.374      0.000      0.000
REMARK INTER + INTRA:         -34.354
REMARK INTER:                 -34.164
REMARK INTRA:                  -0.190
REMARK CONF_INDEPENDENT:        1.790
REMARK UNBOUND:                -0.190
REMARK  6 active torsions:
REMARK  status: ('A' for Active; 'I' for Inactive)
REMARK    1  A    between atoms: O1_2  and  N1_3 
REMARK       I    between atoms: N1_3  and  C2_4 
REMARK       I    between atoms: C2_4  and  N2_6 
REMARK    2  A    between atoms: C3_7  and  N2_6 
REMARK    3  A    between atoms: C3_7  and  C5_9 
REMARK    4  A    between atoms: C8_12  and  O3_13 
REMARK    5  A    between atoms: O3_13  and  C9_14 
REMARK    6  A    between atoms: C14_19  and  O4_20 
ROOT
ATOM      1  C5  NON d   1     -42.817  18.712  -4.762  0.00  0.00    -0.033 A 
ATOM      2  C6  NON d   1     -41.754  19.044  -3.913  0.00  0.00     0.012 A 
ATOM      3  C7  NON d   1     -40.615  19.692  -4.414  0.00  0.00     0.040 A 
ATOM      4  C8  NON d   1     -40.503  20.036  -5.766  0.00  0.00     0.102 A 
ATOM      5  C14 NON d   1     -41.582  19.775  -6.609  0.00  0.00     0.102 A 
ATOM      6  C16 NON d   1     -42.734  19.148  -6.100  0.00  0.00     0.049 A 
ENDROOT
BRANCH   1   7
ATOM      7  C3  NON d   1     -43.827  17.635  -4.376  0.00  0.00     0.115 C 
ATOM      8  C4  NON d   1     -44.066  17.152  -2.934  0.00  0.00     0.037 C 
BRANCH   7   9
ATOM      9  N2  NON d   1     -45.095  17.732  -5.091  0.00  0.00    -0.338 N 
ATOM     10  C2  NON d   1     -46.084  16.788  -4.863  0.00  0.00     0.318 C 
ATOM     11  N1  NON d   1     -47.090  16.879  -5.810  0.00  0.00    -0.120 NA
ATOM     12  O2  NON d   1     -46.023  15.945  -3.975  0.00  0.00    -0.252 OA
ATOM     13  H4  NON d   1     -46.727  17.083  -6.734  0.00  0.00     0.165 HD
ATOM     14  H5  NON d   1     -45.387  18.635  -5.431  0.00  0.00     0.164 HD
BRANCH  11  15
ATOM     15  O1  NON d   1     -47.905  15.710  -5.817  0.00  0.00    -0.302 OA
ATOM     16  C1  NON d   1     -48.604  15.639  -4.581  0.00  0.00     0.230 C 
ENDBRANCH  11  15
ENDBRANCH   7   9
ENDBRANCH   1   7
BRANCH   5  17
ATOM     17  O4  NON d   1     -41.514  20.082  -7.942  0.00  0.00    -0.353 OA
ATOM     18  C15 NON d   1     -40.648  21.187  -8.211  0.00  0.00     0.210 C 
ENDBRANCH   5  17
BRANCH   4  19
ATOM     19  O3  NON d   1     -39.245  20.427  -6.132  0.00  0.00    -0.343 OA
BRANCH  19  20
ATOM     20  C9  NON d   1     -38.268  19.443  -6.457  0.00  0.00     0.129 C 
ATOM     21  C10 NON d   1     -38.632  18.911  -7.848  0.00  0.00     0.032 C 
ATOM     22  C11 NON d   1     -37.319  18.412  -8.413  0.00  0.00     0.002 C 
ATOM     23  C12 NON d   1     -36.326  19.478  -7.983  0.00  0.00     0.002 C 
ATOM     24  C13 NON d   1     -36.860  20.024  -6.659  0.00  0.00     0.032 C 
ENDBRANCH  19  20
ENDBRANCH   4  19
TORSDOF 6
ENDMDL
MODEL 2
REMARK VINA RESULT:   -32.242      1.183      2.335
REMARK INTER + INTRA:         -34.909
REMARK INTER:                 -34.031
REMARK INTRA:                  -0.877
REMARK CONF_INDEPENDENT:        1.790
REMARK UNBOUND:                -0.877
REMARK  6 active torsions:
REMARK  status: ('A' for Active; 'I' for Inactive)
REMARK    1  A    between atoms: O1_2  and  N1_3 
REMARK       I    between atoms: N1_3  and  C2_4 
REMARK       I    between atoms: C2_4  and  N2_6 
REMARK    2  A    between atoms: C3_7  and  N2_6 
REMARK    3  A    between atoms: C3_7  and  C5_9 
REMARK    4  A    between atoms: C8_12  and  O3_13 
REMARK    5  A    between atoms: O3_13  and  C9_14 
REMARK    6  A    between atoms: C14_19  and  O4_20 
ROOT
ATOM      1  C5  NON d   1     -42.565  18.071  -5.022  0.00  0.00    -0.033 A 
ATOM      2  C6  NON d   1     -42.740  19.228  -5.791  0.00  0.00     0.012 A 
ATOM      3  C7  NON d   1     -41.667  20.101  -6.025  0.00  0.00     0.040 A 
ATOM      4  C8  NON d   1     -40.391  19.846  -5.509  0.00  0.00     0.102 A 
ATOM      5  C14 NON d   1     -40.185  18.665  -4.798  0.00  0.00     0.102 A 
ATOM      6  C16 NON d   1     -41.256  17.778  -4.588  0.00  0.00     0.049 A 
ENDROOT
BRANCH   1   7
ATOM      7  C3  NON d   1     -43.755  17.368  -4.374  0.00  0.00     0.115 C 
ATOM      8  C4  NON d   1     -43.998  17.303  -2.855  0.00  0.00     0.037 C 
BRANCH   7   9
ATOM      9  N2  NON d   1     -45.016  17.572  -5.078  0.00  0.00    -0.338 N 
ATOM     10  C2  NON d   1     -46.066  16.692  -4.873  0.00  0.00     0.318 C 
ATOM     11  N1  NON d   1     -47.067  16.880  -5.810  0.00  0.00    -0.120 NA
ATOM     12  O2  NON d   1     -46.059  15.818  -4.012  0.00  0.00    -0.252 OA
ATOM     13  H4  NON d   1     -46.696  17.089  -6.729  0.00  0.00     0.165 HD
ATOM     14  H5  NON d   1     -45.248  18.504  -5.387  0.00  0.00     0.164 HD
BRANCH  11  15
ATOM     15  O1  NON d   1     -47.960  15.770  -5.849  0.00  0.00    -0.302 OA
ATOM     16  C1  NON d   1     -48.685  15.731  -4.627  0.00  0.00     0.230 C 
ENDBRANCH  11  15
ENDBRANCH   7   9
ENDBRANCH   1   7
BRANCH   5  17
ATOM     17  O4  NON d   1     -38.957  18.379  -4.264  0.00  0.00    -0.353 OA
ATOM     18  C15 NON d   1     -38.991  18.250  -2.840  0.00  0.00     0.210 C 
ENDBRANCH   5  17
BRANCH   4  19
ATOM     19  O3  NON d   1     -39.535  20.907  -5.613  0.00  0.00    -0.343 OA
BRANCH  19  20
ATOM     20  C9  NON d   1     -38.832  21.130  -6.831  0.00  0.00     0.129 C 
ATOM     21  C10 NON d   1     -38.466  19.747  -7.381  0.00  0.00     0.032 C 
ATOM     22  C11 NON d   1     -38.336  19.960  -8.875  0.00  0.00     0.002 C 
ATOM     23  C12 NON d   1     -39.497  20.885  -9.197  0.00  0.00     0.002 C 
ATOM     24  C13 NON d   1     -39.708  21.730  -7.941  0.00  0.00     0.032 C 
ENDBRANCH  19  20
ENDBRANCH   4  19
TORSDOF 6
ENDMDL
MODEL 3
REMARK VINA RESULT:   -31.925      2.030      3.428
REMARK INTER + INTRA:         -34.704
REMARK INTER:                 -33.715
REMARK INTRA:                  -0.989
REMARK CONF_INDEPENDENT:        1.790
REMARK UNBOUND:                -0.989
REMARK  6 active torsions:
REMARK  status: ('A' for Active; 'I' for Inactive)
REMARK    1  A    between atoms: O1_2  and  N1_3 
REMARK       I    between atoms: N1_3  and  C2_4 
REMARK       I    between atoms: C2_4  and  N2_6 
REMARK    2  A    between atoms: C3_7  and  N2_6 
REMARK    3  A    between atoms: C3_7  and  C5_9 
REMARK    4  A    between atoms: C8_12  and  O3_13 
REMARK    5  A    between atoms: O3_13  and  C9_14 
REMARK    6  A    between atoms: C14_19  and  O4_20 
ROOT
ATOM      1  C5  NON d   1     -42.602  18.161  -5.032  0.00  0.00    -0.033 A 
ATOM      2  C6  NON d   1     -42.756  19.322  -5.800  0.00  0.00     0.012 A 
ATOM      3  C7  NON d   1     -41.656  20.146  -6.079  0.00  0.00     0.040 A 
ATOM      4  C8  NON d   1     -40.373  19.838  -5.612  0.00  0.00     0.102 A 
ATOM      5  C14 NON d   1     -40.191  18.650  -4.905  0.00  0.00     0.102 A 
ATOM      6  C16 NON d   1     -41.291  17.812  -4.649  0.00  0.00     0.049 A 
ENDROOT
BRANCH   1   7
ATOM      7  C3  NON d   1     -43.794  17.512  -4.336  0.00  0.00     0.115 C 
ATOM      8  C4  NON d   1     -44.045  17.571  -2.818  0.00  0.00     0.037 C 
BRANCH   7   9
ATOM      9  N2  NON d   1     -45.052  17.658  -5.060  0.00  0.00    -0.338 N 
ATOM     10  C2  NON d   1     -46.071  16.741  -4.856  0.00  0.00     0.318 C 
ATOM     11  N1  NON d   1     -47.065  16.878  -5.810  0.00  0.00    -0.120 NA
ATOM     12  O2  NON d   1     -46.044  15.882  -3.982  0.00  0.00    -0.252 OA
ATOM     13  H4  NON d   1     -46.689  17.087  -6.727  0.00  0.00     0.165 HD
ATOM     14  H5  NON d   1     -45.315  18.576  -5.386  0.00  0.00     0.164 HD
BRANCH  11  15
ATOM     15  O1  NON d   1     -47.915  15.735  -5.844  0.00  0.00    -0.302 OA
ATOM     16  C1  NON d   1     -48.662  15.691  -4.635  0.00  0.00     0.230 C 
ENDBRANCH  11  15
ENDBRANCH   7   9
ENDBRANCH   1   7
BRANCH   5  17
ATOM     17  O4  NON d   1     -38.957  18.312  -4.418  0.00  0.00    -0.353 OA
ATOM     18  C15 NON d   1     -38.970  18.052  -3.012  0.00  0.00     0.210 C 
ENDBRANCH   5  17
BRANCH   4  19
ATOM     19  O3  NON d   1     -39.476  20.859  -5.754  0.00  0.00    -0.343 OA
BRANCH  19  20
ATOM     20  C9  NON d   1     -39.394  21.871  -4.755  0.00  0.00     0.129 C 
ATOM     21  C10 NON d   1     -39.970  23.147  -5.379  0.00  0.00     0.032 C 
ATOM     22  C11 NON d   1     -40.462  23.955  -4.196  0.00  0.00     0.002 C 
ATOM     23  C12 NON d   1     -41.101  22.907  -3.301  0.00  0.00     0.002 C 
ATOM     24  C13 NON d   1     -40.317  21.619  -3.553  0.00  0.00     0.032 C 
ENDBRANCH  19  20
ENDBRANCH   4  19
TORSDOF 6
ENDMDL
MODEL 4
REMARK VINA RESULT:   -31.901      1.427      2.126
REMARK INTER + INTRA:         -34.480
REMARK INTER:                 -33.691
REMARK INTRA:                  -0.789
REMARK CONF_INDEPENDENT:        1.790
REMARK UNBOUND:                -0.789
REMARK  6 active torsions:
REMARK  status: ('A' for Active; 'I' for Inactive)
REMARK    1  A    between atoms: O1_2  and  N1_3 
REMARK       I    between atoms: N1_3  and  C2_4 
REMARK       I    between atoms: C2_4  and  N2_6 
REMARK    2  A    between atoms: C3_7  and  N2_6 
REMARK    3  A    between atoms: C3_7  and  C5_9 
REMARK    4  A    between atoms: C8_12  and  O3_13 
REMARK    5  A    between atoms: O3_13  and  C9_14 
REMARK    6  A    between atoms: C14_19  and  O4_20 
ROOT
ATOM      1  C5  NON d   1     -42.715  18.601  -5.124  0.00  0.00    -0.033 A 
ATOM      2  C6  NON d   1     -42.627  19.892  -4.589  0.00  0.00     0.012 A 
ATOM      3  C7  NON d   1     -41.462  20.656  -4.753  0.00  0.00     0.040 A 
ATOM      4  C8  NON d   1     -40.357  20.164  -5.459  0.00  0.00     0.102 A 
ATOM      5  C14 NON d   1     -40.455  18.908  -6.055  0.00  0.00     0.102 A 
ATOM      6  C16 NON d   1     -41.635  18.155  -5.911  0.00  0.00     0.049 A 
ENDROOT
BRANCH   1   7
ATOM      7  C3  NON d   1     -43.734  17.596  -4.593  0.00  0.00     0.115 C 
ATOM      8  C4  NON d   1     -43.870  17.207  -3.109  0.00  0.00     0.037 C 
BRANCH   7   9
ATOM      9  N2  NON d   1     -45.052  17.712  -5.206  0.00  0.00    -0.338 N 
ATOM     10  C2  NON d   1     -46.016  16.751  -4.946  0.00  0.00     0.318 C 
ATOM     11  N1  NON d   1     -47.091  16.874  -5.810  0.00  0.00    -0.120 NA
ATOM     12  O2  NON d   1     -45.884  15.871  -4.102  0.00  0.00    -0.252 OA
ATOM     13  H4  NON d   1     -46.800  17.121  -6.748  0.00  0.00     0.165 HD
ATOM     14  H5  NON d   1     -45.374  18.627  -5.483  0.00  0.00     0.164 HD
BRANCH  11  15
ATOM     15  O1  NON d   1     -47.898  15.699  -5.807  0.00  0.00    -0.302 OA
ATOM     16  C1  NON d   1     -48.515  15.579  -4.533  0.00  0.00     0.230 C 
ENDBRANCH  11  15
ENDBRANCH   7   9
ENDBRANCH   1   7
BRANCH   5  17
ATOM     17  O4  NON d   1     -39.397  18.379  -6.744  0.00  0.00    -0.353 OA
ATOM     18  C15 NON d   1     -39.292  18.891  -8.075  0.00  0.00     0.210 C 
ENDBRANCH   5  17
BRANCH   4  19
ATOM     19  O3  NON d   1     -39.229  20.922  -5.311  0.00  0.00    -0.343 OA
BRANCH  19  20
ATOM     20  C9  NON d   1     -38.210  20.502  -4.409  0.00  0.00     0.129 C 
ATOM     21  C10 NON d   1     -38.872  19.527  -3.428  0.00  0.00     0.032 C 
ATOM     22  C11 NON d   1     -37.736  18.647  -2.950  0.00  0.00     0.002 C 
ATOM     23  C12 NON d   1     -36.933  18.397  -4.214  0.00  0.00     0.002 C 
ATOM     24  C13 NON d   1     -37.119  19.648  -5.072  0.00  0.00     0.032 C 
ENDBRANCH  19  20
ENDBRANCH   4  19
TORSDOF 6
ENDMDL
MODEL 5
REMARK VINA RESULT:   -31.878      1.306      1.914
REMARK INTER + INTRA:         -34.543
REMARK INTER:                 -33.668
REMARK INTRA:                  -0.875
REMARK CONF_INDEPENDENT:        1.790
REMARK UNBOUND:                -0.875
REMARK  6 active torsions:
REMARK  status: ('A' for Active; 'I' for Inactive)
REMARK    1  A    between atoms: O1_2  and  N1_3 
REMARK       I    between atoms: N1_3  and  C2_4 
REMARK       I    between atoms: C2_4  and  N2_6 
REMARK    2  A    between atoms: C3_7  and  N2_6 
REMARK    3  A    between atoms: C3_7  and  C5_9 
REMARK    4  A    between atoms: C8_12  and  O3_13 
REMARK    5  A    between atoms: O3_13  and  C9_14 
REMARK    6  A    between atoms: C14_19  and  O4_20 
ROOT
ATOM      1  C5  NON d   1     -42.705  18.585  -5.131  0.00  0.00    -0.033 A 
ATOM      2  C6  NON d   1     -42.632  19.900  -4.656  0.00  0.00     0.012 A 
ATOM      3  C7  NON d   1     -41.465  20.659  -4.827  0.00  0.00     0.040 A 
ATOM      4  C8  NON d   1     -40.343  20.138  -5.481  0.00  0.00     0.102 A 
ATOM      5  C14 NON d   1     -40.423  18.855  -6.019  0.00  0.00     0.102 A 
ATOM      6  C16 NON d   1     -41.604  18.105  -5.870  0.00  0.00     0.049 A 
ENDROOT
BRANCH   1   7
ATOM      7  C3  NON d   1     -43.734  17.603  -4.580  0.00  0.00     0.115 C 
ATOM      8  C4  NON d   1     -43.876  17.247  -3.088  0.00  0.00     0.037 C 
BRANCH   7   9
ATOM      9  N2  NON d   1     -45.051  17.719  -5.196  0.00  0.00    -0.338 N 
ATOM     10  C2  NON d   1     -46.014  16.756  -4.943  0.00  0.00     0.318 C 
ATOM     11  N1  NON d   1     -47.086  16.880  -5.810  0.00  0.00    -0.120 NA
ATOM     12  O2  NON d   1     -45.884  15.872  -4.102  0.00  0.00    -0.252 OA
ATOM     13  H4  NON d   1     -46.793  17.131  -6.746  0.00  0.00     0.165 HD
ATOM     14  H5  NON d   1     -45.374  18.634  -5.471  0.00  0.00     0.164 HD
BRANCH  11  15
ATOM     15  O1  NON d   1     -47.892  15.704  -5.814  0.00  0.00    -0.302 OA
ATOM     16  C1  NON d   1     -48.577  15.622  -4.571  0.00  0.00     0.230 C 
ENDBRANCH  11  15
ENDBRANCH   7   9
ENDBRANCH   1   7
BRANCH   5  17
ATOM     17  O4  NON d   1     -39.346  18.298  -6.656  0.00  0.00    -0.353 OA
ATOM     18  C15 NON d   1     -39.479  18.310  -8.080  0.00  0.00     0.210 C 
ENDBRANCH   5  17
BRANCH   4  19
ATOM     19  O3  NON d   1     -39.220  20.905  -5.340  0.00  0.00    -0.343 OA
BRANCH  19  20
ATOM     20  C9  NON d   1     -38.855  21.818  -6.371  0.00  0.00     0.129 C 
ATOM     21  C10 NON d   1     -37.583  21.259  -7.018  0.00  0.00     0.032 C 
ATOM     22  C11 NON d   1     -37.597  21.824  -8.423  0.00  0.00     0.002 C 
ATOM     23  C12 NON d   1     -39.056  21.707  -8.830  0.00  0.00     0.002 C 
ATOM     24  C13 NON d   1     -39.856  21.855  -7.537  0.00  0.00     0.032 C 
ENDBRANCH  19  20
ENDBRANCH   4  19
TORSDOF 6
ENDMDL
