MODEL 1
REMARK VINA RESULT:   -27.663      0.000      0.000
REMARK INTER + INTRA:         -32.024
REMARK INTER:                 -30.049
REMARK INTRA:                  -1.976
REMARK CONF_INDEPENDENT:        2.386
REMARK UNBOUND:                -1.976
REMARK  8 active torsions:
REMARK  status: ('A' for Active; 'I' for Inactive)
REMARK    1  A    between atoms: C3_3  and  C4_4 
REMARK       I    between atoms: C4_4  and  N1_6 
REMARK    2  A    between atoms: N1_6  and  N2_7 
REMARK    3  A    between atoms: N3_13  and  C8_14 
REMARK    4  A    between atoms: C8_14  and  C9_15 
REMARK    5  A    between atoms: N4_23  and  C16_24 
REMARK    6  A    between atoms: C16_24  and  C17_25 
REMARK       I    between atoms: C17_25  and  N5_27 
REMARK    7  A    between atoms: N5_27  and  C18_28 
REMARK    8  A    between atoms: C18_28  and  C19_29 
ROOT
ATOM      1  C1  NON d   1     -44.228  19.506  -5.871  0.00  0.00     0.051 C 
ATOM      2  C2  NON d   1     -43.379  18.735  -4.843  0.00  0.00    -0.021 C 
ATOM      3  C3  NON d   1     -43.813  17.604  -4.145  0.00  0.00     0.083 C 
ATOM      4  S1  NON d   1     -42.549  16.934  -3.185  0.00  0.00    -0.065 SA
ATOM      5  C5  NON d   1     -41.468  18.152  -3.623  0.00  0.00     0.098 C 
ATOM      6  C6  NON d   1     -42.047  19.106  -4.403  0.00  0.00     0.074 C 
ATOM      7  C7  NON d   1     -41.262  20.297  -4.657  0.00  0.00     0.265 C 
ATOM      8  O2  NON d   1     -41.805  21.389  -4.783  0.00  0.00    -0.267 OA
ATOM      9  N3  NON d   1     -39.891  20.065  -4.675  0.00  0.00    -0.261 N 
ATOM     10  C15 NON d   1     -39.294  18.950  -4.039  0.00  0.00     0.333 C 
ATOM     11  O3  NON d   1     -38.095  18.692  -4.164  0.00  0.00    -0.246 OA
ATOM     12  N4  NON d   1     -40.132  18.147  -3.234  0.00  0.00    -0.283 N 
ENDROOT
BRANCH  12  13
ATOM     13  C16 NON d   1     -39.506  17.088  -2.420  0.00  0.00     0.237 C 
BRANCH  13  14
ATOM     14  C17 NON d   1     -38.050  17.290  -1.933  0.00  0.00     0.236 C 
ATOM     15  O4  NON d   1     -37.239  16.384  -1.768  0.00  0.00    -0.272 OA
ATOM     16  N5  NON d   1     -37.730  18.628  -1.695  0.00  0.00    -0.355 N 
ATOM     17  H16 NON d   1     -38.422  19.346  -1.853  0.00  0.00     0.162 HD
BRANCH  16  18
ATOM     18  C18 NON d   1     -36.509  18.972  -0.992  0.00  0.00     0.161 C 
BRANCH  18  19
ATOM     19  C19 NON d   1     -36.574  20.154  -0.042  0.00  0.00    -0.041 A 
ATOM     20  C20 NON d   1     -36.880  21.415  -0.592  0.00  0.00     0.009 A 
ATOM     21  C21 NON d   1     -37.024  22.548   0.214  0.00  0.00     0.001 A 
ATOM     22  C22 NON d   1     -36.861  22.442   1.592  0.00  0.00     0.000 A 
ATOM     23  C23 NON d   1     -36.561  21.207   2.156  0.00  0.00     0.001 A 
ATOM     24  C24 NON d   1     -36.429  20.068   1.350  0.00  0.00     0.009 A 
ENDBRANCH  18  19
ENDBRANCH  16  18
ENDBRANCH  13  14
ENDBRANCH  12  13
BRANCH   9  25
ATOM     25  C8  NON d   1     -38.990  21.190  -4.932  0.00  0.00     0.175 C 
BRANCH  25  26
ATOM     26  C9  NON d   1     -39.231  22.183  -6.061  0.00  0.00    -0.040 A 
ATOM     27  C10 NON d   1     -39.039  23.567  -6.002  0.00  0.00     0.009 A 
ATOM     28  C11 NON d   1     -39.152  24.359  -7.154  0.00  0.00     0.001 A 
ATOM     29  C12 NON d   1     -39.501  23.789  -8.375  0.00  0.00     0.000 A 
ATOM     30  C13 NON d   1     -39.745  22.424  -8.449  0.00  0.00     0.001 A 
ATOM     31  C14 NON d   1     -39.607  21.632  -7.307  0.00  0.00     0.009 A 
ENDBRANCH  25  26
ENDBRANCH   9  25
BRANCH   3  32
ATOM     32  C4  NON d   1     -45.143  16.988  -4.155  0.00  0.00     0.273 C 
ATOM     33  O1  NON d   1     -45.637  16.408  -3.186  0.00  0.00    -0.266 OA
ATOM     34  N1  NON d   1     -45.844  17.075  -5.361  0.00  0.00    -0.289 N 
ATOM     35  H4  NON d   1     -45.449  17.604  -6.135  0.00  0.00     0.183 HD
BRANCH  34  36
ATOM     36  N2  NON d   1     -47.129  16.505  -5.497  0.00  0.00    -0.247 NA
ATOM     37  H5  NON d   1     -47.813  17.245  -5.284  0.00  0.00     0.143 HD
ATOM     38  H6  NON d   1     -47.252  15.835  -4.732  0.00  0.00     0.143 HD
ENDBRANCH  34  36
ENDBRANCH   3  32
TORSDOF 8
ENDMDL
MODEL 2
REMARK VINA RESULT:   -27.333      1.171      1.868
REMARK INTER + INTRA:         -32.226
REMARK INTER:                 -29.719
REMARK INTRA:                  -2.507
REMARK CONF_INDEPENDENT:        2.386
REMARK UNBOUND:                -2.507
REMARK  8 active torsions:
REMARK  status: ('A' for Active; 'I' for Inactive)
REMARK    1  A    between atoms: C3_3  and  C4_4 
REMARK       I    between atoms: C4_4  and  N1_6 
REMARK    2  A    between atoms: N1_6  and  N2_7 
REMARK    3  A    between atoms: N3_13  and  C8_14 
REMARK    4  A    between atoms: C8_14  and  C9_15 
REMARK    5  A    between atoms: N4_23  and  C16_24 
REMARK    6  A    between atoms: C16_24  and  C17_25 
REMARK       I    between atoms: C17_25  and  N5_27 
REMARK    7  A    between atoms: N5_27  and  C18_28 
REMARK    8  A    between atoms: C18_28  and  C19_29 
ROOT
ATOM      1  C1  NON d   1     -44.210  19.506  -5.840  0.00  0.00     0.051 C 
ATOM      2  C2  NON d   1     -43.347  18.738  -4.821  0.00  0.00    -0.021 C 
ATOM      3  C3  NON d   1     -43.762  17.593  -4.133  0.00  0.00     0.083 C 
ATOM      4  S1  NON d   1     -42.485  16.934  -3.183  0.00  0.00    -0.065 SA
ATOM      5  C5  NON d   1     -41.424  18.172  -3.612  0.00  0.00     0.098 C 
ATOM      6  C6  NON d   1     -42.019  19.125  -4.381  0.00  0.00     0.074 C 
ATOM      7  C7  NON d   1     -41.254  20.331  -4.625  0.00  0.00     0.265 C 
ATOM      8  O2  NON d   1     -41.814  21.415  -4.739  0.00  0.00    -0.267 OA
ATOM      9  N3  NON d   1     -39.880  20.120  -4.649  0.00  0.00    -0.261 N 
ATOM     10  C15 NON d   1     -39.263  19.008  -4.026  0.00  0.00     0.333 C 
ATOM     11  O3  NON d   1     -38.061  18.770  -4.156  0.00  0.00    -0.246 OA
ATOM     12  N4  NON d   1     -40.087  18.185  -3.226  0.00  0.00    -0.283 N 
ENDROOT
BRANCH  12  13
ATOM     13  C16 NON d   1     -39.443  17.127  -2.424  0.00  0.00     0.237 C 
BRANCH  13  14
ATOM     14  C17 NON d   1     -37.990  17.350  -1.933  0.00  0.00     0.236 C 
ATOM     15  O4  NON d   1     -37.188  16.452  -1.702  0.00  0.00    -0.272 OA
ATOM     16  N5  NON d   1     -37.664  18.698  -1.776  0.00  0.00    -0.355 N 
ATOM     17  H16 NON d   1     -38.349  19.409  -1.986  0.00  0.00     0.162 HD
BRANCH  16  18
ATOM     18  C18 NON d   1     -36.448  19.078  -1.081  0.00  0.00     0.161 C 
BRANCH  18  19
ATOM     19  C19 NON d   1     -36.575  20.146  -0.010  0.00  0.00    -0.041 A 
ATOM     20  C20 NON d   1     -37.056  21.410  -0.406  0.00  0.00     0.009 A 
ATOM     21  C21 NON d   1     -37.265  22.435   0.522  0.00  0.00     0.001 A 
ATOM     22  C22 NON d   1     -36.994  22.215   1.869  0.00  0.00     0.000 A 
ATOM     23  C23 NON d   1     -36.521  20.974   2.282  0.00  0.00     0.001 A 
ATOM     24  C24 NON d   1     -36.323  19.942   1.354  0.00  0.00     0.009 A 
ENDBRANCH  18  19
ENDBRANCH  16  18
ENDBRANCH  13  14
ENDBRANCH  12  13
BRANCH   9  25
ATOM     25  C8  NON d   1     -38.997  21.261  -4.898  0.00  0.00     0.175 C 
BRANCH  25  26
ATOM     26  C9  NON d   1     -39.108  22.561  -4.112  0.00  0.00    -0.040 A 
ATOM     27  C10 NON d   1     -38.982  23.855  -4.630  0.00  0.00     0.009 A 
ATOM     28  C11 NON d   1     -39.253  24.977  -3.835  0.00  0.00     0.001 A 
ATOM     29  C12 NON d   1     -39.612  24.830  -2.498  0.00  0.00     0.000 A 
ATOM     30  C13 NON d   1     -39.695  23.557  -1.948  0.00  0.00     0.001 A 
ATOM     31  C14 NON d   1     -39.450  22.439  -2.747  0.00  0.00     0.009 A 
ENDBRANCH  25  26
ENDBRANCH   9  25
BRANCH   3  32
ATOM     32  C4  NON d   1     -45.082  16.957  -4.146  0.00  0.00     0.273 C 
ATOM     33  O1  NON d   1     -45.547  16.324  -3.196  0.00  0.00    -0.266 OA
ATOM     34  N1  NON d   1     -45.808  17.090  -5.332  0.00  0.00    -0.289 N 
ATOM     35  H4  NON d   1     -45.439  17.660  -6.087  0.00  0.00     0.183 HD
BRANCH  34  36
ATOM     36  N2  NON d   1     -47.088  16.505  -5.469  0.00  0.00    -0.247 NA
ATOM     37  H5  NON d   1     -47.780  17.245  -5.282  0.00  0.00     0.143 HD
ATOM     38  H6  NON d   1     -47.215  15.853  -4.690  0.00  0.00     0.143 HD
ENDBRANCH  34  36
ENDBRANCH   3  32
TORSDOF 8
ENDMDL
MODEL 3
REMARK VINA RESULT:   -26.088      2.613      7.364
REMARK INTER + INTRA:         -30.309
REMARK INTER:                 -28.474
REMARK INTRA:                  -1.835
REMARK CONF_INDEPENDENT:        2.386
REMARK UNBOUND:                -1.835
REMARK  8 active torsions:
REMARK  status: ('A' for Active; 'I' for Inactive)
REMARK    1  A    between atoms: C3_3  and  C4_4 
REMARK       I    between atoms: C4_4  and  N1_6 
REMARK    2  A    between atoms: N1_6  and  N2_7 
REMARK    3  A    between atoms: N3_13  and  C8_14 
REMARK    4  A    between atoms: C8_14  and  C9_15 
REMARK    5  A    between atoms: N4_23  and  C16_24 
REMARK    6  A    between atoms: C16_24  and  C17_25 
REMARK       I    between atoms: C17_25  and  N5_27 
REMARK    7  A    between atoms: N5_27  and  C18_28 
REMARK    8  A    between atoms: C18_28  and  C19_29 
ROOT
ATOM      1  C1  NON d   1     -43.115  17.813  -2.043  0.00  0.00     0.051 C 
ATOM      2  C2  NON d   1     -42.906  18.359  -3.468  0.00  0.00    -0.021 C 
ATOM      3  C3  NON d   1     -43.861  18.300  -4.488  0.00  0.00     0.083 C 
ATOM      4  S1  NON d   1     -43.325  19.129  -5.900  0.00  0.00    -0.065 SA
ATOM      5  C5  NON d   1     -41.832  19.498  -5.208  0.00  0.00     0.098 C 
ATOM      6  C6  NON d   1     -41.678  18.944  -3.974  0.00  0.00     0.074 C 
ATOM      7  C7  NON d   1     -40.356  19.026  -3.388  0.00  0.00     0.265 C 
ATOM      8  O2  NON d   1     -39.935  18.130  -2.665  0.00  0.00    -0.267 OA
ATOM      9  N3  NON d   1     -39.644  20.154  -3.781  0.00  0.00    -0.261 N 
ATOM     10  C15 NON d   1     -39.935  20.870  -4.967  0.00  0.00     0.333 C 
ATOM     11  O3  NON d   1     -39.377  21.934  -5.242  0.00  0.00    -0.246 OA
ATOM     12  N4  NON d   1     -40.887  20.301  -5.842  0.00  0.00    -0.283 N 
ENDROOT
BRANCH  12  13
ATOM     13  C16 NON d   1     -41.080  20.927  -7.163  0.00  0.00     0.237 C 
BRANCH  13  14
ATOM     14  C17 NON d   1     -40.232  20.418  -8.356  0.00  0.00     0.236 C 
ATOM     15  O4  NON d   1     -40.299  19.287  -8.824  0.00  0.00    -0.272 OA
ATOM     16  N5  NON d   1     -39.365  21.385  -8.866  0.00  0.00    -0.355 N 
ATOM     17  H16 NON d   1     -39.346  22.309  -8.460  0.00  0.00     0.162 HD
BRANCH  16  18
ATOM     18  C18 NON d   1     -38.321  21.009  -9.801  0.00  0.00     0.161 C 
BRANCH  18  19
ATOM     19  C19 NON d   1     -38.365  21.652 -11.174  0.00  0.00    -0.041 A 
ATOM     20  C20 NON d   1     -39.492  22.437 -11.489  0.00  0.00     0.009 A 
ATOM     21  C21 NON d   1     -39.590  23.119 -12.705  0.00  0.00     0.001 A 
ATOM     22  C22 NON d   1     -38.560  23.027 -13.637  0.00  0.00     0.000 A 
ATOM     23  C23 NON d   1     -37.437  22.260 -13.345  0.00  0.00     0.001 A 
ATOM     24  C24 NON d   1     -37.332  21.586 -12.120  0.00  0.00     0.009 A 
ENDBRANCH  18  19
ENDBRANCH  16  18
ENDBRANCH  13  14
ENDBRANCH  12  13
BRANCH   9  25
ATOM     25  C8  NON d   1     -38.296  20.357  -3.248  0.00  0.00     0.175 C 
BRANCH  25  26
ATOM     26  C9  NON d   1     -38.040  20.656  -1.776  0.00  0.00    -0.040 A 
ATOM     27  C10 NON d   1     -36.819  20.530  -1.105  0.00  0.00     0.009 A 
ATOM     28  C11 NON d   1     -36.674  20.978   0.215  0.00  0.00     0.001 A 
ATOM     29  C12 NON d   1     -37.755  21.519   0.903  0.00  0.00     0.000 A 
ATOM     30  C13 NON d   1     -38.991  21.610   0.275  0.00  0.00     0.001 A 
ATOM     31  C14 NON d   1     -39.128  21.187  -1.049  0.00  0.00     0.009 A 
ENDBRANCH  25  26
ENDBRANCH   9  25
BRANCH   3  32
ATOM     32  C4  NON d   1     -45.172  17.646  -4.465  0.00  0.00     0.273 C 
ATOM     33  O1  NON d   1     -45.708  17.219  -3.440  0.00  0.00    -0.266 OA
ATOM     34  N1  NON d   1     -45.803  17.508  -5.704  0.00  0.00    -0.289 N 
ATOM     35  H4  NON d   1     -45.378  17.914  -6.534  0.00  0.00     0.183 HD
BRANCH  34  36
ATOM     36  N2  NON d   1     -47.065  16.880  -5.810  0.00  0.00    -0.247 NA
ATOM     37  H5  NON d   1     -47.535  17.283  -6.633  0.00  0.00     0.143 HD
ATOM     38  H6  NON d   1     -47.637  17.199  -5.024  0.00  0.00     0.143 HD
ENDBRANCH  34  36
ENDBRANCH   3  32
TORSDOF 8
ENDMDL
MODEL 4
REMARK VINA RESULT:   -25.645      2.653      7.625
REMARK INTER + INTRA:         -29.792
REMARK INTER:                 -28.031
REMARK INTRA:                  -1.761
REMARK CONF_INDEPENDENT:        2.386
REMARK UNBOUND:                -1.761
REMARK  8 active torsions:
REMARK  status: ('A' for Active; 'I' for Inactive)
REMARK    1  A    between atoms: C3_3  and  C4_4 
REMARK       I    between atoms: C4_4  and  N1_6 
REMARK    2  A    between atoms: N1_6  and  N2_7 
REMARK    3  A    between atoms: N3_13  and  C8_14 
REMARK    4  A    between atoms: C8_14  and  C9_15 
REMARK    5  A    between atoms: N4_23  and  C16_24 
REMARK    6  A    between atoms: C16_24  and  C17_25 
REMARK       I    between atoms: C17_25  and  N5_27 
REMARK    7  A    between atoms: N5_27  and  C18_28 
REMARK    8  A    between atoms: C18_28  and  C19_29 
ROOT
ATOM      1  C1  NON d   1     -42.889  17.729  -2.322  0.00  0.00     0.051 C 
ATOM      2  C2  NON d   1     -42.768  18.306  -3.745  0.00  0.00    -0.021 C 
ATOM      3  C3  NON d   1     -43.801  18.315  -4.688  0.00  0.00     0.083 C 
ATOM      4  S1  NON d   1     -43.340  19.160  -6.117  0.00  0.00    -0.065 SA
ATOM      5  C5  NON d   1     -41.783  19.448  -5.535  0.00  0.00     0.098 C 
ATOM      6  C6  NON d   1     -41.558  18.853  -4.331  0.00  0.00     0.074 C 
ATOM      7  C7  NON d   1     -40.193  18.864  -3.849  0.00  0.00     0.265 C 
ATOM      8  O2  NON d   1     -39.757  17.932  -3.183  0.00  0.00    -0.267 OA
ATOM      9  N3  NON d   1     -39.465  19.973  -4.268  0.00  0.00    -0.261 N 
ATOM     10  C15 NON d   1     -39.815  20.733  -5.410  0.00  0.00     0.333 C 
ATOM     11  O3  NON d   1     -39.234  21.780  -5.701  0.00  0.00    -0.246 OA
ATOM     12  N4  NON d   1     -40.856  20.228  -6.221  0.00  0.00    -0.283 N 
ENDROOT
BRANCH  12  13
ATOM     13  C16 NON d   1     -41.123  20.899  -7.508  0.00  0.00     0.237 C 
BRANCH  13  14
ATOM     14  C17 NON d   1     -40.073  20.775  -8.640  0.00  0.00     0.236 C 
ATOM     15  O4  NON d   1     -39.270  19.854  -8.747  0.00  0.00    -0.272 OA
ATOM     16  N5  NON d   1     -40.124  21.829  -9.554  0.00  0.00    -0.355 N 
ATOM     17  H16 NON d   1     -40.806  22.563  -9.438  0.00  0.00     0.162 HD
BRANCH  16  18
ATOM     18  C18 NON d   1     -39.054  22.011 -10.517  0.00  0.00     0.161 C 
BRANCH  18  19
ATOM     19  C19 NON d   1     -39.282  23.038 -11.610  0.00  0.00    -0.041 A 
ATOM     20  C20 NON d   1     -38.852  22.711 -12.912  0.00  0.00     0.009 A 
ATOM     21  C21 NON d   1     -39.077  23.568 -13.992  0.00  0.00     0.001 A 
ATOM     22  C22 NON d   1     -39.737  24.777 -13.792  0.00  0.00     0.000 A 
ATOM     23  C23 NON d   1     -40.172  25.119 -12.516  0.00  0.00     0.001 A 
ATOM     24  C24 NON d   1     -39.958  24.254 -11.434  0.00  0.00     0.009 A 
ENDBRANCH  18  19
ENDBRANCH  16  18
ENDBRANCH  13  14
ENDBRANCH  12  13
BRANCH   9  25
ATOM     25  C8  NON d   1     -38.072  20.105  -3.838  0.00  0.00     0.175 C 
BRANCH  25  26
ATOM     26  C9  NON d   1     -37.692  20.377  -2.388  0.00  0.00    -0.040 A 
ATOM     27  C10 NON d   1     -38.164  21.424  -1.589  0.00  0.00     0.009 A 
ATOM     28  C11 NON d   1     -37.855  21.483  -0.223  0.00  0.00     0.001 A 
ATOM     29  C12 NON d   1     -37.034  20.523   0.360  0.00  0.00     0.000 A 
ATOM     30  C13 NON d   1     -36.512  19.501  -0.423  0.00  0.00     0.001 A 
ATOM     31  C14 NON d   1     -36.841  19.428  -1.778  0.00  0.00     0.009 A 
ENDBRANCH  25  26
ENDBRANCH   9  25
BRANCH   3  32
ATOM     32  C4  NON d   1     -45.133  17.715  -4.579  0.00  0.00     0.273 C 
ATOM     33  O1  NON d   1     -45.671  17.432  -3.507  0.00  0.00    -0.266 OA
ATOM     34  N1  NON d   1     -45.783  17.454  -5.788  0.00  0.00    -0.289 N 
ATOM     35  H4  NON d   1     -45.353  17.744  -6.663  0.00  0.00     0.183 HD
BRANCH  34  36
ATOM     36  N2  NON d   1     -47.066  16.863  -5.810  0.00  0.00    -0.247 NA
ATOM     37  H5  NON d   1     -47.540  17.200  -6.660  0.00  0.00     0.143 HD
ATOM     38  H6  NON d   1     -47.611  17.278  -5.049  0.00  0.00     0.143 HD
ENDBRANCH  34  36
ENDBRANCH   3  32
TORSDOF 8
ENDMDL
