MODEL 1
REMARK VINA RESULT:   -16.452      0.000      0.000
REMARK INTER + INTRA:         -20.601
REMARK INTER:                 -19.734
REMARK INTRA:                  -0.868
REMARK CONF_INDEPENDENT:        3.281
REMARK UNBOUND:                -0.868
REMARK  11 active torsions:
REMARK  status: ('A' for Active; 'I' for Inactive)
REMARK    1  A    between atoms: C2_2  and  C3_3 
REMARK    2  A    between atoms: C3_3  and  C4_4 
REMARK    3  A    between atoms: C4_4  and  O1_5 
REMARK    4  A    between atoms: O1_5  and  C5_6 
REMARK    5  A    between atoms: C10_11  and  C11_12 
REMARK       I    between atoms: C11_12  and  N1_14 
REMARK    6  A    between atoms: N1_14  and  C12_15 
REMARK    7  A    between atoms: C12_15  and  N2_17 
REMARK    8  A    between atoms: N2_17  and  N3_18 
REMARK       I    between atoms: N3_18  and  C13_19 
REMARK    9  A    between atoms: C13_19  and  C14_21 
REMARK   10  A    between atoms: C17_24  and  N4_25 
REMARK       I    between atoms: N4_25  and  C18_26 
REMARK   11  A    between atoms: C18_26  and  C19_28 
ROOT
ATOM      1  N2  NON d   1     -46.686  15.728  -3.562  0.00  0.00    -0.273 N 
ATOM      2  H15 NON d   1     -46.665  14.910  -2.956  0.00  0.00     0.189 HD
ENDROOT
BRANCH   1   3
ATOM      3  C12 NON d   1     -47.856  16.267  -4.151  0.00  0.00     0.193 C 
ATOM      4  S1  NON d   1     -48.107  16.130  -5.810  0.00  0.00    -0.039 SA
BRANCH   3   5
ATOM      5  N1  NON d   1     -48.752  16.884  -3.228  0.00  0.00    -0.298 N 
ATOM      6  C11 NON d   1     -49.771  16.272  -2.422  0.00  0.00     0.260 C 
ATOM      7  O2  NON d   1     -50.087  15.096  -2.567  0.00  0.00    -0.267 OA
ATOM      8  H14 NON d   1     -48.583  17.863  -3.075  0.00  0.00     0.171 HD
BRANCH   6   9
ATOM      9  C10 NON d   1     -50.553  17.093  -1.390  0.00  0.00     0.065 A 
ATOM     10  C9  NON d   1     -49.908  17.630  -0.257  0.00  0.00     0.020 A 
ATOM     11  C8  NON d   1     -50.598  18.425   0.674  0.00  0.00     0.001 A 
ATOM     12  C7  NON d   1     -51.944  18.704   0.511  0.00  0.00     0.003 A 
ATOM     13  C6  NON d   1     -52.618  18.187  -0.592  0.00  0.00     0.038 A 
ATOM     14  C5  NON d   1     -51.944  17.402  -1.559  0.00  0.00     0.084 A 
BRANCH  14  15
ATOM     15  O1  NON d   1     -52.624  16.924  -2.665  0.00  0.00    -0.350 OA
BRANCH  15  16
ATOM     16  C4  NON d   1     -53.803  16.139  -2.435  0.00  0.00     0.175 C 
BRANCH  16  17
ATOM     17  C3  NON d   1     -55.085  16.880  -2.822  0.00  0.00     0.026 C 
BRANCH  17  18
ATOM     18  C2  NON d   1     -55.322  18.192  -2.072  0.00  0.00    -0.002 C 
ATOM     19  C1  NON d   1     -56.064  19.231  -2.894  0.00  0.00     0.005 C 
ENDBRANCH  17  18
ENDBRANCH  16  17
ENDBRANCH  15  16
ENDBRANCH  14  15
ENDBRANCH   6   9
ENDBRANCH   3   5
ENDBRANCH   1   3
BRANCH   1  20
ATOM     20  N3  NON d   1     -45.435  16.499  -3.577  0.00  0.00    -0.264 N 
ATOM     21  C13 NON d   1     -44.957  17.100  -4.746  0.00  0.00     0.270 C 
ATOM     22  O3  NON d   1     -45.565  16.979  -5.810  0.00  0.00    -0.266 OA
ATOM     23  H16 NON d   1     -44.975  16.572  -2.672  0.00  0.00     0.190 HD
BRANCH  21  24
ATOM     24  C14 NON d   1     -43.652  17.923  -4.703  0.00  0.00     0.033 A 
ATOM     25  C15 NON d   1     -42.569  17.466  -3.925  0.00  0.00     0.019 A 
ATOM     26  C16 NON d   1     -41.323  18.171  -3.830  0.00  0.00     0.030 A 
ATOM     27  C17 NON d   1     -41.102  19.373  -4.506  0.00  0.00     0.034 A 
ATOM     28  C21 NON d   1     -42.187  19.834  -5.282  0.00  0.00     0.030 A 
ATOM     29  C22 NON d   1     -43.435  19.130  -5.384  0.00  0.00     0.019 A 
BRANCH  27  30
ATOM     30  N4  NON d   1     -39.880  20.157  -4.459  0.00  0.00    -0.327 N 
ATOM     31  C18 NON d   1     -38.702  20.010  -5.217  0.00  0.00     0.221 C 
ATOM     32  O4  NON d   1     -38.563  19.161  -6.099  0.00  0.00    -0.273 OA
ATOM     33  H19 NON d   1     -39.885  20.929  -3.800  0.00  0.00     0.169 HD
BRANCH  31  34
ATOM     34  C19 NON d   1     -37.514  21.032  -4.883  0.00  0.00     0.098 C 
ATOM     35  C20 NON d   1     -37.007  20.865  -3.438  0.00  0.00     0.014 C 
ENDBRANCH  31  34
ENDBRANCH  27  30
ENDBRANCH  21  24
ENDBRANCH   1  20
TORSDOF 11
ENDMDL
MODEL 2
REMARK VINA RESULT:   -14.544      1.770      2.719
REMARK INTER + INTRA:         -18.132
REMARK INTER:                 -17.826
REMARK INTRA:                  -0.307
REMARK CONF_INDEPENDENT:        3.281
REMARK UNBOUND:                -0.307
REMARK  11 active torsions:
REMARK  status: ('A' for Active; 'I' for Inactive)
REMARK    1  A    between atoms: C2_2  and  C3_3 
REMARK    2  A    between atoms: C3_3  and  C4_4 
REMARK    3  A    between atoms: C4_4  and  O1_5 
REMARK    4  A    between atoms: O1_5  and  C5_6 
REMARK    5  A    between atoms: C10_11  and  C11_12 
REMARK       I    between atoms: C11_12  and  N1_14 
REMARK    6  A    between atoms: N1_14  and  C12_15 
REMARK    7  A    between atoms: C12_15  and  N2_17 
REMARK    8  A    between atoms: N2_17  and  N3_18 
REMARK       I    between atoms: N3_18  and  C13_19 
REMARK    9  A    between atoms: C13_19  and  C14_21 
REMARK   10  A    between atoms: C17_24  and  N4_25 
REMARK       I    between atoms: N4_25  and  C18_26 
REMARK   11  A    between atoms: C18_26  and  C19_28 
ROOT
ATOM      1  N2  NON d   1     -47.056  16.360  -2.991  0.00  0.00    -0.273 N 
ATOM      2  H15 NON d   1     -47.261  16.549  -2.012  0.00  0.00     0.189 HD
ENDROOT
BRANCH   1   3
ATOM      3  C12 NON d   1     -48.014  15.964  -3.956  0.00  0.00     0.193 C 
ATOM      4  S1  NON d   1     -47.512  15.380  -5.454  0.00  0.00    -0.039 SA
BRANCH   3   5
ATOM      5  N1  NON d   1     -49.369  16.090  -3.530  0.00  0.00    -0.298 N 
ATOM      6  C11 NON d   1     -49.874  16.588  -2.281  0.00  0.00     0.260 C 
ATOM      7  O2  NON d   1     -49.129  16.836  -1.338  0.00  0.00    -0.267 OA
ATOM      8  H14 NON d   1     -50.050  15.872  -4.236  0.00  0.00     0.171 HD
BRANCH   6   9
ATOM      9  C10 NON d   1     -51.380  16.763  -2.057  0.00  0.00     0.065 A 
ATOM     10  C9  NON d   1     -52.313  16.021  -2.810  0.00  0.00     0.020 A 
ATOM     11  C8  NON d   1     -53.695  16.133  -2.586  0.00  0.00     0.001 A 
ATOM     12  C7  NON d   1     -54.190  16.985  -1.614  0.00  0.00     0.003 A 
ATOM     13  C6  NON d   1     -53.302  17.739  -0.852  0.00  0.00     0.038 A 
ATOM     14  C5  NON d   1     -51.902  17.631  -1.040  0.00  0.00     0.084 A 
BRANCH  14  15
ATOM     15  O1  NON d   1     -51.034  18.365  -0.252  0.00  0.00    -0.350 OA
BRANCH  15  16
ATOM     16  C4  NON d   1     -51.518  18.834   1.015  0.00  0.00     0.175 C 
BRANCH  16  17
ATOM     17  C3  NON d   1     -52.070  20.259   0.942  0.00  0.00     0.026 C 
BRANCH  17  18
ATOM     18  C2  NON d   1     -53.548  20.358   0.558  0.00  0.00    -0.002 C 
ATOM     19  C1  NON d   1     -53.815  21.350  -0.560  0.00  0.00     0.005 C 
ENDBRANCH  17  18
ENDBRANCH  16  17
ENDBRANCH  15  16
ENDBRANCH  14  15
ENDBRANCH   6   9
ENDBRANCH   3   5
ENDBRANCH   1   3
BRANCH   1  20
ATOM     20  N3  NON d   1     -45.719  16.795  -3.420  0.00  0.00    -0.264 N 
ATOM     21  C13 NON d   1     -45.504  17.381  -4.672  0.00  0.00     0.270 C 
ATOM     22  O3  NON d   1     -46.435  17.529  -5.466  0.00  0.00    -0.266 OA
ATOM     23  H16 NON d   1     -44.988  16.656  -2.726  0.00  0.00     0.190 HD
BRANCH  21  24
ATOM     24  C14 NON d   1     -44.086  17.848  -5.065  0.00  0.00     0.033 A 
ATOM     25  C15 NON d   1     -43.025  16.920  -5.059  0.00  0.00     0.019 A 
ATOM     26  C16 NON d   1     -41.678  17.271  -5.408  0.00  0.00     0.030 A 
ATOM     27  C17 NON d   1     -41.327  18.571  -5.777  0.00  0.00     0.034 A 
ATOM     28  C21 NON d   1     -42.388  19.502  -5.780  0.00  0.00     0.030 A 
ATOM     29  C22 NON d   1     -43.738  19.155  -5.434  0.00  0.00     0.019 A 
BRANCH  27  30
ATOM     30  N4  NON d   1     -39.991  19.017  -6.135  0.00  0.00    -0.327 N 
ATOM     31  C18 NON d   1     -39.510  19.464  -7.381  0.00  0.00     0.221 C 
ATOM     32  O4  NON d   1     -40.218  19.573  -8.383  0.00  0.00    -0.273 OA
ATOM     33  H19 NON d   1     -39.318  19.023  -5.376  0.00  0.00     0.169 HD
BRANCH  31  34
ATOM     34  C19 NON d   1     -37.956  19.849  -7.441  0.00  0.00     0.098 C 
ATOM     35  C20 NON d   1     -37.538  20.314  -8.849  0.00  0.00     0.014 C 
ENDBRANCH  31  34
ENDBRANCH  27  30
ENDBRANCH  21  24
ENDBRANCH   1  20
TORSDOF 11
ENDMDL
MODEL 3
REMARK VINA RESULT:   -14.011      1.779      2.160
REMARK INTER + INTRA:         -18.477
REMARK INTER:                 -17.293
REMARK INTRA:                  -1.185
REMARK CONF_INDEPENDENT:        3.281
REMARK UNBOUND:                -1.185
REMARK  11 active torsions:
REMARK  status: ('A' for Active; 'I' for Inactive)
REMARK    1  A    between atoms: C2_2  and  C3_3 
REMARK    2  A    between atoms: C3_3  and  C4_4 
REMARK    3  A    between atoms: C4_4  and  O1_5 
REMARK    4  A    between atoms: O1_5  and  C5_6 
REMARK    5  A    between atoms: C10_11  and  C11_12 
REMARK       I    between atoms: C11_12  and  N1_14 
REMARK    6  A    between atoms: N1_14  and  C12_15 
REMARK    7  A    between atoms: C12_15  and  N2_17 
REMARK    8  A    between atoms: N2_17  and  N3_18 
REMARK       I    between atoms: N3_18  and  C13_19 
REMARK    9  A    between atoms: C13_19  and  C14_21 
REMARK   10  A    between atoms: C17_24  and  N4_25 
REMARK       I    between atoms: N4_25  and  C18_26 
REMARK   11  A    between atoms: C18_26  and  C19_28 
ROOT
ATOM      1  N2  NON d   1     -46.070  16.240  -3.841  0.00  0.00    -0.273 N 
ATOM      2  H15 NON d   1     -45.774  15.809  -2.967  0.00  0.00     0.189 HD
ENDROOT
BRANCH   1   3
ATOM      3  C12 NON d   1     -47.413  16.336  -4.281  0.00  0.00     0.193 C 
ATOM      4  S1  NON d   1     -47.843  15.771  -5.808  0.00  0.00    -0.039 SA
BRANCH   3   5
ATOM      5  N1  NON d   1     -48.307  16.912  -3.331  0.00  0.00    -0.298 N 
ATOM      6  C11 NON d   1     -49.347  16.271  -2.575  0.00  0.00     0.260 C 
ATOM      7  O2  NON d   1     -49.684  15.113  -2.796  0.00  0.00    -0.267 OA
ATOM      8  H14 NON d   1     -48.121  17.875  -3.115  0.00  0.00     0.171 HD
BRANCH   6   9
ATOM      9  C10 NON d   1     -50.124  17.042  -1.502  0.00  0.00     0.065 A 
ATOM     10  C9  NON d   1     -49.457  17.620  -0.403  0.00  0.00     0.020 A 
ATOM     11  C8  NON d   1     -50.146  18.370   0.565  0.00  0.00     0.001 A 
ATOM     12  C7  NON d   1     -51.514  18.563   0.472  0.00  0.00     0.003 A 
ATOM     13  C6  NON d   1     -52.210  18.003  -0.595  0.00  0.00     0.038 A 
ATOM     14  C5  NON d   1     -51.539  17.261  -1.598  0.00  0.00     0.084 A 
BRANCH  14  15
ATOM     15  O1  NON d   1     -52.244  16.739  -2.667  0.00  0.00    -0.350 OA
BRANCH  15  16
ATOM     16  C4  NON d   1     -53.598  16.324  -2.435  0.00  0.00     0.175 C 
BRANCH  16  17
ATOM     17  C3  NON d   1     -54.618  17.261  -3.085  0.00  0.00     0.026 C 
BRANCH  17  18
ATOM     18  C2  NON d   1     -55.608  17.908  -2.114  0.00  0.00    -0.002 C 
ATOM     19  C1  NON d   1     -54.940  18.771  -1.058  0.00  0.00     0.005 C 
ENDBRANCH  17  18
ENDBRANCH  16  17
ENDBRANCH  15  16
ENDBRANCH  14  15
ENDBRANCH   6   9
ENDBRANCH   3   5
ENDBRANCH   1   3
BRANCH   1  20
ATOM     20  N3  NON d   1     -45.020  17.018  -4.514  0.00  0.00    -0.264 N 
ATOM     21  C13 NON d   1     -43.736  17.141  -3.972  0.00  0.00     0.270 C 
ATOM     22  O3  NON d   1     -43.455  16.615  -2.894  0.00  0.00    -0.266 OA
ATOM     23  H16 NON d   1     -45.302  17.426  -5.403  0.00  0.00     0.190 HD
BRANCH  21  24
ATOM     24  C14 NON d   1     -42.659  17.945  -4.731  0.00  0.00     0.033 A 
ATOM     25  C15 NON d   1     -43.036  19.090  -5.461  0.00  0.00     0.019 A 
ATOM     26  C16 NON d   1     -42.099  19.892  -6.195  0.00  0.00     0.030 A 
ATOM     27  C17 NON d   1     -40.738  19.583  -6.237  0.00  0.00     0.034 A 
ATOM     28  C21 NON d   1     -40.361  18.434  -5.510  0.00  0.00     0.030 A 
ATOM     29  C22 NON d   1     -41.294  17.631  -4.771  0.00  0.00     0.019 A 
BRANCH  27  30
ATOM     30  N4  NON d   1     -39.723  20.330  -6.961  0.00  0.00    -0.327 N 
ATOM     31  C18 NON d   1     -39.518  20.429  -8.351  0.00  0.00     0.221 C 
ATOM     32  O4  NON d   1     -40.244  19.884  -9.185  0.00  0.00    -0.273 OA
ATOM     33  H19 NON d   1     -39.086  20.869  -6.383  0.00  0.00     0.169 HD
BRANCH  31  34
ATOM     34  C19 NON d   1     -38.269  21.315  -8.820  0.00  0.00     0.098 C 
ATOM     35  C20 NON d   1     -37.452  20.613  -9.920  0.00  0.00     0.014 C 
ENDBRANCH  31  34
ENDBRANCH  27  30
ENDBRANCH  21  24
ENDBRANCH   1  20
TORSDOF 11
ENDMDL
MODEL 4
REMARK VINA RESULT:   -13.525      2.283     11.664
REMARK INTER + INTRA:         -18.013
REMARK INTER:                 -16.806
REMARK INTRA:                  -1.207
REMARK CONF_INDEPENDENT:        3.281
REMARK UNBOUND:                -1.207
REMARK  11 active torsions:
REMARK  status: ('A' for Active; 'I' for Inactive)
REMARK    1  A    between atoms: C2_2  and  C3_3 
REMARK    2  A    between atoms: C3_3  and  C4_4 
REMARK    3  A    between atoms: C4_4  and  O1_5 
REMARK    4  A    between atoms: O1_5  and  C5_6 
REMARK    5  A    between atoms: C10_11  and  C11_12 
REMARK       I    between atoms: C11_12  and  N1_14 
REMARK    6  A    between atoms: N1_14  and  C12_15 
REMARK    7  A    between atoms: C12_15  and  N2_17 
REMARK    8  A    between atoms: N2_17  and  N3_18 
REMARK       I    between atoms: N3_18  and  C13_19 
REMARK    9  A    between atoms: C13_19  and  C14_21 
REMARK   10  A    between atoms: C17_24  and  N4_25 
REMARK       I    between atoms: N4_25  and  C18_26 
REMARK   11  A    between atoms: C18_26  and  C19_28 
ROOT
ATOM      1  N2  NON d   1     -46.035  16.306  -3.293  0.00  0.00    -0.273 N 
ATOM      2  H15 NON d   1     -45.712  15.444  -2.858  0.00  0.00     0.189 HD
ENDROOT
BRANCH   1   3
ATOM      3  C12 NON d   1     -45.488  16.869  -4.472  0.00  0.00     0.193 C 
ATOM      4  S1  NON d   1     -46.473  17.147  -5.810  0.00  0.00    -0.039 SA
BRANCH   3   5
ATOM      5  N1  NON d   1     -44.097  17.173  -4.393  0.00  0.00    -0.298 N 
ATOM      6  C11 NON d   1     -43.428  18.402  -4.717  0.00  0.00     0.260 C 
ATOM      7  O2  NON d   1     -44.013  19.329  -5.267  0.00  0.00    -0.267 OA
ATOM      8  H14 NON d   1     -43.535  16.449  -3.982  0.00  0.00     0.171 HD
BRANCH   6   9
ATOM      9  C10 NON d   1     -41.930  18.575  -4.444  0.00  0.00     0.065 A 
ATOM     10  C9  NON d   1     -41.308  17.897  -3.375  0.00  0.00     0.020 A 
ATOM     11  C8  NON d   1     -39.927  18.005  -3.139  0.00  0.00     0.001 A 
ATOM     12  C7  NON d   1     -39.127  18.791  -3.951  0.00  0.00     0.003 A 
ATOM     13  C6  NON d   1     -39.704  19.481  -5.014  0.00  0.00     0.038 A 
ATOM     14  C5  NON d   1     -41.089  19.373  -5.290  0.00  0.00     0.084 A 
BRANCH  14  15
ATOM     15  O1  NON d   1     -41.638  20.042  -6.369  0.00  0.00    -0.350 OA
BRANCH  15  16
ATOM     16  C4  NON d   1     -40.810  20.989  -7.059  0.00  0.00     0.175 C 
BRANCH  16  17
ATOM     17  C3  NON d   1     -40.216  20.419  -8.349  0.00  0.00     0.026 C 
BRANCH  17  18
ATOM     18  C2  NON d   1     -39.085  19.410  -8.146  0.00  0.00    -0.002 C 
ATOM     19  C1  NON d   1     -39.495  17.977  -8.436  0.00  0.00     0.005 C 
ENDBRANCH  17  18
ENDBRANCH  16  17
ENDBRANCH  15  16
ENDBRANCH  14  15
ENDBRANCH   6   9
ENDBRANCH   3   5
ENDBRANCH   1   3
BRANCH   1  20
ATOM     20  N3  NON d   1     -47.312  16.805  -2.765  0.00  0.00    -0.264 N 
ATOM     21  C13 NON d   1     -48.463  16.010  -2.755  0.00  0.00     0.270 C 
ATOM     22  O3  NON d   1     -48.443  14.868  -3.215  0.00  0.00    -0.266 OA
ATOM     23  H16 NON d   1     -47.273  17.752  -2.393  0.00  0.00     0.190 HD
BRANCH  21  24
ATOM     24  C14 NON d   1     -49.774  16.570  -2.163  0.00  0.00     0.033 A 
ATOM     25  C15 NON d   1     -50.981  16.409  -2.874  0.00  0.00     0.019 A 
ATOM     26  C16 NON d   1     -52.241  16.900  -2.396  0.00  0.00     0.030 A 
ATOM     27  C17 NON d   1     -52.354  17.582  -1.182  0.00  0.00     0.034 A 
ATOM     28  C21 NON d   1     -51.146  17.748  -0.472  0.00  0.00     0.030 A 
ATOM     29  C22 NON d   1     -49.883  17.255  -0.944  0.00  0.00     0.019 A 
BRANCH  27  30
ATOM     30  N4  NON d   1     -53.584  18.122  -0.627  0.00  0.00    -0.327 N 
ATOM     31  C18 NON d   1     -53.847  19.422  -0.155  0.00  0.00     0.221 C 
ATOM     32  O4  NON d   1     -53.022  20.336  -0.188  0.00  0.00    -0.273 OA
ATOM     33  H19 NON d   1     -54.365  17.475  -0.593  0.00  0.00     0.169 HD
BRANCH  31  34
ATOM     34  C19 NON d   1     -55.315  19.677   0.434  0.00  0.00     0.098 C 
ATOM     35  C20 NON d   1     -55.960  18.373   0.941  0.00  0.00     0.014 C 
ENDBRANCH  31  34
ENDBRANCH  27  30
ENDBRANCH  21  24
ENDBRANCH   1  20
TORSDOF 11
ENDMDL
