MODEL 1
REMARK VINA RESULT:   -13.704      0.000      0.000
REMARK INTER + INTRA:         -15.267
REMARK INTER:                 -14.897
REMARK INTRA:                  -0.370
REMARK CONF_INDEPENDENT:        1.193
REMARK UNBOUND:                -0.370
REMARK  4 active torsions:
REMARK  status: ('A' for Active; 'I' for Inactive)
REMARK       I    between atoms: C1_2  and  N1_3 
REMARK    1  A    between atoms: C1_2  and  C15_19 
REMARK    2  A    between atoms: N1_3  and  N2_4 
REMARK    3  A    between atoms: C2_5  and  C3_6 
REMARK    4  A    between atoms: C19_23  and  O2_24 
ROOT
ATOM      1  C3  NON d   1     -41.678  17.966  -3.797  0.00  0.00     0.011 A 
ATOM      2  C4  NON d   1     -40.490  17.662  -3.161  0.00  0.00     0.102 A 
ATOM      3  N3  NON d   1     -39.461  18.181  -3.894  0.00  0.00    -0.364 N 
ATOM      4  C5  NON d   1     -39.943  18.826  -5.011  0.00  0.00     0.054 A 
ATOM      5  C6  NON d   1     -41.336  18.707  -4.976  0.00  0.00     0.004 A 
ATOM      6  C7  NON d   1     -42.089  19.288  -6.018  0.00  0.00     0.015 A 
ATOM      7  C8  NON d   1     -41.436  19.966  -7.057  0.00  0.00     0.013 A 
ATOM      8  C9  NON d   1     -40.041  20.082  -7.087  0.00  0.00    -0.024 A 
ATOM      9  C10 NON d   1     -39.384  20.761  -8.126  0.00  0.00     0.012 A 
ATOM     10  C11 NON d   1     -37.991  20.869  -8.142  0.00  0.00     0.001 A 
ATOM     11  C12 NON d   1     -37.230  20.302  -7.122  0.00  0.00     0.001 A 
ATOM     12  C13 NON d   1     -37.857  19.622  -6.078  0.00  0.00     0.014 A 
ATOM     13  C14 NON d   1     -39.263  19.509  -6.055  0.00  0.00     0.002 A 
ATOM     14  H4  NON d   1     -38.484  18.102  -3.652  0.00  0.00     0.165 HD
ENDROOT
BRANCH   1  15
ATOM     15  C2  NON d   1     -42.998  17.591  -3.334  0.00  0.00     0.152 C 
ATOM     16  N2  NON d   1     -43.893  17.235  -4.197  0.00  0.00    -0.183 NA
BRANCH  16  17
ATOM     17  N1  NON d   1     -45.121  16.893  -3.702  0.00  0.00    -0.243 N 
ATOM     18  C1  NON d   1     -46.116  16.504  -4.592  0.00  0.00     0.271 C 
ATOM     19  O1  NON d   1     -45.959  16.448  -5.810  0.00  0.00    -0.266 OA
ATOM     20  H1  NON d   1     -45.266  16.934  -2.704  0.00  0.00     0.192 HD
BRANCH  18  21
ATOM     21  C15 NON d   1     -47.453  16.133  -4.021  0.00  0.00     0.036 A 
ATOM     22  C16 NON d   1     -47.847  16.786  -2.838  0.00  0.00     0.017 A 
ATOM     23  C17 NON d   1     -49.074  16.504  -2.236  0.00  0.00     0.004 A 
ATOM     24  C18 NON d   1     -49.925  15.563  -2.808  0.00  0.00     0.036 A 
ATOM     25  C19 NON d   1     -49.541  14.913  -3.976  0.00  0.00     0.066 A 
ATOM     26  C20 NON d   1     -48.317  15.186  -4.590  0.00  0.00     0.053 A 
BRANCH  25  27
ATOM     27  O2  NON d   1     -50.411  14.000  -4.495  0.00  0.00    -0.361 OA
ATOM     28  H14 NON d   1     -50.441  13.215  -3.924  0.00  0.00     0.217 HD
ENDBRANCH  25  27
ENDBRANCH  18  21
ENDBRANCH  16  17
ENDBRANCH   1  15
TORSDOF 4
ENDMDL
MODEL 2
REMARK VINA RESULT:   -13.087      1.344      2.477
REMARK INTER + INTRA:         -14.690
REMARK INTER:                 -14.281
REMARK INTRA:                  -0.410
REMARK CONF_INDEPENDENT:        1.193
REMARK UNBOUND:                -0.410
REMARK  4 active torsions:
REMARK  status: ('A' for Active; 'I' for Inactive)
REMARK       I    between atoms: C1_2  and  N1_3 
REMARK    1  A    between atoms: C1_2  and  C15_19 
REMARK    2  A    between atoms: N1_3  and  N2_4 
REMARK    3  A    between atoms: C2_5  and  C3_6 
REMARK    4  A    between atoms: C19_23  and  O2_24 
ROOT
ATOM      1  C3  NON d   1     -42.529  18.768  -4.969  0.00  0.00     0.011 A 
ATOM      2  C4  NON d   1     -42.257  19.505  -6.105  0.00  0.00     0.102 A 
ATOM      3  N3  NON d   1     -40.908  19.702  -6.182  0.00  0.00    -0.364 N 
ATOM      4  C5  NON d   1     -40.273  19.108  -5.114  0.00  0.00     0.054 A 
ATOM      5  C6  NON d   1     -41.269  18.513  -4.334  0.00  0.00     0.004 A 
ATOM      6  C7  NON d   1     -40.887  17.827  -3.162  0.00  0.00     0.015 A 
ATOM      7  C8  NON d   1     -39.533  17.755  -2.805  0.00  0.00     0.013 A 
ATOM      8  C9  NON d   1     -38.540  18.353  -3.590  0.00  0.00    -0.024 A 
ATOM      9  C10 NON d   1     -37.183  18.284  -3.236  0.00  0.00     0.012 A 
ATOM     10  C11 NON d   1     -36.204  18.886  -4.030  0.00  0.00     0.001 A 
ATOM     11  C12 NON d   1     -36.561  19.568  -5.191  0.00  0.00     0.001 A 
ATOM     12  C13 NON d   1     -37.903  19.653  -5.566  0.00  0.00     0.014 A 
ATOM     13  C14 NON d   1     -38.896  19.047  -4.770  0.00  0.00     0.002 A 
ATOM     14  H4  NON d   1     -40.442  20.212  -6.919  0.00  0.00     0.165 HD
ENDROOT
BRANCH   1  15
ATOM     15  C2  NON d   1     -43.845  18.351  -4.533  0.00  0.00     0.152 C 
ATOM     16  N2  NON d   1     -44.000  17.168  -4.033  0.00  0.00    -0.183 NA
BRANCH  16  17
ATOM     17  N1  NON d   1     -45.265  16.829  -3.639  0.00  0.00    -0.243 N 
ATOM     18  C1  NON d   1     -46.188  16.450  -4.608  0.00  0.00     0.271 C 
ATOM     19  O1  NON d   1     -45.934  16.401  -5.810  0.00  0.00    -0.266 OA
ATOM     20  H1  NON d   1     -45.489  16.864  -2.656  0.00  0.00     0.192 HD
BRANCH  18  21
ATOM     21  C15 NON d   1     -47.567  16.082  -4.148  0.00  0.00     0.036 A 
ATOM     22  C16 NON d   1     -48.080  16.781  -3.039  0.00  0.00     0.017 A 
ATOM     23  C17 NON d   1     -49.355  16.505  -2.542  0.00  0.00     0.004 A 
ATOM     24  C18 NON d   1     -50.135  15.525  -3.147  0.00  0.00     0.036 A 
ATOM     25  C19 NON d   1     -49.635  14.830  -4.242  0.00  0.00     0.066 A 
ATOM     26  C20 NON d   1     -48.361  15.096  -4.751  0.00  0.00     0.053 A 
BRANCH  25  27
ATOM     27  O2  NON d   1     -50.440  13.880  -4.797  0.00  0.00    -0.361 OA
ATOM     28  H14 NON d   1     -50.572  13.153  -4.166  0.00  0.00     0.217 HD
ENDBRANCH  25  27
ENDBRANCH  18  21
ENDBRANCH  16  17
ENDBRANCH   1  15
TORSDOF 4
ENDMDL
MODEL 3
REMARK VINA RESULT:   -12.455      1.598      1.715
REMARK INTER + INTRA:         -13.971
REMARK INTER:                 -13.648
REMARK INTRA:                  -0.323
REMARK CONF_INDEPENDENT:        1.193
REMARK UNBOUND:                -0.323
REMARK  4 active torsions:
REMARK  status: ('A' for Active; 'I' for Inactive)
REMARK       I    between atoms: C1_2  and  N1_3 
REMARK    1  A    between atoms: C1_2  and  C15_19 
REMARK    2  A    between atoms: N1_3  and  N2_4 
REMARK    3  A    between atoms: C2_5  and  C3_6 
REMARK    4  A    between atoms: C19_23  and  O2_24 
ROOT
ATOM      1  C3  NON d   1     -42.015  18.485  -5.006  0.00  0.00     0.011 A 
ATOM      2  C4  NON d   1     -41.256  17.665  -5.818  0.00  0.00     0.102 A 
ATOM      3  N3  NON d   1     -40.172  18.371  -6.255  0.00  0.00    -0.364 N 
ATOM      4  C5  NON d   1     -40.195  19.651  -5.747  0.00  0.00     0.054 A 
ATOM      5  C6  NON d   1     -41.344  19.750  -4.957  0.00  0.00     0.004 A 
ATOM      6  C7  NON d   1     -41.613  20.975  -4.310  0.00  0.00     0.015 A 
ATOM      7  C8  NON d   1     -40.734  22.056  -4.468  0.00  0.00     0.013 A 
ATOM      8  C9  NON d   1     -39.585  21.950  -5.261  0.00  0.00    -0.024 A 
ATOM      9  C10 NON d   1     -38.703  23.031  -5.421  0.00  0.00     0.012 A 
ATOM     10  C11 NON d   1     -37.559  22.910  -6.216  0.00  0.00     0.001 A 
ATOM     11  C12 NON d   1     -37.277  21.709  -6.863  0.00  0.00     0.001 A 
ATOM     12  C13 NON d   1     -38.136  20.620  -6.720  0.00  0.00     0.014 A 
ATOM     13  C14 NON d   1     -39.292  20.734  -5.920  0.00  0.00     0.002 A 
ATOM     14  H4  NON d   1     -39.454  18.006  -6.865  0.00  0.00     0.165 HD
ENDROOT
BRANCH   1  15
ATOM     15  C2  NON d   1     -43.247  18.105  -4.346  0.00  0.00     0.152 C 
ATOM     16  N2  NON d   1     -44.327  17.983  -5.048  0.00  0.00    -0.183 NA
BRANCH  16  17
ATOM     17  N1  NON d   1     -45.461  17.623  -4.371  0.00  0.00    -0.243 N 
ATOM     18  C1  NON d   1     -46.193  16.532  -4.826  0.00  0.00     0.271 C 
ATOM     19  O1  NON d   1     -45.882  15.864  -5.810  0.00  0.00    -0.266 OA
ATOM     20  H1  NON d   1     -45.729  18.162  -3.562  0.00  0.00     0.192 HD
BRANCH  18  21
ATOM     21  C15 NON d   1     -47.430  16.160  -4.065  0.00  0.00     0.036 A 
ATOM     22  C16 NON d   1     -47.638  16.799  -2.828  0.00  0.00     0.017 A 
ATOM     23  C17 NON d   1     -48.762  16.514  -2.051  0.00  0.00     0.004 A 
ATOM     24  C18 NON d   1     -49.695  15.585  -2.500  0.00  0.00     0.036 A 
ATOM     25  C19 NON d   1     -49.496  14.949  -3.720  0.00  0.00     0.066 A 
ATOM     26  C20 NON d   1     -48.376  15.224  -4.509  0.00  0.00     0.053 A 
BRANCH  25  27
ATOM     27  O2  NON d   1     -50.440  14.047  -4.113  0.00  0.00    -0.361 OA
ATOM     28  H14 NON d   1     -50.368  13.241  -3.575  0.00  0.00     0.217 HD
ENDBRANCH  25  27
ENDBRANCH  18  21
ENDBRANCH  16  17
ENDBRANCH   1  15
TORSDOF 4
ENDMDL
MODEL 4
REMARK VINA RESULT:   -10.811      1.764      2.704
REMARK INTER + INTRA:         -12.324
REMARK INTER:                 -12.004
REMARK INTRA:                  -0.319
REMARK CONF_INDEPENDENT:        1.193
REMARK UNBOUND:                -0.319
REMARK  4 active torsions:
REMARK  status: ('A' for Active; 'I' for Inactive)
REMARK       I    between atoms: C1_2  and  N1_3 
REMARK    1  A    between atoms: C1_2  and  C15_19 
REMARK    2  A    between atoms: N1_3  and  N2_4 
REMARK    3  A    between atoms: C2_5  and  C3_6 
REMARK    4  A    between atoms: C19_23  and  O2_24 
ROOT
ATOM      1  C3  NON d   1     -40.332  19.463  -5.563  0.00  0.00     0.011 A 
ATOM      2  C4  NON d   1     -39.266  19.551  -4.689  0.00  0.00     0.102 A 
ATOM      3  N3  NON d   1     -38.325  20.376  -5.235  0.00  0.00    -0.364 N 
ATOM      4  C5  NON d   1     -38.746  20.842  -6.461  0.00  0.00     0.054 A 
ATOM      5  C6  NON d   1     -40.007  20.283  -6.692  0.00  0.00     0.004 A 
ATOM      6  C7  NON d   1     -40.673  20.601  -7.894  0.00  0.00     0.015 A 
ATOM      7  C8  NON d   1     -40.068  21.459  -8.823  0.00  0.00     0.013 A 
ATOM      8  C9  NON d   1     -38.805  22.015  -8.585  0.00  0.00    -0.024 A 
ATOM      9  C10 NON d   1     -38.196  22.875  -9.513  0.00  0.00     0.012 A 
ATOM     10  C11 NON d   1     -36.935  23.422  -9.262  0.00  0.00     0.001 A 
ATOM     11  C12 NON d   1     -36.261  23.121  -8.081  0.00  0.00     0.001 A 
ATOM     12  C13 NON d   1     -36.843  22.269  -7.142  0.00  0.00     0.014 A 
ATOM     13  C14 NON d   1     -38.115  21.713  -7.388  0.00  0.00     0.002 A 
ATOM     14  H4  NON d   1     -37.444  20.612  -4.800  0.00  0.00     0.165 HD
ENDROOT
BRANCH   1  15
ATOM     15  C2  NON d   1     -41.533  18.683  -5.346  0.00  0.00     0.152 C 
ATOM     16  N2  NON d   1     -41.904  18.417  -4.136  0.00  0.00    -0.183 NA
BRANCH  16  17
ATOM     17  N1  NON d   1     -43.045  17.677  -3.992  0.00  0.00    -0.243 N 
ATOM     18  C1  NON d   1     -44.201  18.096  -4.641  0.00  0.00     0.271 C 
ATOM     19  O1  NON d   1     -44.262  19.104  -5.343  0.00  0.00    -0.266 OA
ATOM     20  H1  NON d   1     -43.011  16.847  -3.419  0.00  0.00     0.192 HD
BRANCH  18  21
ATOM     21  C15 NON d   1     -45.437  17.264  -4.467  0.00  0.00     0.036 A 
ATOM     22  C16 NON d   1     -46.027  17.255  -3.190  0.00  0.00     0.017 A 
ATOM     23  C17 NON d   1     -47.179  16.509  -2.936  0.00  0.00     0.004 A 
ATOM     24  C18 NON d   1     -47.756  15.760  -3.957  0.00  0.00     0.036 A 
ATOM     25  C19 NON d   1     -47.178  15.763  -5.220  0.00  0.00     0.066 A 
ATOM     26  C20 NON d   1     -46.025  16.506  -5.490  0.00  0.00     0.053 A 
BRANCH  25  27
ATOM     27  O2  NON d   1     -47.783  15.012  -6.185  0.00  0.00    -0.361 OA
ATOM     28  H14 NON d   1     -48.534  15.502  -6.558  0.00  0.00     0.217 HD
ENDBRANCH  25  27
ENDBRANCH  18  21
ENDBRANCH  16  17
ENDBRANCH   1  15
TORSDOF 4
ENDMDL
