MODEL 1
REMARK VINA RESULT:   -36.164      0.000      0.000
REMARK INTER + INTRA:         -39.326
REMARK INTER:                 -37.954
REMARK INTRA:                  -1.373
REMARK CONF_INDEPENDENT:        1.790
REMARK UNBOUND:                -1.373
REMARK  6 active torsions:
REMARK  status: ('A' for Active; 'I' for Inactive)
REMARK    1  A    between atoms: S1_2  and  C1_3 
REMARK    2  A    between atoms: S1_2  and  C8_14 
REMARK    3  A    between atoms: C1_3  and  C2_4 
REMARK    4  A    between atoms: C3_6  and  C4_7 
REMARK    5  A    between atoms: C8_14  and  C9_15 
REMARK    6  A    between atoms: C8_14  and  C15_21 
ROOT
ATOM      1  O1  NON d   1     -44.226  19.503  -6.074  0.00  0.00    -0.257 OA
ATOM      2  S1  NON d   1     -43.426  19.056  -4.886  0.00  0.00     0.036 S 
ENDROOT
BRANCH   2   3
ATOM      3  C1  NON d   1     -43.816  17.306  -4.495  0.00  0.00     0.198 C 
BRANCH   3   4
ATOM      4  C2  NON d   1     -45.234  16.854  -4.537  0.00  0.00     0.184 A 
ATOM      5  N1  NON d   1     -46.160  16.661  -3.617  0.00  0.00    -0.203 NA
ATOM      6  C3  NON d   1     -47.282  16.400  -4.378  0.00  0.00     0.189 A 
ATOM      7  N2  NON d   1     -47.092  16.505  -5.701  0.00  0.00    -0.106 NA
ATOM      8  O2  NON d   1     -45.742  16.799  -5.810  0.00  0.00    -0.195 OA
BRANCH   6   9
ATOM      9  C4  NON d   1     -48.580  16.040  -3.791  0.00  0.00     0.021 A 
ATOM     10  C5  NON d   1     -49.228  14.790  -4.025  0.00  0.00     0.023 A 
ATOM     11  C6  NON d   1     -50.454  14.717  -3.398  0.00  0.00     0.050 A 
ATOM     12  S2  NON d   1     -50.810  16.134  -2.505  0.00  0.00    -0.113 SA
ATOM     13  C7  NON d   1     -49.336  16.864  -2.985  0.00  0.00     0.065 A 
ENDBRANCH   6   9
ENDBRANCH   3   4
ENDBRANCH   2   3
BRANCH   2  14
ATOM     14  C8  NON d   1     -41.586  18.563  -5.398  0.00  0.00     0.145 C 
BRANCH  14  15
ATOM     15  C9  NON d   1     -40.887  19.141  -6.876  0.00  0.00    -0.038 A 
ATOM     16  C10 NON d   1     -41.296  20.325  -7.505  0.00  0.00     0.009 A 
ATOM     17  C11 NON d   1     -40.421  21.043  -8.356  0.00  0.00     0.001 A 
ATOM     18  C12 NON d   1     -39.134  20.593  -8.655  0.00  0.00     0.000 A 
ATOM     19  C13 NON d   1     -38.734  19.371  -8.161  0.00  0.00     0.001 A 
ATOM     20  C14 NON d   1     -39.590  18.659  -7.317  0.00  0.00     0.009 A 
ENDBRANCH  14  15
BRANCH  14  21
ATOM     21  C15 NON d   1     -40.675  18.974  -4.226  0.00  0.00    -0.038 A 
ATOM     22  C16 NON d   1     -39.751  18.117  -3.588  0.00  0.00     0.009 A 
ATOM     23  C17 NON d   1     -38.875  18.570  -2.594  0.00  0.00     0.001 A 
ATOM     24  C18 NON d   1     -38.937  19.882  -2.157  0.00  0.00     0.000 A 
ATOM     25  C19 NON d   1     -39.837  20.757  -2.757  0.00  0.00     0.001 A 
ATOM     26  C20 NON d   1     -40.650  20.322  -3.814  0.00  0.00     0.009 A 
ENDBRANCH  14  21
ENDBRANCH   2  14
TORSDOF 6
ENDMDL
MODEL 2
REMARK VINA RESULT:   -35.686      1.227      3.709
REMARK INTER + INTRA:         -38.833
REMARK INTER:                 -37.476
REMARK INTRA:                  -1.356
REMARK CONF_INDEPENDENT:        1.790
REMARK UNBOUND:                -1.356
REMARK  6 active torsions:
REMARK  status: ('A' for Active; 'I' for Inactive)
REMARK    1  A    between atoms: S1_2  and  C1_3 
REMARK    2  A    between atoms: S1_2  and  C8_14 
REMARK    3  A    between atoms: C1_3  and  C2_4 
REMARK    4  A    between atoms: C3_6  and  C4_7 
REMARK    5  A    between atoms: C8_14  and  C9_15 
REMARK    6  A    between atoms: C8_14  and  C15_21 
ROOT
ATOM      1  O1  NON d   1     -42.609  16.508  -3.272  0.00  0.00    -0.257 OA
ATOM      2  S1  NON d   1     -42.531  17.245  -4.576  0.00  0.00     0.036 S 
ENDROOT
BRANCH   2   3
ATOM      3  C1  NON d   1     -44.074  18.199  -4.848  0.00  0.00     0.198 C 
BRANCH   3   4
ATOM      4  C2  NON d   1     -45.383  17.491  -4.782  0.00  0.00     0.184 A 
ATOM      5  N1  NON d   1     -46.201  17.172  -3.798  0.00  0.00    -0.203 NA
ATOM      6  C3  NON d   1     -47.297  16.673  -4.475  0.00  0.00     0.189 A 
ATOM      7  N2  NON d   1     -47.207  16.751  -5.810  0.00  0.00    -0.106 NA
ATOM      8  O2  NON d   1     -45.944  17.284  -6.017  0.00  0.00    -0.195 OA
BRANCH   6   9
ATOM      9  C4  NON d   1     -48.468  16.107  -3.792  0.00  0.00     0.021 A 
ATOM     10  C5  NON d   1     -48.946  16.581  -2.533  0.00  0.00     0.023 A 
ATOM     11  C6  NON d   1     -50.029  15.854  -2.085  0.00  0.00     0.050 A 
ATOM     12  S2  NON d   1     -50.487  14.626  -3.187  0.00  0.00    -0.113 SA
ATOM     13  C7  NON d   1     -49.214  15.044  -4.254  0.00  0.00     0.065 A 
ENDBRANCH   6   9
ENDBRANCH   3   4
ENDBRANCH   2   3
BRANCH   2  14
ATOM     14  C8  NON d   1     -41.495  18.915  -4.400  0.00  0.00     0.145 C 
BRANCH  14  15
ATOM     15  C9  NON d   1     -40.237  19.063  -3.214  0.00  0.00    -0.038 A 
ATOM     16  C10 NON d   1     -39.160  18.171  -3.126  0.00  0.00     0.009 A 
ATOM     17  C11 NON d   1     -37.924  18.567  -2.558  0.00  0.00     0.001 A 
ATOM     18  C12 NON d   1     -37.726  19.837  -2.016  0.00  0.00     0.000 A 
ATOM     19  C13 NON d   1     -38.794  20.706  -1.967  0.00  0.00     0.001 A 
ATOM     20  C14 NON d   1     -40.014  20.324  -2.529  0.00  0.00     0.009 A 
ENDBRANCH  14  15
BRANCH  14  21
ATOM     21  C15 NON d   1     -40.903  19.218  -5.789  0.00  0.00    -0.038 A 
ATOM     22  C16 NON d   1     -39.876  18.469  -6.405  0.00  0.00     0.009 A 
ATOM     23  C17 NON d   1     -39.445  18.726  -7.712  0.00  0.00     0.001 A 
ATOM     24  C18 NON d   1     -39.981  19.784  -8.426  0.00  0.00     0.000 A 
ATOM     25  C19 NON d   1     -40.992  20.549  -7.853  0.00  0.00     0.001 A 
ATOM     26  C20 NON d   1     -41.483  20.232  -6.578  0.00  0.00     0.009 A 
ENDBRANCH  14  21
ENDBRANCH   2  14
TORSDOF 6
ENDMDL
MODEL 3
REMARK VINA RESULT:   -34.299      1.433      2.085
REMARK INTER + INTRA:         -37.208
REMARK INTER:                 -36.089
REMARK INTRA:                  -1.120
REMARK CONF_INDEPENDENT:        1.790
REMARK UNBOUND:                -1.120
REMARK  6 active torsions:
REMARK  status: ('A' for Active; 'I' for Inactive)
REMARK    1  A    between atoms: S1_2  and  C1_3 
REMARK    2  A    between atoms: S1_2  and  C8_14 
REMARK    3  A    between atoms: C1_3  and  C2_4 
REMARK    4  A    between atoms: C3_6  and  C4_7 
REMARK    5  A    between atoms: C8_14  and  C9_15 
REMARK    6  A    between atoms: C8_14  and  C15_21 
ROOT
ATOM      1  O1  NON d   1     -42.919  18.190  -2.312  0.00  0.00    -0.257 OA
ATOM      2  S1  NON d   1     -42.640  17.251  -3.449  0.00  0.00     0.036 S 
ENDROOT
BRANCH   2   3
ATOM      3  C1  NON d   1     -43.829  17.554  -4.813  0.00  0.00     0.198 C 
BRANCH   3   4
ATOM      4  C2  NON d   1     -45.227  17.062  -4.676  0.00  0.00     0.184 A 
ATOM      5  N1  NON d   1     -46.069  16.972  -3.665  0.00  0.00    -0.203 NA
ATOM      6  C3  NON d   1     -47.238  16.578  -4.287  0.00  0.00     0.189 A 
ATOM      7  N2  NON d   1     -47.157  16.505  -5.623  0.00  0.00    -0.106 NA
ATOM      8  O2  NON d   1     -45.831  16.817  -5.883  0.00  0.00    -0.195 OA
BRANCH   6   9
ATOM      9  C4  NON d   1     -48.470  16.268  -3.550  0.00  0.00     0.021 A 
ATOM     10  C5  NON d   1     -48.849  16.928  -2.342  0.00  0.00     0.023 A 
ATOM     11  C6  NON d   1     -50.023  16.424  -1.824  0.00  0.00     0.050 A 
ATOM     12  S2  NON d   1     -50.683  15.182  -2.801  0.00  0.00    -0.113 SA
ATOM     13  C7  NON d   1     -49.379  15.294  -3.906  0.00  0.00     0.065 A 
ENDBRANCH   6   9
ENDBRANCH   3   4
ENDBRANCH   2   3
BRANCH   2  14
ATOM     14  C8  NON d   1     -41.147  17.896  -4.567  0.00  0.00     0.145 C 
BRANCH  14  15
ATOM     15  C9  NON d   1     -41.227  19.436  -5.359  0.00  0.00    -0.038 A 
ATOM     16  C10 NON d   1     -41.281  20.652  -4.665  0.00  0.00     0.009 A 
ATOM     17  C11 NON d   1     -40.823  21.855  -5.256  0.00  0.00     0.001 A 
ATOM     18  C12 NON d   1     -40.344  21.908  -6.566  0.00  0.00     0.000 A 
ATOM     19  C13 NON d   1     -40.389  20.761  -7.329  0.00  0.00     0.001 A 
ATOM     20  C14 NON d   1     -40.835  19.571  -6.751  0.00  0.00     0.009 A 
ENDBRANCH  14  15
BRANCH  14  21
ATOM     21  C15 NON d   1     -39.885  17.858  -3.684  0.00  0.00    -0.038 A 
ATOM     22  C16 NON d   1     -39.803  17.217  -2.428  0.00  0.00     0.009 A 
ATOM     23  C17 NON d   1     -38.602  17.126  -1.713  0.00  0.00     0.001 A 
ATOM     24  C18 NON d   1     -37.456  17.732  -2.199  0.00  0.00     0.000 A 
ATOM     25  C19 NON d   1     -37.497  18.377  -3.430  0.00  0.00     0.001 A 
ATOM     26  C20 NON d   1     -38.679  18.388  -4.185  0.00  0.00     0.009 A 
ENDBRANCH  14  21
ENDBRANCH   2  14
TORSDOF 6
ENDMDL
