MODEL 1
REMARK VINA RESULT:   -33.064      0.000      0.000
REMARK INTER + INTRA:         -34.498
REMARK INTER:                 -34.257
REMARK INTRA:                  -0.241
REMARK CONF_INDEPENDENT:        1.193
REMARK UNBOUND:                -0.241
REMARK  4 active torsions:
REMARK  status: ('A' for Active; 'I' for Inactive)
REMARK       I    between atoms: N1_1  and  C1_2 
REMARK       I    between atoms: C1_2  and  N2_3 
REMARK    1  A    between atoms: N3_4  and  C2_5 
REMARK    2  A    between atoms: C4_9  and  C5_10 
REMARK    3  A    between atoms: C5_10  and  C6_11 
REMARK       I    between atoms: C6_11  and  N5_13 
REMARK    4  A    between atoms: N5_13  and  C7_14 
ROOT
ATOM      1  C2  NON d   1     -46.353  16.677  -5.359  0.00  0.00     0.188 C 
ATOM      2  N4  NON d   1     -45.647  16.335  -4.254  0.00  0.00    -0.304 N 
ATOM      3  C3  NON d   1     -44.511  17.060  -3.999  0.00  0.00     0.238 C 
ATOM      4  O1  NON d   1     -43.984  17.078  -2.897  0.00  0.00    -0.272 OA
ATOM      5  C4  NON d   1     -44.030  17.776  -5.248  0.00  0.00     0.156 C 
ATOM      6  S1  NON d   1     -45.587  18.007  -6.185  0.00  0.00    -0.076 SA
ATOM      7  H5  NON d   1     -45.977  15.737  -3.515  0.00  0.00     0.171 HD
ENDROOT
BRANCH   5   8
ATOM      8  C5  NON d   1     -43.214  19.025  -4.932  0.00  0.00     0.128 C 
BRANCH   8   9
ATOM      9  C6  NON d   1     -41.865  18.689  -4.345  0.00  0.00     0.223 C 
ATOM     10  O2  NON d   1     -41.764  18.311  -3.175  0.00  0.00    -0.273 OA
ATOM     11  N5  NON d   1     -40.711  18.794  -5.067  0.00  0.00    -0.327 N 
ATOM     12  H9  NON d   1     -39.927  18.518  -4.484  0.00  0.00     0.169 HD
BRANCH  11  13
ATOM     13  C7  NON d   1     -40.380  19.269  -6.348  0.00  0.00     0.036 A 
ATOM     14  C8  NON d   1     -41.152  20.127  -7.133  0.00  0.00     0.029 A 
ATOM     15  C9  NON d   1     -40.679  20.594  -8.367  0.00  0.00     0.004 A 
ATOM     16  C10 NON d   1     -39.438  20.185  -8.846  0.00  0.00     0.024 A 
ATOM     17  C11 NON d   1     -38.678  19.302  -8.092  0.00  0.00     0.036 A 
ATOM     18 Cl1  NON d   1     -37.149  18.773  -8.682  0.00  0.00    -0.084 Cl
ATOM     19  C12 NON d   1     -39.140  18.847  -6.855  0.00  0.00     0.053 A 
ENDBRANCH  11  13
ENDBRANCH   8   9
ENDBRANCH   5   8
BRANCH   1  20
ATOM     20  N3  NON d   1     -47.440  16.161  -5.810  0.00  0.00    -0.041 NA
ATOM     21  C1  NON d   1     -48.515  15.832  -5.091  0.00  0.00     0.694 C 
ATOM     22  N1  NON d   1     -49.004  14.630  -5.252  0.00  0.00    -0.233 N 
ATOM     23  N2  NON d   1     -49.122  16.661  -4.283  0.00  0.00    -0.233 N 
ATOM     24  H1  NON d   1     -49.834  14.286  -4.796  0.00  0.00     0.174 HD
ATOM     25  H2  NON d   1     -48.536  14.038  -5.930  0.00  0.00     0.174 HD
ATOM     26  H3  NON d   1     -48.837  17.630  -4.266  0.00  0.00     0.174 HD
ATOM     27  H4  NON d   1     -49.957  16.400  -3.776  0.00  0.00     0.174 HD
ENDBRANCH   1  20
TORSDOF 4
ENDMDL
MODEL 2
REMARK VINA RESULT:   -32.718      1.204      1.439
REMARK INTER + INTRA:         -34.165
REMARK INTER:                 -33.911
REMARK INTRA:                  -0.254
REMARK CONF_INDEPENDENT:        1.193
REMARK UNBOUND:                -0.254
REMARK  4 active torsions:
REMARK  status: ('A' for Active; 'I' for Inactive)
REMARK       I    between atoms: N1_1  and  C1_2 
REMARK       I    between atoms: C1_2  and  N2_3 
REMARK    1  A    between atoms: N3_4  and  C2_5 
REMARK    2  A    between atoms: C4_9  and  C5_10 
REMARK    3  A    between atoms: C5_10  and  C6_11 
REMARK       I    between atoms: C6_11  and  N5_13 
REMARK    4  A    between atoms: N5_13  and  C7_14 
ROOT
ATOM      1  C2  NON d   1     -46.351  16.677  -5.360  0.00  0.00     0.188 C 
ATOM      2  N4  NON d   1     -45.645  16.333  -4.256  0.00  0.00    -0.304 N 
ATOM      3  C3  NON d   1     -44.507  17.055  -4.001  0.00  0.00     0.238 C 
ATOM      4  O1  NON d   1     -43.980  17.071  -2.899  0.00  0.00    -0.272 OA
ATOM      5  C4  NON d   1     -44.026  17.771  -5.250  0.00  0.00     0.156 C 
ATOM      6  S1  NON d   1     -45.583  18.006  -6.185  0.00  0.00    -0.076 SA
ATOM      7  H5  NON d   1     -45.976  15.735  -3.517  0.00  0.00     0.171 HD
ENDROOT
BRANCH   5   8
ATOM      8  C5  NON d   1     -43.206  19.018  -4.933  0.00  0.00     0.128 C 
BRANCH   8   9
ATOM      9  C6  NON d   1     -41.897  18.682  -4.264  0.00  0.00     0.223 C 
ATOM     10  O2  NON d   1     -41.865  18.332  -3.081  0.00  0.00    -0.273 OA
ATOM     11  N5  NON d   1     -40.703  18.757  -4.921  0.00  0.00    -0.327 N 
ATOM     12  H9  NON d   1     -39.956  18.487  -4.289  0.00  0.00     0.169 HD
BRANCH  11  13
ATOM     13  C7  NON d   1     -40.295  19.195  -6.194  0.00  0.00     0.036 A 
ATOM     14  C8  NON d   1     -39.937  18.381  -7.269  0.00  0.00     0.029 A 
ATOM     15  C9  NON d   1     -39.620  18.934  -8.518  0.00  0.00     0.004 A 
ATOM     16  C10 NON d   1     -39.630  20.314  -8.698  0.00  0.00     0.024 A 
ATOM     17  C11 NON d   1     -39.948  21.137  -7.626  0.00  0.00     0.036 A 
ATOM     18 Cl1  NON d   1     -39.945  22.846  -7.831  0.00  0.00    -0.084 Cl
ATOM     19  C12 NON d   1     -40.278  20.586  -6.385  0.00  0.00     0.053 A 
ENDBRANCH  11  13
ENDBRANCH   8   9
ENDBRANCH   5   8
BRANCH   1  20
ATOM     20  N3  NON d   1     -47.440  16.164  -5.810  0.00  0.00    -0.041 NA
ATOM     21  C1  NON d   1     -48.514  15.834  -5.090  0.00  0.00     0.694 C 
ATOM     22  N1  NON d   1     -49.005  14.634  -5.254  0.00  0.00    -0.233 N 
ATOM     23  N2  NON d   1     -49.119  16.662  -4.279  0.00  0.00    -0.233 N 
ATOM     24  H1  NON d   1     -49.835  14.289  -4.797  0.00  0.00     0.174 HD
ATOM     25  H2  NON d   1     -48.539  14.042  -5.934  0.00  0.00     0.174 HD
ATOM     26  H3  NON d   1     -48.832  17.631  -4.260  0.00  0.00     0.174 HD
ATOM     27  H4  NON d   1     -49.953  16.401  -3.771  0.00  0.00     0.174 HD
ENDBRANCH   1  20
TORSDOF 4
ENDMDL
MODEL 3
REMARK VINA RESULT:   -32.156      3.057      3.638
REMARK INTER + INTRA:         -33.718
REMARK INTER:                 -33.349
REMARK INTRA:                  -0.369
REMARK CONF_INDEPENDENT:        1.193
REMARK UNBOUND:                -0.369
REMARK  4 active torsions:
REMARK  status: ('A' for Active; 'I' for Inactive)
REMARK       I    between atoms: N1_1  and  C1_2 
REMARK       I    between atoms: C1_2  and  N2_3 
REMARK    1  A    between atoms: N3_4  and  C2_5 
REMARK    2  A    between atoms: C4_9  and  C5_10 
REMARK    3  A    between atoms: C5_10  and  C6_11 
REMARK       I    between atoms: C6_11  and  N5_13 
REMARK    4  A    between atoms: N5_13  and  C7_14 
ROOT
ATOM      1  C2  NON d   1     -46.294  16.993  -5.129  0.00  0.00     0.188 C 
ATOM      2  N4  NON d   1     -45.501  16.674  -4.078  0.00  0.00    -0.304 N 
ATOM      3  C3  NON d   1     -44.318  17.358  -3.968  0.00  0.00     0.238 C 
ATOM      4  O1  NON d   1     -43.688  17.406  -2.922  0.00  0.00    -0.272 OA
ATOM      5  C4  NON d   1     -43.929  17.989  -5.293  0.00  0.00     0.156 C 
ATOM      6  S1  NON d   1     -45.557  18.244  -6.092  0.00  0.00    -0.076 SA
ATOM      7  H5  NON d   1     -45.783  16.128  -3.281  0.00  0.00     0.171 HD
ENDROOT
BRANCH   5   8
ATOM      8  C5  NON d   1     -43.036  19.214  -5.120  0.00  0.00     0.128 C 
BRANCH   8   9
ATOM      9  C6  NON d   1     -41.570  18.859  -5.168  0.00  0.00     0.223 C 
ATOM     10  O2  NON d   1     -41.195  17.800  -5.676  0.00  0.00    -0.273 OA
ATOM     11  N5  NON d   1     -40.607  19.677  -4.651  0.00  0.00    -0.327 N 
ATOM     12  H9  NON d   1     -39.697  19.250  -4.791  0.00  0.00     0.169 HD
BRANCH  11  13
ATOM     13  C7  NON d   1     -40.610  20.877  -3.918  0.00  0.00     0.036 A 
ATOM     14  C8  NON d   1     -40.981  22.134  -4.399  0.00  0.00     0.029 A 
ATOM     15  C9  NON d   1     -41.017  23.248  -3.549  0.00  0.00     0.004 A 
ATOM     16  C10 NON d   1     -40.653  23.124  -2.211  0.00  0.00     0.024 A 
ATOM     17  C11 NON d   1     -40.246  21.887  -1.730  0.00  0.00     0.036 A 
ATOM     18 Cl1  NON d   1     -39.775  21.725  -0.082  0.00  0.00    -0.084 Cl
ATOM     19  C12 NON d   1     -40.224  20.773  -2.572  0.00  0.00     0.053 A 
ENDBRANCH  11  13
ENDBRANCH   8   9
ENDBRANCH   5   8
BRANCH   1  20
ATOM     20  N3  NON d   1     -47.439  16.505  -5.449  0.00  0.00    -0.041 NA
ATOM     21  C1  NON d   1     -48.408  16.144  -4.605  0.00  0.00     0.694 C 
ATOM     22  N1  NON d   1     -48.928  14.954  -4.756  0.00  0.00    -0.233 N 
ATOM     23  N2  NON d   1     -48.887  16.933  -3.680  0.00  0.00    -0.233 N 
ATOM     24  H1  NON d   1     -49.690  14.591  -4.206  0.00  0.00     0.174 HD
ATOM     25  H2  NON d   1     -48.566  14.395  -5.521  0.00  0.00     0.174 HD
ATOM     26  H3  NON d   1     -48.591  17.900  -3.655  0.00  0.00     0.174 HD
ATOM     27  H4  NON d   1     -49.647  16.651  -3.075  0.00  0.00     0.174 HD
ENDBRANCH   1  20
TORSDOF 4
ENDMDL
MODEL 4
REMARK VINA RESULT:   -32.054      2.908      3.695
REMARK INTER + INTRA:         -33.608
REMARK INTER:                 -33.247
REMARK INTRA:                  -0.361
REMARK CONF_INDEPENDENT:        1.193
REMARK UNBOUND:                -0.361
REMARK  4 active torsions:
REMARK  status: ('A' for Active; 'I' for Inactive)
REMARK       I    between atoms: N1_1  and  C1_2 
REMARK       I    between atoms: C1_2  and  N2_3 
REMARK    1  A    between atoms: N3_4  and  C2_5 
REMARK    2  A    between atoms: C4_9  and  C5_10 
REMARK    3  A    between atoms: C5_10  and  C6_11 
REMARK       I    between atoms: C6_11  and  N5_13 
REMARK    4  A    between atoms: N5_13  and  C7_14 
ROOT
ATOM      1  C2  NON d   1     -46.297  16.975  -5.079  0.00  0.00     0.188 C 
ATOM      2  N4  NON d   1     -45.528  16.621  -4.021  0.00  0.00    -0.304 N 
ATOM      3  C3  NON d   1     -44.342  17.292  -3.868  0.00  0.00     0.238 C 
ATOM      4  O1  NON d   1     -43.734  17.306  -2.809  0.00  0.00    -0.272 OA
ATOM      5  C4  NON d   1     -43.922  17.957  -5.167  0.00  0.00     0.156 C 
ATOM      6  S1  NON d   1     -45.532  18.247  -5.991  0.00  0.00    -0.076 SA
ATOM      7  H5  NON d   1     -45.830  16.055  -3.246  0.00  0.00     0.171 HD
ENDROOT
BRANCH   5   8
ATOM      8  C5  NON d   1     -43.024  19.169  -4.942  0.00  0.00     0.128 C 
BRANCH   8   9
ATOM      9  C6  NON d   1     -41.584  18.881  -5.283  0.00  0.00     0.223 C 
ATOM     10  O2  NON d   1     -41.294  18.018  -6.116  0.00  0.00    -0.273 OA
ATOM     11  N5  NON d   1     -40.548  19.542  -4.688  0.00  0.00    -0.327 N 
ATOM     12  H9  NON d   1     -39.671  19.196  -5.063  0.00  0.00     0.169 HD
BRANCH  11  13
ATOM     13  C7  NON d   1     -40.436  20.486  -3.651  0.00  0.00     0.036 A 
ATOM     14  C8  NON d   1     -40.017  20.226  -2.345  0.00  0.00     0.029 A 
ATOM     15  C9  NON d   1     -39.871  21.266  -1.416  0.00  0.00     0.004 A 
ATOM     16  C10 NON d   1     -40.170  22.577  -1.775  0.00  0.00     0.024 A 
ATOM     17  C11 NON d   1     -40.624  22.842  -3.060  0.00  0.00     0.036 A 
ATOM     18 Cl1  NON d   1     -41.016  24.457  -3.510  0.00  0.00    -0.084 Cl
ATOM     19  C12 NON d   1     -40.756  21.809  -3.991  0.00  0.00     0.053 A 
ENDBRANCH  11  13
ENDBRANCH   8   9
ENDBRANCH   5   8
BRANCH   1  20
ATOM     20  N3  NON d   1     -47.439  16.505  -5.436  0.00  0.00    -0.041 NA
ATOM     21  C1  NON d   1     -48.418  16.105  -4.621  0.00  0.00     0.694 C 
ATOM     22  N1  NON d   1     -48.937  14.925  -4.836  0.00  0.00    -0.233 N 
ATOM     23  N2  NON d   1     -48.907  16.849  -3.664  0.00  0.00    -0.233 N 
ATOM     24  H1  NON d   1     -49.706  14.536  -4.313  0.00  0.00     0.174 HD
ATOM     25  H2  NON d   1     -48.567  14.403  -5.623  0.00  0.00     0.174 HD
ATOM     26  H3  NON d   1     -48.610  17.812  -3.588  0.00  0.00     0.174 HD
ATOM     27  H4  NON d   1     -49.674  16.538  -3.083  0.00  0.00     0.174 HD
ENDBRANCH   1  20
TORSDOF 4
ENDMDL
MODEL 5
REMARK VINA RESULT:   -31.992      2.225      3.216
REMARK INTER + INTRA:         -33.586
REMARK INTER:                 -33.186
REMARK INTRA:                  -0.400
REMARK CONF_INDEPENDENT:        1.193
REMARK UNBOUND:                -0.400
REMARK  4 active torsions:
REMARK  status: ('A' for Active; 'I' for Inactive)
REMARK       I    between atoms: N1_1  and  C1_2 
REMARK       I    between atoms: C1_2  and  N2_3 
REMARK    1  A    between atoms: N3_4  and  C2_5 
REMARK    2  A    between atoms: C4_9  and  C5_10 
REMARK    3  A    between atoms: C5_10  and  C6_11 
REMARK       I    between atoms: C6_11  and  N5_13 
REMARK    4  A    between atoms: N5_13  and  C7_14 
ROOT
ATOM      1  C2  NON d   1     -46.360  16.764  -5.398  0.00  0.00     0.188 C 
ATOM      2  N4  NON d   1     -45.561  16.410  -4.364  0.00  0.00    -0.304 N 
ATOM      3  C3  NON d   1     -44.460  17.196  -4.137  0.00  0.00     0.238 C 
ATOM      4  O1  NON d   1     -43.862  17.187  -3.072  0.00  0.00    -0.272 OA
ATOM      5  C4  NON d   1     -44.113  18.013  -5.368  0.00  0.00     0.156 C 
ATOM      6  S1  NON d   1     -45.741  18.188  -6.188  0.00  0.00    -0.076 SA
ATOM      7  H5  NON d   1     -45.800  15.749  -3.643  0.00  0.00     0.171 HD
ENDROOT
BRANCH   5   8
ATOM      8  C5  NON d   1     -43.360  19.295  -5.028  0.00  0.00     0.128 C 
BRANCH   8   9
ATOM      9  C6  NON d   1     -42.129  19.475  -5.882  0.00  0.00     0.223 C 
ATOM     10  O2  NON d   1     -42.221  19.889  -7.040  0.00  0.00    -0.273 OA
ATOM     11  N5  NON d   1     -40.877  19.185  -5.423  0.00  0.00    -0.327 N 
ATOM     12  H9  NON d   1     -40.200  19.380  -6.154  0.00  0.00     0.169 HD
BRANCH  11  13
ATOM     13  C7  NON d   1     -40.356  18.613  -4.249  0.00  0.00     0.036 A 
ATOM     14  C8  NON d   1     -41.098  18.061  -3.203  0.00  0.00     0.029 A 
ATOM     15  C9  NON d   1     -40.462  17.449  -2.114  0.00  0.00     0.004 A 
ATOM     16  C10 NON d   1     -39.073  17.406  -2.044  0.00  0.00     0.024 A 
ATOM     17  C11 NON d   1     -38.323  17.985  -3.059  0.00  0.00     0.036 A 
ATOM     18 Cl1  NON d   1     -36.604  17.955  -2.975  0.00  0.00    -0.084 Cl
ATOM     19  C12 NON d   1     -38.955  18.582  -4.152  0.00  0.00     0.053 A 
ENDBRANCH  11  13
ENDBRANCH   8   9
ENDBRANCH   5   8
BRANCH   1  20
ATOM     20  N3  NON d   1     -47.439  16.200  -5.810  0.00  0.00    -0.041 NA
ATOM     21  C1  NON d   1     -48.487  15.856  -5.058  0.00  0.00     0.694 C 
ATOM     22  N1  NON d   1     -48.938  14.635  -5.176  0.00  0.00    -0.233 N 
ATOM     23  N2  NON d   1     -49.103  16.687  -4.259  0.00  0.00    -0.233 N 
ATOM     24  H1  NON d   1     -49.747  14.276  -4.691  0.00  0.00     0.174 HD
ATOM     25  H2  NON d   1     -48.466  14.039  -5.847  0.00  0.00     0.174 HD
ATOM     26  H3  NON d   1     -48.850  17.665  -4.275  0.00  0.00     0.174 HD
ATOM     27  H4  NON d   1     -49.918  16.413  -3.726  0.00  0.00     0.174 HD
ENDBRANCH   1  20
TORSDOF 4
ENDMDL
