MODEL 1
REMARK VINA RESULT:   -13.515      0.000      0.000
REMARK INTER + INTRA:         -18.799
REMARK INTER:                 -16.199
REMARK INTRA:                  -2.599
REMARK CONF_INDEPENDENT:        2.685
REMARK UNBOUND:                -2.599
REMARK  9 active torsions:
REMARK  status: ('A' for Active; 'I' for Inactive)
REMARK    1  A    between atoms: C6_6  and  C5_5 
REMARK    2  A    between atoms: C6_6  and  N1_7 
REMARK    3  A    between atoms: C6_6  and  C22_28 
REMARK    4  A    between atoms: N1_7  and  C7_8 
REMARK    5  A    between atoms: C7_8  and  C8_9 
REMARK       I    between atoms: C8_9  and  N2_11 
REMARK    6  A    between atoms: N2_11  and  C10_13 
REMARK    7  A    between atoms: C15_18  and  C16_19 
REMARK       I    between atoms: C16_19  and  N3_21 
REMARK    8  A    between atoms: N3_21  and  C17_22 
REMARK    9  A    between atoms: C17_22  and  C18_23 
ROOT
ATOM      1  C8  NON d   1     -41.056  19.244  -2.842  0.00  0.00     0.252 C 
ATOM      2  O1  NON d   1     -41.512  20.033  -3.670  0.00  0.00    -0.271 OA
ATOM      3  N2  NON d   1     -39.712  19.306  -2.418  0.00  0.00    -0.320 N 
ATOM      4  C9  NON d   1     -38.880  18.049  -2.733  0.00  0.00     0.159 C 
ENDROOT
BRANCH   1   5
ATOM      5  C7  NON d   1     -41.838  17.998  -2.342  0.00  0.00     0.373 C 
BRANCH   5   6
ATOM      6  N1  NON d   1     -43.275  18.003  -2.668  0.00  0.00     0.106 N 
ATOM      7  H7  NON d   1     -43.810  17.583  -1.915  0.00  0.00     0.317 HD
BRANCH   6   8
ATOM      8  C6  NON d   1     -43.583  17.306  -3.941  0.00  0.00     0.293 C 
BRANCH   8   9
ATOM      9  C5  NON d   1     -42.789  17.917  -5.101  0.00  0.00    -0.020 A 
ATOM     10  C4  NON d   1     -43.115  19.176  -5.652  0.00  0.00     0.010 A 
ATOM     11  C3  NON d   1     -42.210  19.880  -6.452  0.00  0.00     0.007 A 
ATOM     12  C2  NON d   1     -40.973  19.315  -6.746  0.00  0.00    -0.062 A 
ATOM     13  C1  NON d   1     -39.940  20.052  -7.620  0.00  0.00     0.048 C 
ATOM     14  C27 NON d   1     -40.689  18.012  -6.307  0.00  0.00     0.007 A 
ATOM     15  C26 NON d   1     -41.571  17.334  -5.475  0.00  0.00     0.010 A 
ENDBRANCH   8   9
BRANCH   8  16
ATOM     16  C22 NON d   1     -45.098  17.104  -4.108  0.00  0.00     0.020 A 
ATOM     17  C23 NON d   1     -46.064  17.254  -3.119  0.00  0.00     0.017 A 
ATOM     18  C24 NON d   1     -47.355  16.801  -3.516  0.00  0.00     0.008 A 
ATOM     19  C25 NON d   1     -47.351  16.316  -4.801  0.00  0.00     0.050 A 
ATOM     20  S1  NON d   1     -45.824  16.493  -5.543  0.00  0.00    -0.104 SA
ENDBRANCH   8  16
ENDBRANCH   6   8
ENDBRANCH   5   6
ENDBRANCH   1   5
BRANCH   3  21
ATOM     21  C10 NON d   1     -38.981  20.560  -2.435  0.00  0.00     0.052 A 
ATOM     22  C11 NON d   1     -38.144  20.827  -3.538  0.00  0.00     0.031 A 
ATOM     23  C12 NON d   1     -37.392  22.007  -3.630  0.00  0.00     0.002 A 
ATOM     24  C13 NON d   1     -37.462  22.963  -2.624  0.00  0.00     0.001 A 
ATOM     25  C14 NON d   1     -38.305  22.752  -1.539  0.00  0.00     0.019 A 
ATOM     26  C15 NON d   1     -39.066  21.572  -1.448  0.00  0.00     0.058 A 
BRANCH  26  27
ATOM     27  C16 NON d   1     -40.018  21.539  -0.320  0.00  0.00     0.254 C 
ATOM     28  O2  NON d   1     -40.353  20.459   0.149  0.00  0.00    -0.268 OA
ATOM     29  N3  NON d   1     -40.413  22.764   0.178  0.00  0.00    -0.351 N 
ATOM     30  H17 NON d   1     -40.054  23.614  -0.239  0.00  0.00     0.163 HD
BRANCH  29  31
ATOM     31  C17 NON d   1     -41.028  22.850   1.489  0.00  0.00     0.187 C 
BRANCH  31  32
ATOM     32  C18 NON d   1     -41.068  24.225   2.027  0.00  0.00     0.070 A 
ATOM     33  C19 NON d   1     -41.048  24.788   3.285  0.00  0.00     0.036 A 
ATOM     34  C20 NON d   1     -41.031  26.192   3.093  0.00  0.00     0.027 A 
ATOM     35  C21 NON d   1     -41.035  26.396   1.735  0.00  0.00     0.142 A 
ATOM     36  O3  NON d   1     -41.075  25.211   1.080  0.00  0.00    -0.325 OA
ENDBRANCH  31  32
ENDBRANCH  29  31
ENDBRANCH  26  27
ENDBRANCH   3  21
TORSDOF 9
ENDMDL
MODEL 2
REMARK VINA RESULT:   -13.206      4.497      8.541
REMARK INTER + INTRA:         -17.939
REMARK INTER:                 -15.891
REMARK INTRA:                  -2.048
REMARK CONF_INDEPENDENT:        2.685
REMARK UNBOUND:                -2.048
REMARK  9 active torsions:
REMARK  status: ('A' for Active; 'I' for Inactive)
REMARK    1  A    between atoms: C6_6  and  C5_5 
REMARK    2  A    between atoms: C6_6  and  N1_7 
REMARK    3  A    between atoms: C6_6  and  C22_28 
REMARK    4  A    between atoms: N1_7  and  C7_8 
REMARK    5  A    between atoms: C7_8  and  C8_9 
REMARK       I    between atoms: C8_9  and  N2_11 
REMARK    6  A    between atoms: N2_11  and  C10_13 
REMARK    7  A    between atoms: C15_18  and  C16_19 
REMARK       I    between atoms: C16_19  and  N3_21 
REMARK    8  A    between atoms: N3_21  and  C17_22 
REMARK    9  A    between atoms: C17_22  and  C18_23 
ROOT
ATOM      1  C8  NON d   1     -40.698  20.381  -6.287  0.00  0.00     0.252 C 
ATOM      2  O1  NON d   1     -41.227  19.444  -6.886  0.00  0.00    -0.271 OA
ATOM      3  N2  NON d   1     -40.692  20.454  -4.879  0.00  0.00    -0.320 N 
ATOM      4  C9  NON d   1     -41.422  21.678  -4.295  0.00  0.00     0.159 C 
ENDROOT
BRANCH   1   5
ATOM      5  C7  NON d   1     -40.176  21.656  -7.006  0.00  0.00     0.373 C 
BRANCH   5   6
ATOM      6  N1  NON d   1     -40.281  21.619  -8.475  0.00  0.00     0.106 N 
ATOM      7  H7  NON d   1     -40.689  20.741  -8.779  0.00  0.00     0.317 HD
BRANCH   6   8
ATOM      8  C6  NON d   1     -38.978  21.820  -9.154  0.00  0.00     0.293 C 
BRANCH   8   9
ATOM      9  C5  NON d   1     -39.164  22.568 -10.480  0.00  0.00    -0.020 A 
ATOM     10  C4  NON d   1     -39.145  21.901 -11.726  0.00  0.00     0.010 A 
ATOM     11  C3  NON d   1     -39.649  22.502 -12.883  0.00  0.00     0.007 A 
ATOM     12  C2  NON d   1     -40.149  23.800 -12.820  0.00  0.00    -0.062 A 
ATOM     13  C1  NON d   1     -40.718  24.504 -14.066  0.00  0.00     0.048 C 
ATOM     14  C27 NON d   1     -40.058  24.514 -11.614  0.00  0.00     0.007 A 
ATOM     15  C26 NON d   1     -39.598  23.899 -10.456  0.00  0.00     0.010 A 
ENDBRANCH   8   9
BRANCH   8  16
ATOM     16  C22 NON d   1     -38.146  20.527  -9.147  0.00  0.00     0.020 A 
ATOM     17  C23 NON d   1     -38.462  19.346  -8.483  0.00  0.00     0.017 A 
ATOM     18  C24 NON d   1     -37.405  18.392  -8.490  0.00  0.00     0.008 A 
ATOM     19  C25 NON d   1     -36.302  18.861  -9.161  0.00  0.00     0.050 A 
ATOM     20  S1  NON d   1     -36.580  20.398  -9.849  0.00  0.00    -0.104 SA
ENDBRANCH   8  16
ENDBRANCH   6   8
ENDBRANCH   5   6
ENDBRANCH   1   5
BRANCH   3  21
ATOM     21  C10 NON d   1     -40.744  19.251  -4.068  0.00  0.00     0.052 A 
ATOM     22  C11 NON d   1     -39.643  18.961  -3.235  0.00  0.00     0.031 A 
ATOM     23  C12 NON d   1     -39.604  17.814  -2.429  0.00  0.00     0.002 A 
ATOM     24  C13 NON d   1     -40.672  16.925  -2.424  0.00  0.00     0.001 A 
ATOM     25  C14 NON d   1     -41.791  17.197  -3.203  0.00  0.00     0.019 A 
ATOM     26  C15 NON d   1     -41.835  18.350  -4.007  0.00  0.00     0.058 A 
BRANCH  26  27
ATOM     27  C16 NON d   1     -43.132  18.587  -4.674  0.00  0.00     0.254 C 
ATOM     28  O2  NON d   1     -43.244  19.531  -5.444  0.00  0.00    -0.268 OA
ATOM     29  N3  NON d   1     -44.122  17.659  -4.424  0.00  0.00    -0.351 N 
ATOM     30  H17 NON d   1     -43.933  16.880  -3.806  0.00  0.00     0.163 HD
BRANCH  29  31
ATOM     31  C17 NON d   1     -45.279  17.580  -5.295  0.00  0.00     0.187 C 
BRANCH  31  32
ATOM     32  C18 NON d   1     -46.363  16.738  -4.752  0.00  0.00     0.070 A 
ATOM     33  C19 NON d   1     -46.912  16.527  -3.505  0.00  0.00     0.036 A 
ATOM     34  C20 NON d   1     -47.997  15.635  -3.692  0.00  0.00     0.027 A 
ATOM     35  C21 NON d   1     -48.046  15.363  -5.038  0.00  0.00     0.142 A 
ATOM     36  O3  NON d   1     -47.049  16.012  -5.687  0.00  0.00    -0.325 OA
ENDBRANCH  31  32
ENDBRANCH  29  31
ENDBRANCH  26  27
ENDBRANCH   3  21
TORSDOF 9
ENDMDL
MODEL 3
REMARK VINA RESULT:   -13.161      1.535      2.167
REMARK INTER + INTRA:         -18.949
REMARK INTER:                 -15.845
REMARK INTRA:                  -3.104
REMARK CONF_INDEPENDENT:        2.685
REMARK UNBOUND:                -3.104
REMARK  9 active torsions:
REMARK  status: ('A' for Active; 'I' for Inactive)
REMARK    1  A    between atoms: C6_6  and  C5_5 
REMARK    2  A    between atoms: C6_6  and  N1_7 
REMARK    3  A    between atoms: C6_6  and  C22_28 
REMARK    4  A    between atoms: N1_7  and  C7_8 
REMARK    5  A    between atoms: C7_8  and  C8_9 
REMARK       I    between atoms: C8_9  and  N2_11 
REMARK    6  A    between atoms: N2_11  and  C10_13 
REMARK    7  A    between atoms: C15_18  and  C16_19 
REMARK       I    between atoms: C16_19  and  N3_21 
REMARK    8  A    between atoms: N3_21  and  C17_22 
REMARK    9  A    between atoms: C17_22  and  C18_23 
ROOT
ATOM      1  C8  NON d   1     -40.398  18.211  -2.956  0.00  0.00     0.252 C 
ATOM      2  O1  NON d   1     -39.512  17.497  -3.429  0.00  0.00    -0.271 OA
ATOM      3  N2  NON d   1     -40.243  19.607  -2.835  0.00  0.00    -0.320 N 
ATOM      4  C9  NON d   1     -40.297  20.137  -1.390  0.00  0.00     0.159 C 
ENDROOT
BRANCH   1   5
ATOM      5  C7  NON d   1     -41.667  17.636  -2.268  0.00  0.00     0.373 C 
BRANCH   5   6
ATOM      6  N1  NON d   1     -42.942  18.105  -2.839  0.00  0.00     0.106 N 
ATOM      7  H7  NON d   1     -43.704  17.939  -2.189  0.00  0.00     0.317 HD
BRANCH   6   8
ATOM      8  C6  NON d   1     -43.260  17.475  -4.143  0.00  0.00     0.293 C 
BRANCH   8   9
ATOM      9  C5  NON d   1     -42.500  18.167  -5.281  0.00  0.00    -0.020 A 
ATOM     10  C4  NON d   1     -42.762  19.505  -5.652  0.00  0.00     0.010 A 
ATOM     11  C3  NON d   1     -41.860  20.236  -6.430  0.00  0.00     0.007 A 
ATOM     12  C2  NON d   1     -40.694  19.627  -6.883  0.00  0.00    -0.062 A 
ATOM     13  C1  NON d   1     -39.668  20.392  -7.741  0.00  0.00     0.048 C 
ATOM     14  C27 NON d   1     -40.485  18.263  -6.625  0.00  0.00     0.007 A 
ATOM     15  C26 NON d   1     -41.360  17.551  -5.814  0.00  0.00     0.010 A 
ENDBRANCH   8   9
BRANCH   8  16
ATOM     16  C22 NON d   1     -44.773  17.251  -4.295  0.00  0.00     0.020 A 
ATOM     17  C23 NON d   1     -45.659  16.893  -3.285  0.00  0.00     0.017 A 
ATOM     18  C24 NON d   1     -46.958  16.556  -3.764  0.00  0.00     0.008 A 
ATOM     19  C25 NON d   1     -47.039  16.665  -5.131  0.00  0.00     0.050 A 
ATOM     20  S1  NON d   1     -45.588  17.255  -5.810  0.00  0.00    -0.104 SA
ENDBRANCH   8  16
ENDBRANCH   6   8
ENDBRANCH   5   6
ENDBRANCH   1   5
BRANCH   3  21
ATOM     21  C10 NON d   1     -39.377  20.343  -3.738  0.00  0.00     0.052 A 
ATOM     22  C11 NON d   1     -38.380  19.629  -4.434  0.00  0.00     0.031 A 
ATOM     23  C12 NON d   1     -37.492  20.262  -5.316  0.00  0.00     0.002 A 
ATOM     24  C13 NON d   1     -37.582  21.631  -5.537  0.00  0.00     0.001 A 
ATOM     25  C14 NON d   1     -38.577  22.363  -4.898  0.00  0.00     0.019 A 
ATOM     26  C15 NON d   1     -39.472  21.728  -4.019  0.00  0.00     0.058 A 
BRANCH  26  27
ATOM     27  C16 NON d   1     -40.560  22.592  -3.518  0.00  0.00     0.254 C 
ATOM     28  O2  NON d   1     -41.701  22.415  -3.925  0.00  0.00    -0.268 OA
ATOM     29  N3  NON d   1     -40.210  23.511  -2.550  0.00  0.00    -0.351 N 
ATOM     30  H17 NON d   1     -39.249  23.564  -2.234  0.00  0.00     0.163 HD
BRANCH  29  31
ATOM     31  C17 NON d   1     -41.235  24.134  -1.734  0.00  0.00     0.187 C 
BRANCH  31  32
ATOM     32  C18 NON d   1     -41.079  23.864  -0.291  0.00  0.00     0.070 A 
ATOM     33  C19 NON d   1     -41.440  24.508   0.873  0.00  0.00     0.036 A 
ATOM     34  C20 NON d   1     -41.050  23.656   1.937  0.00  0.00     0.027 A 
ATOM     35  C21 NON d   1     -40.483  22.547   1.356  0.00  0.00     0.142 A 
ATOM     36  O3  NON d   1     -40.479  22.671   0.007  0.00  0.00    -0.325 OA
ENDBRANCH  31  32
ENDBRANCH  29  31
ENDBRANCH  26  27
ENDBRANCH   3  21
TORSDOF 9
ENDMDL
MODEL 4
REMARK VINA RESULT:   -13.138      3.817      7.552
REMARK INTER + INTRA:         -18.292
REMARK INTER:                 -15.823
REMARK INTRA:                  -2.469
REMARK CONF_INDEPENDENT:        2.685
REMARK UNBOUND:                -2.469
REMARK  9 active torsions:
REMARK  status: ('A' for Active; 'I' for Inactive)
REMARK    1  A    between atoms: C6_6  and  C5_5 
REMARK    2  A    between atoms: C6_6  and  N1_7 
REMARK    3  A    between atoms: C6_6  and  C22_28 
REMARK    4  A    between atoms: N1_7  and  C7_8 
REMARK    5  A    between atoms: C7_8  and  C8_9 
REMARK       I    between atoms: C8_9  and  N2_11 
REMARK    6  A    between atoms: N2_11  and  C10_13 
REMARK    7  A    between atoms: C15_18  and  C16_19 
REMARK       I    between atoms: C16_19  and  N3_21 
REMARK    8  A    between atoms: N3_21  and  C17_22 
REMARK    9  A    between atoms: C17_22  and  C18_23 
ROOT
ATOM      1  C8  NON d   1     -40.977  19.100  -6.631  0.00  0.00     0.252 C 
ATOM      2  O1  NON d   1     -41.963  19.695  -7.069  0.00  0.00    -0.271 OA
ATOM      3  N2  NON d   1     -39.680  19.648  -6.715  0.00  0.00    -0.320 N 
ATOM      4  C9  NON d   1     -38.685  18.819  -7.547  0.00  0.00     0.159 C 
ENDROOT
BRANCH   1   5
ATOM      5  C7  NON d   1     -41.030  17.628  -6.137  0.00  0.00     0.373 C 
BRANCH   5   6
ATOM      6  N1  NON d   1     -42.370  17.159  -5.744  0.00  0.00     0.106 N 
ATOM      7  H7  NON d   1     -42.880  16.824  -6.555  0.00  0.00     0.317 HD
BRANCH   6   8
ATOM      8  C6  NON d   1     -43.168  18.200  -5.053  0.00  0.00     0.293 C 
BRANCH   8   9
ATOM      9  C5  NON d   1     -42.339  18.887  -3.962  0.00  0.00    -0.020 A 
ATOM     10  C4  NON d   1     -41.789  18.169  -2.876  0.00  0.00     0.010 A 
ATOM     11  C3  NON d   1     -40.767  18.708  -2.088  0.00  0.00     0.007 A 
ATOM     12  C2  NON d   1     -40.303  19.993  -2.351  0.00  0.00    -0.062 A 
ATOM     13  C1  NON d   1     -39.177  20.629  -1.514  0.00  0.00     0.048 C 
ATOM     14  C27 NON d   1     -40.928  20.760  -3.348  0.00  0.00     0.007 A 
ATOM     15  C26 NON d   1     -41.912  20.207  -4.158  0.00  0.00     0.010 A 
ENDBRANCH   8   9
BRANCH   8  16
ATOM     16  C22 NON d   1     -44.569  17.678  -4.696  0.00  0.00     0.020 A 
ATOM     17  C23 NON d   1     -44.942  17.067  -3.504  0.00  0.00     0.017 A 
ATOM     18  C24 NON d   1     -46.250  16.505  -3.541  0.00  0.00     0.008 A 
ATOM     19  C25 NON d   1     -46.852  16.699  -4.760  0.00  0.00     0.050 A 
ATOM     20  S1  NON d   1     -45.879  17.629  -5.810  0.00  0.00    -0.104 SA
ENDBRANCH   8  16
ENDBRANCH   6   8
ENDBRANCH   5   6
ENDBRANCH   1   5
BRANCH   3  21
ATOM     21  C10 NON d   1     -39.477  21.085  -6.749  0.00  0.00     0.052 A 
ATOM     22  C11 NON d   1     -39.122  21.736  -5.549  0.00  0.00     0.031 A 
ATOM     23  C12 NON d   1     -38.920  23.122  -5.488  0.00  0.00     0.002 A 
ATOM     24  C13 NON d   1     -39.055  23.900  -6.632  0.00  0.00     0.001 A 
ATOM     25  C14 NON d   1     -39.367  23.289  -7.841  0.00  0.00     0.019 A 
ATOM     26  C15 NON d   1     -39.564  21.898  -7.905  0.00  0.00     0.058 A 
BRANCH  26  27
ATOM     27  C16 NON d   1     -39.751  21.365  -9.270  0.00  0.00     0.254 C 
ATOM     28  O2  NON d   1     -40.589  20.494  -9.462  0.00  0.00    -0.268 OA
ATOM     29  N3  NON d   1     -38.996  21.957 -10.262  0.00  0.00    -0.351 N 
ATOM     30  H17 NON d   1     -38.356  22.704 -10.026  0.00  0.00     0.163 HD
BRANCH  29  31
ATOM     31  C17 NON d   1     -39.363  21.782 -11.655  0.00  0.00     0.187 C 
BRANCH  31  32
ATOM     32  C18 NON d   1     -39.904  23.008 -12.275  0.00  0.00     0.070 A 
ATOM     33  C19 NON d   1     -40.402  23.342 -13.516  0.00  0.00     0.036 A 
ATOM     34  C20 NON d   1     -40.834  24.689 -13.422  0.00  0.00     0.027 A 
ATOM     35  C21 NON d   1     -40.579  25.087 -12.132  0.00  0.00     0.142 A 
ATOM     36  O3  NON d   1     -39.999  24.081 -11.434  0.00  0.00    -0.325 OA
ENDBRANCH  31  32
ENDBRANCH  29  31
ENDBRANCH  26  27
ENDBRANCH   3  21
TORSDOF 9
ENDMDL
MODEL 5
REMARK VINA RESULT:   -12.673      4.536      7.668
REMARK INTER + INTRA:         -17.653
REMARK INTER:                 -15.358
REMARK INTRA:                  -2.295
REMARK CONF_INDEPENDENT:        2.685
REMARK UNBOUND:                -2.295
REMARK  9 active torsions:
REMARK  status: ('A' for Active; 'I' for Inactive)
REMARK    1  A    between atoms: C6_6  and  C5_5 
REMARK    2  A    between atoms: C6_6  and  N1_7 
REMARK    3  A    between atoms: C6_6  and  C22_28 
REMARK    4  A    between atoms: N1_7  and  C7_8 
REMARK    5  A    between atoms: C7_8  and  C8_9 
REMARK       I    between atoms: C8_9  and  N2_11 
REMARK    6  A    between atoms: N2_11  and  C10_13 
REMARK    7  A    between atoms: C15_18  and  C16_19 
REMARK       I    between atoms: C16_19  and  N3_21 
REMARK    8  A    between atoms: N3_21  and  C17_22 
REMARK    9  A    between atoms: C17_22  and  C18_23 
ROOT
ATOM      1  C8  NON d   1     -41.048  20.027  -7.438  0.00  0.00     0.252 C 
ATOM      2  O1  NON d   1     -41.463  19.992  -8.598  0.00  0.00    -0.271 OA
ATOM      3  N2  NON d   1     -39.706  19.736  -7.120  0.00  0.00    -0.320 N 
ATOM      4  C9  NON d   1     -39.512  18.520  -6.196  0.00  0.00     0.159 C 
ENDROOT
BRANCH   1   5
ATOM      5  C7  NON d   1     -41.987  20.187  -6.210  0.00  0.00     0.373 C 
BRANCH   5   6
ATOM      6  N1  NON d   1     -43.123  19.249  -6.178  0.00  0.00     0.106 N 
ATOM      7  H7  NON d   1     -43.879  19.589  -6.763  0.00  0.00     0.317 HD
BRANCH   6   8
ATOM      8  C6  NON d   1     -43.632  19.002  -4.807  0.00  0.00     0.293 C 
BRANCH   8   9
ATOM      9  C5  NON d   1     -42.485  18.629  -3.860  0.00  0.00    -0.020 A 
ATOM     10  C4  NON d   1     -42.237  17.293  -3.473  0.00  0.00     0.010 A 
ATOM     11  C3  NON d   1     -41.016  16.912  -2.907  0.00  0.00     0.007 A 
ATOM     12  C2  NON d   1     -40.034  17.872  -2.685  0.00  0.00    -0.062 A 
ATOM     13  C1  NON d   1     -38.672  17.502  -2.068  0.00  0.00     0.048 C 
ATOM     14  C27 NON d   1     -40.318  19.222  -2.951  0.00  0.00     0.007 A 
ATOM     15  C26 NON d   1     -41.514  19.591  -3.554  0.00  0.00     0.010 A 
ENDBRANCH   8   9
BRANCH   8  16
ATOM     16  C22 NON d   1     -44.885  18.112  -4.834  0.00  0.00     0.020 A 
ATOM     17  C23 NON d   1     -45.268  17.198  -3.858  0.00  0.00     0.017 A 
ATOM     18  C24 NON d   1     -46.361  16.374  -4.252  0.00  0.00     0.008 A 
ATOM     19  C25 NON d   1     -46.792  16.675  -5.521  0.00  0.00     0.050 A 
ATOM     20  S1  NON d   1     -45.944  17.999  -6.185  0.00  0.00    -0.104 SA
ENDBRANCH   8  16
ENDBRANCH   6   8
ENDBRANCH   5   6
ENDBRANCH   1   5
BRANCH   3  21
ATOM     21  C10 NON d   1     -38.644  19.963  -8.084  0.00  0.00     0.052 A 
ATOM     22  C11 NON d   1     -37.803  18.881  -8.415  0.00  0.00     0.031 A 
ATOM     23  C12 NON d   1     -36.746  19.015  -9.326  0.00  0.00     0.002 A 
ATOM     24  C13 NON d   1     -36.503  20.236  -9.944  0.00  0.00     0.001 A 
ATOM     25  C14 NON d   1     -37.334  21.316  -9.671  0.00  0.00     0.019 A 
ATOM     26  C15 NON d   1     -38.400  21.182  -8.763  0.00  0.00     0.058 A 
BRANCH  26  27
ATOM     27  C16 NON d   1     -39.283  22.362  -8.671  0.00  0.00     0.254 C 
ATOM     28  O2  NON d   1     -39.361  22.971  -7.613  0.00  0.00    -0.268 OA
ATOM     29  N3  NON d   1     -39.916  22.740  -9.839  0.00  0.00    -0.351 N 
ATOM     30  H17 NON d   1     -39.763  22.207 -10.686  0.00  0.00     0.163 HD
BRANCH  29  31
ATOM     31  C17 NON d   1     -40.489  24.067  -9.957  0.00  0.00     0.187 C 
BRANCH  31  32
ATOM     32  C18 NON d   1     -40.444  24.603 -11.332  0.00  0.00     0.070 A 
ATOM     33  C19 NON d   1     -40.344  25.858 -11.893  0.00  0.00     0.036 A 
ATOM     34  C20 NON d   1     -40.272  25.663 -13.296  0.00  0.00     0.027 A 
ATOM     35  C21 NON d   1     -40.327  24.305 -13.499  0.00  0.00     0.142 A 
ATOM     36  O3  NON d   1     -40.448  23.655 -12.317  0.00  0.00    -0.325 OA
ENDBRANCH  31  32
ENDBRANCH  29  31
ENDBRANCH  26  27
ENDBRANCH   3  21
TORSDOF 9
ENDMDL
MODEL 6
REMARK VINA RESULT:   -12.274      3.081      5.371
REMARK INTER + INTRA:         -17.982
REMARK INTER:                 -14.958
REMARK INTRA:                  -3.023
REMARK CONF_INDEPENDENT:        2.685
REMARK UNBOUND:                -3.023
REMARK  9 active torsions:
REMARK  status: ('A' for Active; 'I' for Inactive)
REMARK    1  A    between atoms: C6_6  and  C5_5 
REMARK    2  A    between atoms: C6_6  and  N1_7 
REMARK    3  A    between atoms: C6_6  and  C22_28 
REMARK    4  A    between atoms: N1_7  and  C7_8 
REMARK    5  A    between atoms: C7_8  and  C8_9 
REMARK       I    between atoms: C8_9  and  N2_11 
REMARK    6  A    between atoms: N2_11  and  C10_13 
REMARK    7  A    between atoms: C15_18  and  C16_19 
REMARK       I    between atoms: C16_19  and  N3_21 
REMARK    8  A    between atoms: N3_21  and  C17_22 
REMARK    9  A    between atoms: C17_22  and  C18_23 
ROOT
ATOM      1  C8  NON d   1     -41.606  20.460  -7.259  0.00  0.00     0.252 C 
ATOM      2  O1  NON d   1     -42.294  20.253  -8.260  0.00  0.00    -0.271 OA
ATOM      3  N2  NON d   1     -40.275  20.913  -7.351  0.00  0.00    -0.320 N 
ATOM      4  C9  NON d   1     -39.225  19.951  -6.764  0.00  0.00     0.159 C 
ENDROOT
BRANCH   1   5
ATOM      5  C7  NON d   1     -42.057  20.054  -5.828  0.00  0.00     0.373 C 
BRANCH   5   6
ATOM      6  N1  NON d   1     -43.288  19.246  -5.777  0.00  0.00     0.106 N 
ATOM      7  H7  NON d   1     -44.088  19.802  -6.063  0.00  0.00     0.317 HD
BRANCH   6   8
ATOM      8  C6  NON d   1     -43.545  18.666  -4.437  0.00  0.00     0.293 C 
BRANCH   8   9
ATOM      9  C5  NON d   1     -42.259  18.079  -3.843  0.00  0.00    -0.020 A 
ATOM     10  C4  NON d   1     -41.114  17.830  -4.633  0.00  0.00     0.010 A 
ATOM     11  C3  NON d   1     -39.858  17.630  -4.054  0.00  0.00     0.007 A 
ATOM     12  C2  NON d   1     -39.731  17.640  -2.668  0.00  0.00    -0.062 A 
ATOM     13  C1  NON d   1     -38.368  17.428  -1.983  0.00  0.00     0.048 C 
ATOM     14  C27 NON d   1     -40.882  17.763  -1.873  0.00  0.00     0.007 A 
ATOM     15  C26 NON d   1     -42.123  18.006  -2.450  0.00  0.00     0.010 A 
ENDBRANCH   8   9
BRANCH   8  16
ATOM     16  C22 NON d   1     -44.816  17.801  -4.442  0.00  0.00     0.020 A 
ATOM     17  C23 NON d   1     -45.242  16.954  -3.424  0.00  0.00     0.017 A 
ATOM     18  C24 NON d   1     -46.342  16.130  -3.797  0.00  0.00     0.008 A 
ATOM     19  C25 NON d   1     -46.737  16.365  -5.092  0.00  0.00     0.050 A 
ATOM     20  S1  NON d   1     -45.845  17.630  -5.810  0.00  0.00    -0.104 SA
ENDBRANCH   8  16
ENDBRANCH   6   8
ENDBRANCH   5   6
ENDBRANCH   1   5
BRANCH   3  21
ATOM     21  C10 NON d   1     -39.832  21.703  -8.486  0.00  0.00     0.052 A 
ATOM     22  C11 NON d   1     -39.661  21.051  -9.725  0.00  0.00     0.031 A 
ATOM     23  C12 NON d   1     -39.225  21.734 -10.869  0.00  0.00     0.002 A 
ATOM     24  C13 NON d   1     -38.955  23.096 -10.812  0.00  0.00     0.001 A 
ATOM     25  C14 NON d   1     -39.148  23.781  -9.618  0.00  0.00     0.019 A 
ATOM     26  C15 NON d   1     -39.592  23.099  -8.470  0.00  0.00     0.058 A 
BRANCH  26  27
ATOM     27  C16 NON d   1     -39.887  23.967  -7.313  0.00  0.00     0.254 C 
ATOM     28  O2  NON d   1     -40.377  25.073  -7.503  0.00  0.00    -0.268 OA
ATOM     29  N3  NON d   1     -39.647  23.423  -6.068  0.00  0.00    -0.351 N 
ATOM     30  H17 NON d   1     -39.281  22.481  -5.995  0.00  0.00     0.163 HD
BRANCH  29  31
ATOM     31  C17 NON d   1     -40.239  24.022  -4.887  0.00  0.00     0.187 C 
BRANCH  31  32
ATOM     32  C18 NON d   1     -40.204  23.140  -3.703  0.00  0.00     0.070 A 
ATOM     33  C19 NON d   1     -40.466  23.291  -2.358  0.00  0.00     0.036 A 
ATOM     34  C20 NON d   1     -40.313  22.007  -1.776  0.00  0.00     0.027 A 
ATOM     35  C21 NON d   1     -39.975  21.157  -2.801  0.00  0.00     0.142 A 
ATOM     36  O3  NON d   1     -39.889  21.836  -3.970  0.00  0.00    -0.325 OA
ENDBRANCH  31  32
ENDBRANCH  29  31
ENDBRANCH  26  27
ENDBRANCH   3  21
TORSDOF 9
ENDMDL
MODEL 7
REMARK VINA RESULT:   -12.245      2.340      4.385
REMARK INTER + INTRA:         -18.023
REMARK INTER:                 -14.930
REMARK INTRA:                  -3.093
REMARK CONF_INDEPENDENT:        2.685
REMARK UNBOUND:                -3.093
REMARK  9 active torsions:
REMARK  status: ('A' for Active; 'I' for Inactive)
REMARK    1  A    between atoms: C6_6  and  C5_5 
REMARK    2  A    between atoms: C6_6  and  N1_7 
REMARK    3  A    between atoms: C6_6  and  C22_28 
REMARK    4  A    between atoms: N1_7  and  C7_8 
REMARK    5  A    between atoms: C7_8  and  C8_9 
REMARK       I    between atoms: C8_9  and  N2_11 
REMARK    6  A    between atoms: N2_11  and  C10_13 
REMARK    7  A    between atoms: C15_18  and  C16_19 
REMARK       I    between atoms: C16_19  and  N3_21 
REMARK    8  A    between atoms: N3_21  and  C17_22 
REMARK    9  A    between atoms: C17_22  and  C18_23 
ROOT
ATOM      1  C8  NON d   1     -41.012  19.424  -2.830  0.00  0.00     0.252 C 
ATOM      2  O1  NON d   1     -41.486  20.248  -3.615  0.00  0.00    -0.271 OA
ATOM      3  N2  NON d   1     -39.832  19.682  -2.104  0.00  0.00    -0.320 N 
ATOM      4  C9  NON d   1     -38.669  18.717  -2.403  0.00  0.00     0.159 C 
ENDROOT
BRANCH   1   5
ATOM      5  C7  NON d   1     -41.540  17.967  -2.716  0.00  0.00     0.373 C 
BRANCH   5   6
ATOM      6  N1  NON d   1     -43.001  17.830  -2.850  0.00  0.00     0.106 N 
ATOM      7  H7  NON d   1     -43.373  17.254  -2.101  0.00  0.00     0.317 HD
BRANCH   6   8
ATOM      8  C6  NON d   1     -43.413  17.266  -4.158  0.00  0.00     0.293 C 
BRANCH   8   9
ATOM      9  C5  NON d   1     -42.678  17.964  -5.307  0.00  0.00    -0.020 A 
ATOM     10  C4  NON d   1     -43.048  19.250  -5.763  0.00  0.00     0.010 A 
ATOM     11  C3  NON d   1     -42.188  20.020  -6.551  0.00  0.00     0.007 A 
ATOM     12  C2  NON d   1     -40.954  19.500  -6.930  0.00  0.00    -0.062 A 
ATOM     13  C1  NON d   1     -39.971  20.311  -7.795  0.00  0.00     0.048 C 
ATOM     14  C27 NON d   1     -40.630  18.177  -6.586  0.00  0.00     0.007 A 
ATOM     15  C26 NON d   1     -41.466  17.431  -5.766  0.00  0.00     0.010 A 
ENDBRANCH   8   9
BRANCH   8  16
ATOM     16  C22 NON d   1     -44.941  17.119  -4.241  0.00  0.00     0.020 A 
ATOM     17  C23 NON d   1     -45.841  17.255  -3.188  0.00  0.00     0.017 A 
ATOM     18  C24 NON d   1     -47.168  16.861  -3.524  0.00  0.00     0.008 A 
ATOM     19  C25 NON d   1     -47.257  16.433  -4.826  0.00  0.00     0.050 A 
ATOM     20  S1  NON d   1     -45.772  16.595  -5.653  0.00  0.00    -0.104 SA
ENDBRANCH   8  16
ENDBRANCH   6   8
ENDBRANCH   5   6
ENDBRANCH   1   5
BRANCH   3  21
ATOM     21  C10 NON d   1     -39.445  21.039  -1.766  0.00  0.00     0.052 A 
ATOM     22  C11 NON d   1     -39.432  21.408  -0.404  0.00  0.00     0.031 A 
ATOM     23  C12 NON d   1     -39.084  22.702   0.011  0.00  0.00     0.002 A 
ATOM     24  C13 NON d   1     -38.726  23.665  -0.924  0.00  0.00     0.001 A 
ATOM     25  C14 NON d   1     -38.689  23.328  -2.273  0.00  0.00     0.019 A 
ATOM     26  C15 NON d   1     -39.032  22.029  -2.691  0.00  0.00     0.058 A 
BRANCH  26  27
ATOM     27  C16 NON d   1     -38.817  21.768  -4.128  0.00  0.00     0.254 C 
ATOM     28  O2  NON d   1     -38.814  20.614  -4.533  0.00  0.00    -0.268 OA
ATOM     29  N3  NON d   1     -38.704  22.881  -4.938  0.00  0.00    -0.351 N 
ATOM     30  H17 NON d   1     -38.762  23.805  -4.529  0.00  0.00     0.163 HD
BRANCH  29  31
ATOM     31  C17 NON d   1     -38.868  22.754  -6.373  0.00  0.00     0.187 C 
BRANCH  31  32
ATOM     32  C18 NON d   1     -39.392  23.977  -7.012  0.00  0.00     0.070 A 
ATOM     33  C19 NON d   1     -39.912  24.293  -8.250  0.00  0.00     0.036 A 
ATOM     34  C20 NON d   1     -40.306  25.653  -8.181  0.00  0.00     0.027 A 
ATOM     35  C21 NON d   1     -40.008  26.078  -6.908  0.00  0.00     0.142 A 
ATOM     36  O3  NON d   1     -39.438  25.075  -6.198  0.00  0.00    -0.325 OA
ENDBRANCH  31  32
ENDBRANCH  29  31
ENDBRANCH  26  27
ENDBRANCH   3  21
TORSDOF 9
ENDMDL
MODEL 8
REMARK VINA RESULT:   -12.153      2.780      4.653
REMARK INTER + INTRA:         -18.137
REMARK INTER:                 -14.837
REMARK INTRA:                  -3.300
REMARK CONF_INDEPENDENT:        2.685
REMARK UNBOUND:                -3.300
REMARK  9 active torsions:
REMARK  status: ('A' for Active; 'I' for Inactive)
REMARK    1  A    between atoms: C6_6  and  C5_5 
REMARK    2  A    between atoms: C6_6  and  N1_7 
REMARK    3  A    between atoms: C6_6  and  C22_28 
REMARK    4  A    between atoms: N1_7  and  C7_8 
REMARK    5  A    between atoms: C7_8  and  C8_9 
REMARK       I    between atoms: C8_9  and  N2_11 
REMARK    6  A    between atoms: N2_11  and  C10_13 
REMARK    7  A    between atoms: C15_18  and  C16_19 
REMARK       I    between atoms: C16_19  and  N3_21 
REMARK    8  A    between atoms: N3_21  and  C17_22 
REMARK    9  A    between atoms: C17_22  and  C18_23 
ROOT
ATOM      1  C8  NON d   1     -40.846  19.171  -6.924  0.00  0.00     0.252 C 
ATOM      2  O1  NON d   1     -41.870  19.819  -7.146  0.00  0.00    -0.271 OA
ATOM      3  N2  NON d   1     -39.633  19.448  -7.587  0.00  0.00    -0.320 N 
ATOM      4  C9  NON d   1     -39.092  18.293  -8.450  0.00  0.00     0.159 C 
ENDROOT
BRANCH   1   5
ATOM      5  C7  NON d   1     -40.835  17.877  -6.063  0.00  0.00     0.373 C 
BRANCH   5   6
ATOM      6  N1  NON d   1     -42.170  17.354  -5.723  0.00  0.00     0.106 N 
ATOM      7  H7  NON d   1     -42.653  17.045  -6.560  0.00  0.00     0.317 HD
BRANCH   6   8
ATOM      8  C6  NON d   1     -43.012  18.340  -5.003  0.00  0.00     0.293 C 
BRANCH   8   9
ATOM      9  C5  NON d   1     -42.215  19.024  -3.886  0.00  0.00    -0.020 A 
ATOM     10  C4  NON d   1     -41.820  18.334  -2.717  0.00  0.00     0.010 A 
ATOM     11  C3  NON d   1     -40.820  18.835  -1.877  0.00  0.00     0.007 A 
ATOM     12  C2  NON d   1     -40.224  20.057  -2.173  0.00  0.00    -0.062 A 
ATOM     13  C1  NON d   1     -39.117  20.648  -1.281  0.00  0.00     0.048 C 
ATOM     14  C27 NON d   1     -40.696  20.808  -3.263  0.00  0.00     0.007 A 
ATOM     15  C26 NON d   1     -41.658  20.287  -4.121  0.00  0.00     0.010 A 
ENDBRANCH   8   9
BRANCH   8  16
ATOM     16  C22 NON d   1     -44.392  17.751  -4.670  0.00  0.00     0.020 A 
ATOM     17  C23 NON d   1     -44.759  17.132  -3.479  0.00  0.00     0.017 A 
ATOM     18  C24 NON d   1     -46.036  16.505  -3.538  0.00  0.00     0.008 A 
ATOM     19  C25 NON d   1     -46.621  16.657  -4.771  0.00  0.00     0.050 A 
ATOM     20  S1  NON d   1     -45.674  17.625  -5.810  0.00  0.00    -0.104 SA
ENDBRANCH   8  16
ENDBRANCH   6   8
ENDBRANCH   5   6
ENDBRANCH   1   5
BRANCH   3  21
ATOM     21  C10 NON d   1     -39.337  20.783  -8.075  0.00  0.00     0.052 A 
ATOM     22  C11 NON d   1     -39.532  21.050  -9.446  0.00  0.00     0.031 A 
ATOM     23  C12 NON d   1     -39.259  22.307 -10.004  0.00  0.00     0.002 A 
ATOM     24  C13 NON d   1     -38.792  23.342  -9.204  0.00  0.00     0.001 A 
ATOM     25  C14 NON d   1     -38.623  23.129  -7.840  0.00  0.00     0.019 A 
ATOM     26  C15 NON d   1     -38.903  21.870  -7.277  0.00  0.00     0.058 A 
BRANCH  26  27
ATOM     27  C16 NON d   1     -38.814  21.821  -5.804  0.00  0.00     0.254 C 
ATOM     28  O2  NON d   1     -38.364  20.819  -5.265  0.00  0.00    -0.268 OA
ATOM     29  N3  NON d   1     -39.189  22.968  -5.134  0.00  0.00    -0.351 N 
ATOM     30  H17 NON d   1     -39.510  23.772  -5.659  0.00  0.00     0.163 HD
BRANCH  29  31
ATOM     31  C17 NON d   1     -38.794  23.164  -3.752  0.00  0.00     0.187 C 
BRANCH  31  32
ATOM     32  C18 NON d   1     -39.675  24.094  -3.018  0.00  0.00     0.070 A 
ATOM     33  C19 NON d   1     -39.948  24.347  -1.691  0.00  0.00     0.036 A 
ATOM     34  C20 NON d   1     -40.847  25.443  -1.671  0.00  0.00     0.027 A 
ATOM     35  C21 NON d   1     -41.061  25.791  -2.983  0.00  0.00     0.142 A 
ATOM     36  O3  NON d   1     -40.369  24.969  -3.808  0.00  0.00    -0.325 OA
ENDBRANCH  31  32
ENDBRANCH  29  31
ENDBRANCH  26  27
ENDBRANCH   3  21
TORSDOF 9
ENDMDL
MODEL 9
REMARK VINA RESULT:   -11.811      3.367      5.924
REMARK INTER + INTRA:         -18.309
REMARK INTER:                 -14.496
REMARK INTRA:                  -3.813
REMARK CONF_INDEPENDENT:        2.685
REMARK UNBOUND:                -3.813
REMARK  9 active torsions:
REMARK  status: ('A' for Active; 'I' for Inactive)
REMARK    1  A    between atoms: C6_6  and  C5_5 
REMARK    2  A    between atoms: C6_6  and  N1_7 
REMARK    3  A    between atoms: C6_6  and  C22_28 
REMARK    4  A    between atoms: N1_7  and  C7_8 
REMARK    5  A    between atoms: C7_8  and  C8_9 
REMARK       I    between atoms: C8_9  and  N2_11 
REMARK    6  A    between atoms: N2_11  and  C10_13 
REMARK    7  A    between atoms: C15_18  and  C16_19 
REMARK       I    between atoms: C16_19  and  N3_21 
REMARK    8  A    between atoms: N3_21  and  C17_22 
REMARK    9  A    between atoms: C17_22  and  C18_23 
ROOT
ATOM      1  C8  NON d   1     -40.828  19.258  -6.973  0.00  0.00     0.252 C 
ATOM      2  O1  NON d   1     -41.867  19.867  -7.233  0.00  0.00    -0.271 OA
ATOM      3  N2  NON d   1     -39.617  19.537  -7.637  0.00  0.00    -0.320 N 
ATOM      4  C9  NON d   1     -39.038  18.359  -8.442  0.00  0.00     0.159 C 
ENDROOT
BRANCH   1   5
ATOM      5  C7  NON d   1     -40.792  18.005  -6.054  0.00  0.00     0.373 C 
BRANCH   5   6
ATOM      6  N1  NON d   1     -42.115  17.450  -5.719  0.00  0.00     0.106 N 
ATOM      7  H7  NON d   1     -42.595  17.146  -6.560  0.00  0.00     0.317 HD
BRANCH   6   8
ATOM      8  C6  NON d   1     -42.974  18.406  -4.978  0.00  0.00     0.293 C 
BRANCH   8   9
ATOM      9  C5  NON d   1     -42.188  19.079  -3.847  0.00  0.00    -0.020 A 
ATOM     10  C4  NON d   1     -41.790  18.374  -2.688  0.00  0.00     0.010 A 
ATOM     11  C3  NON d   1     -40.800  18.871  -1.836  0.00  0.00     0.007 A 
ATOM     12  C2  NON d   1     -40.214  20.104  -2.109  0.00  0.00    -0.062 A 
ATOM     13  C1  NON d   1     -39.117  20.692  -1.203  0.00  0.00     0.048 C 
ATOM     14  C27 NON d   1     -40.690  20.867  -3.188  0.00  0.00     0.007 A 
ATOM     15  C26 NON d   1     -41.643  20.352  -4.059  0.00  0.00     0.010 A 
ENDBRANCH   8   9
BRANCH   8  16
ATOM     16  C22 NON d   1     -44.343  17.786  -4.658  0.00  0.00     0.020 A 
ATOM     17  C23 NON d   1     -44.708  17.161  -3.469  0.00  0.00     0.017 A 
ATOM     18  C24 NON d   1     -45.970  16.504  -3.540  0.00  0.00     0.008 A 
ATOM     19  C25 NON d   1     -46.546  16.642  -4.779  0.00  0.00     0.050 A 
ATOM     20  S1  NON d   1     -45.611  17.630  -5.810  0.00  0.00    -0.104 SA
ENDBRANCH   8  16
ENDBRANCH   6   8
ENDBRANCH   5   6
ENDBRANCH   1   5
BRANCH   3  21
ATOM     21  C10 NON d   1     -39.351  20.856  -8.183  0.00  0.00     0.052 A 
ATOM     22  C11 NON d   1     -39.606  21.073  -9.552  0.00  0.00     0.031 A 
ATOM     23  C12 NON d   1     -39.366  22.312 -10.165  0.00  0.00     0.002 A 
ATOM     24  C13 NON d   1     -38.873  23.377  -9.421  0.00  0.00     0.001 A 
ATOM     25  C14 NON d   1     -38.645  23.212  -8.059  0.00  0.00     0.019 A 
ATOM     26  C15 NON d   1     -38.891  21.972  -7.442  0.00  0.00     0.058 A 
BRANCH  26  27
ATOM     27  C16 NON d   1     -38.740  21.975  -5.973  0.00  0.00     0.254 C 
ATOM     28  O2  NON d   1     -39.593  22.519  -5.284  0.00  0.00    -0.268 OA
ATOM     29  N3  NON d   1     -37.656  21.282  -5.472  0.00  0.00    -0.351 N 
ATOM     30  H17 NON d   1     -37.019  20.821  -6.110  0.00  0.00     0.163 HD
BRANCH  29  31
ATOM     31  C17 NON d   1     -37.619  20.906  -4.072  0.00  0.00     0.187 C 
BRANCH  31  32
ATOM     32  C18 NON d   1     -37.086  19.547  -3.846  0.00  0.00     0.070 A 
ATOM     33  C19 NON d   1     -36.690  18.819  -2.745  0.00  0.00     0.036 A 
ATOM     34  C20 NON d   1     -36.351  17.528  -3.222  0.00  0.00     0.027 A 
ATOM     35  C21 NON d   1     -36.566  17.549  -4.579  0.00  0.00     0.142 A 
ATOM     36  O3  NON d   1     -36.995  18.773  -4.970  0.00  0.00    -0.325 OA
ENDBRANCH  31  32
ENDBRANCH  29  31
ENDBRANCH  26  27
ENDBRANCH   3  21
TORSDOF 9
ENDMDL
