MODEL 1
REMARK VINA RESULT:   -29.028      0.000      0.000
REMARK INTER + INTRA:         -33.736
REMARK INTER:                 -33.205
REMARK INTRA:                  -0.531
REMARK CONF_INDEPENDENT:        4.176
REMARK UNBOUND:                -0.531
REMARK  14 active torsions:
REMARK  status: ('A' for Active; 'I' for Inactive)
REMARK    1  A    between atoms: C2_2  and  C4_8 
REMARK    2  A    between atoms: N1_3  and  N2_4 
REMARK    3  A    between atoms: N2_4  and  C3_5 
REMARK    4  A    between atoms: C3_5  and  N3_6 
REMARK    5  A    between atoms: C7_11  and  O1_12 
REMARK    6  A    between atoms: O1_12  and  C8_13 
REMARK    7  A    between atoms: C8_13  and  C9_14 
REMARK    8  A    between atoms: C9_14  and  C10_15 
REMARK    9  A    between atoms: C10_15  and  O2_16 
REMARK   10  A    between atoms: O2_16  and  C11_17 
REMARK   11  A    between atoms: C14_20  and  C15_21 
REMARK   12  A    between atoms: N4_23  and  N5_24 
REMARK   13  A    between atoms: N5_24  and  C17_25 
REMARK   14  A    between atoms: C17_25  and  N6_26 
ROOT
ATOM      1  C9  NON d   1     -39.290  20.511  -4.359  0.00  0.00     0.053 C 
ENDROOT
BRANCH   1   2
ATOM      2  C8  NON d   1     -39.246  22.058  -4.183  0.00  0.00     0.178 C 
BRANCH   2   3
ATOM      3  O1  NON d   1     -40.110  22.771  -5.092  0.00  0.00    -0.351 OA
BRANCH   3   4
ATOM      4  C7  NON d   1     -39.904  22.625  -6.452  0.00  0.00     0.068 A 
ATOM      5  C6  NON d   1     -39.453  23.759  -7.142  0.00  0.00     0.037 A 
ATOM      6  C5  NON d   1     -39.182  23.743  -8.543  0.00  0.00     0.016 A 
ATOM      7  C4  NON d   1     -39.332  22.578  -9.311  0.00  0.00    -0.010 A 
ATOM      8  C21 NON d   1     -39.751  21.437  -8.595  0.00  0.00     0.016 A 
ATOM      9  C20 NON d   1     -40.061  21.463  -7.202  0.00  0.00     0.037 A 
BRANCH   7  10
ATOM     10  C2  NON d   1     -39.003  22.557 -10.835  0.00  0.00     0.061 C 
ATOM     11  C1  NON d   1     -37.747  21.812 -11.322  0.00  0.00     0.073 C 
ATOM     12  N1  NON d   1     -39.677  23.137 -11.788  0.00  0.00    -0.177 NA
BRANCH  12  13
ATOM     13  N2  NON d   1     -40.700  23.984 -11.538  0.00  0.00    -0.253 N 
ATOM     14  H4  NON d   1     -41.113  23.945 -10.613  0.00  0.00     0.191 HD
BRANCH  13  15
ATOM     15  C3  NON d   1     -40.840  25.158 -12.246  0.00  0.00     0.185 C 
ATOM     16  S1  NON d   1     -41.789  25.444 -13.584  0.00  0.00    -0.040 SA
BRANCH  15  17
ATOM     17  N3  NON d   1     -40.120  26.190 -11.713  0.00  0.00    -0.375 N 
ATOM     18  H5  NON d   1     -40.576  26.675 -10.946  0.00  0.00     0.158 HD
ATOM     19  H6  NON d   1     -39.119  26.090 -11.624  0.00  0.00     0.158 HD
ENDBRANCH  15  17
ENDBRANCH  13  15
ENDBRANCH  12  13
ENDBRANCH   7  10
ENDBRANCH   3   4
ENDBRANCH   2   3
ENDBRANCH   1   2
BRANCH   1  20
ATOM     20  C10 NON d   1     -40.595  19.793  -3.930  0.00  0.00     0.178 C 
BRANCH  20  21
ATOM     21  O2  NON d   1     -41.354  19.402  -5.106  0.00  0.00    -0.351 OA
BRANCH  21  22
ATOM     22  C11 NON d   1     -42.564  18.755  -4.946  0.00  0.00     0.068 A 
ATOM     23  C12 NON d   1     -42.580  17.612  -4.126  0.00  0.00     0.037 A 
ATOM     24  C13 NON d   1     -43.762  16.844  -3.905  0.00  0.00     0.016 A 
ATOM     25  C14 NON d   1     -44.974  17.206  -4.493  0.00  0.00    -0.010 A 
ATOM     26  C18 NON d   1     -44.944  18.367  -5.306  0.00  0.00     0.016 A 
ATOM     27  C19 NON d   1     -43.767  19.126  -5.528  0.00  0.00     0.037 A 
BRANCH  25  28
ATOM     28  C15 NON d   1     -46.320  16.442  -4.377  0.00  0.00     0.061 C 
ATOM     29  C16 NON d   1     -46.760  15.616  -3.154  0.00  0.00     0.073 C 
ATOM     30  N4  NON d   1     -47.071  16.505  -5.444  0.00  0.00    -0.177 NA
BRANCH  30  31
ATOM     31  N5  NON d   1     -48.238  15.815  -5.524  0.00  0.00    -0.253 N 
ATOM     32  H20 NON d   1     -48.570  15.508  -6.426  0.00  0.00     0.191 HD
BRANCH  31  33
ATOM     33  C17 NON d   1     -49.092  15.748  -4.444  0.00  0.00     0.185 C 
ATOM     34  S2  NON d   1     -49.806  14.391  -3.792  0.00  0.00    -0.040 SA
BRANCH  33  35
ATOM     35  N6  NON d   1     -49.344  16.961  -3.876  0.00  0.00    -0.375 N 
ATOM     36  H21 NON d   1     -50.241  17.051  -3.413  0.00  0.00     0.158 HD
ATOM     37  H22 NON d   1     -48.984  17.801  -4.300  0.00  0.00     0.158 HD
ENDBRANCH  33  35
ENDBRANCH  31  33
ENDBRANCH  30  31
ENDBRANCH  25  28
ENDBRANCH  21  22
ENDBRANCH  20  21
ENDBRANCH   1  20
TORSDOF 14
ENDMDL
MODEL 2
REMARK VINA RESULT:   -28.506      5.719      6.848
REMARK INTER + INTRA:         -33.233
REMARK INTER:                 -32.682
REMARK INTRA:                  -0.551
REMARK CONF_INDEPENDENT:        4.176
REMARK UNBOUND:                -0.551
REMARK  14 active torsions:
REMARK  status: ('A' for Active; 'I' for Inactive)
REMARK    1  A    between atoms: C2_2  and  C4_8 
REMARK    2  A    between atoms: N1_3  and  N2_4 
REMARK    3  A    between atoms: N2_4  and  C3_5 
REMARK    4  A    between atoms: C3_5  and  N3_6 
REMARK    5  A    between atoms: C7_11  and  O1_12 
REMARK    6  A    between atoms: O1_12  and  C8_13 
REMARK    7  A    between atoms: C8_13  and  C9_14 
REMARK    8  A    between atoms: C9_14  and  C10_15 
REMARK    9  A    between atoms: C10_15  and  O2_16 
REMARK   10  A    between atoms: O2_16  and  C11_17 
REMARK   11  A    between atoms: C14_20  and  C15_21 
REMARK   12  A    between atoms: N4_23  and  N5_24 
REMARK   13  A    between atoms: N5_24  and  C17_25 
REMARK   14  A    between atoms: C17_25  and  N6_26 
ROOT
ATOM      1  C9  NON d   1     -39.650  19.217  -2.569  0.00  0.00     0.053 C 
ENDROOT
BRANCH   1   2
ATOM      2  C8  NON d   1     -38.266  19.059  -3.266  0.00  0.00     0.178 C 
BRANCH   2   3
ATOM      3  O1  NON d   1     -37.597  20.312  -3.519  0.00  0.00    -0.351 OA
BRANCH   3   4
ATOM      4  C7  NON d   1     -38.150  21.473  -3.008  0.00  0.00     0.068 A 
ATOM      5  C6  NON d   1     -37.773  21.824  -1.705  0.00  0.00     0.037 A 
ATOM      6  C5  NON d   1     -38.253  23.005  -1.063  0.00  0.00     0.016 A 
ATOM      7  C4  NON d   1     -39.118  23.899  -1.713  0.00  0.00    -0.010 A 
ATOM      8  C21 NON d   1     -39.458  23.550  -3.037  0.00  0.00     0.016 A 
ATOM      9  C20 NON d   1     -39.010  22.348  -3.664  0.00  0.00     0.037 A 
BRANCH   7  10
ATOM     10  C2  NON d   1     -39.613  25.205  -1.020  0.00  0.00     0.061 C 
ATOM     11  C1  NON d   1     -38.984  26.552  -1.419  0.00  0.00     0.073 C 
ATOM     12  N1  NON d   1     -40.519  25.299  -0.087  0.00  0.00    -0.177 NA
BRANCH  12  13
ATOM     13  N2  NON d   1     -41.050  24.214   0.519  0.00  0.00    -0.253 N 
ATOM     14  H4  NON d   1     -41.629  23.608  -0.051  0.00  0.00     0.191 HD
BRANCH  13  15
ATOM     15  C3  NON d   1     -40.456  23.660   1.632  0.00  0.00     0.185 C 
ATOM     16  S1  NON d   1     -39.180  24.257   2.520  0.00  0.00    -0.040 SA
BRANCH  15  17
ATOM     17  N3  NON d   1     -41.057  22.501   2.036  0.00  0.00    -0.375 N 
ATOM     18  H5  NON d   1     -42.030  22.409   1.761  0.00  0.00     0.158 HD
ATOM     19  H6  NON d   1     -40.523  21.644   2.017  0.00  0.00     0.158 HD
ENDBRANCH  15  17
ENDBRANCH  13  15
ENDBRANCH  12  13
ENDBRANCH   7  10
ENDBRANCH   3   4
ENDBRANCH   2   3
ENDBRANCH   1   2
BRANCH   1  20
ATOM     20  C10 NON d   1     -40.763  19.935  -3.374  0.00  0.00     0.178 C 
BRANCH  20  21
ATOM     21  O2  NON d   1     -41.158  19.119  -4.510  0.00  0.00    -0.351 OA
BRANCH  21  22
ATOM     22  C11 NON d   1     -42.358  18.436  -4.468  0.00  0.00     0.068 A 
ATOM     23  C12 NON d   1     -43.462  19.033  -5.102  0.00  0.00     0.037 A 
ATOM     24  C13 NON d   1     -44.759  18.439  -5.102  0.00  0.00     0.016 A 
ATOM     25  C14 NON d   1     -44.988  17.214  -4.475  0.00  0.00    -0.010 A 
ATOM     26  C18 NON d   1     -43.863  16.619  -3.851  0.00  0.00     0.016 A 
ATOM     27  C19 NON d   1     -42.575  17.215  -3.847  0.00  0.00     0.037 A 
BRANCH  25  28
ATOM     28  C15 NON d   1     -46.349  16.478  -4.359  0.00  0.00     0.061 C 
ATOM     29  C16 NON d   1     -46.835  15.717  -3.112  0.00  0.00     0.073 C 
ATOM     30  N4  NON d   1     -47.072  16.505  -5.446  0.00  0.00    -0.177 NA
BRANCH  30  31
ATOM     31  N5  NON d   1     -48.249  15.832  -5.525  0.00  0.00    -0.253 N 
ATOM     32  H20 NON d   1     -48.560  15.481  -6.419  0.00  0.00     0.191 HD
BRANCH  31  33
ATOM     33  C17 NON d   1     -49.137  15.839  -4.470  0.00  0.00     0.185 C 
ATOM     34  S2  NON d   1     -49.989  14.551  -3.845  0.00  0.00    -0.040 SA
BRANCH  33  35
ATOM     35  N6  NON d   1     -49.295  17.069  -3.904  0.00  0.00    -0.375 N 
ATOM     36  H21 NON d   1     -48.488  17.680  -3.950  0.00  0.00     0.158 HD
ATOM     37  H22 NON d   1     -49.882  17.179  -3.092  0.00  0.00     0.158 HD
ENDBRANCH  33  35
ENDBRANCH  31  33
ENDBRANCH  30  31
ENDBRANCH  25  28
ENDBRANCH  21  22
ENDBRANCH  20  21
ENDBRANCH   1  20
TORSDOF 14
ENDMDL
MODEL 3
REMARK VINA RESULT:   -28.404      1.903      2.385
REMARK INTER + INTRA:         -33.154
REMARK INTER:                 -32.581
REMARK INTRA:                  -0.574
REMARK CONF_INDEPENDENT:        4.176
REMARK UNBOUND:                -0.574
REMARK  14 active torsions:
REMARK  status: ('A' for Active; 'I' for Inactive)
REMARK    1  A    between atoms: C2_2  and  C4_8 
REMARK    2  A    between atoms: N1_3  and  N2_4 
REMARK    3  A    between atoms: N2_4  and  C3_5 
REMARK    4  A    between atoms: C3_5  and  N3_6 
REMARK    5  A    between atoms: C7_11  and  O1_12 
REMARK    6  A    between atoms: O1_12  and  C8_13 
REMARK    7  A    between atoms: C8_13  and  C9_14 
REMARK    8  A    between atoms: C9_14  and  C10_15 
REMARK    9  A    between atoms: C10_15  and  O2_16 
REMARK   10  A    between atoms: O2_16  and  C11_17 
REMARK   11  A    between atoms: C14_20  and  C15_21 
REMARK   12  A    between atoms: N4_23  and  N5_24 
REMARK   13  A    between atoms: N5_24  and  C17_25 
REMARK   14  A    between atoms: C17_25  and  N6_26 
ROOT
ATOM      1  C9  NON d   1     -38.545  18.776  -5.069  0.00  0.00     0.053 C 
ENDROOT
BRANCH   1   2
ATOM      2  C8  NON d   1     -38.588  19.849  -6.197  0.00  0.00     0.178 C 
BRANCH   2   3
ATOM      3  O1  NON d   1     -37.742  19.542  -7.324  0.00  0.00    -0.351 OA
BRANCH   3   4
ATOM      4  C7  NON d   1     -37.941  20.230  -8.507  0.00  0.00     0.068 A 
ATOM      5  C6  NON d   1     -39.227  20.747  -8.722  0.00  0.00     0.037 A 
ATOM      6  C5  NON d   1     -39.565  21.494  -9.890  0.00  0.00     0.016 A 
ATOM      7  C4  NON d   1     -38.618  21.774 -10.887  0.00  0.00    -0.010 A 
ATOM      8  C21 NON d   1     -37.321  21.279 -10.638  0.00  0.00     0.016 A 
ATOM      9  C20 NON d   1     -36.992  20.498  -9.490  0.00  0.00     0.037 A 
BRANCH   7  10
ATOM     10  C2  NON d   1     -38.984  22.619 -12.146  0.00  0.00     0.061 C 
ATOM     11  C1  NON d   1     -38.258  22.338 -13.475  0.00  0.00     0.073 C 
ATOM     12  N1  NON d   1     -39.849  23.591 -12.209  0.00  0.00    -0.177 NA
BRANCH  12  13
ATOM     13  N2  NON d   1     -40.448  24.100 -11.111  0.00  0.00    -0.253 N 
ATOM     14  H4  NON d   1     -40.941  23.447 -10.512  0.00  0.00     0.191 HD
BRANCH  13  15
ATOM     15  C3  NON d   1     -40.005  25.274 -10.539  0.00  0.00     0.185 C 
ATOM     16  S1  NON d   1     -39.023  25.460  -9.208  0.00  0.00    -0.040 SA
BRANCH  15  17
ATOM     17  N3  NON d   1     -40.420  26.386 -11.216  0.00  0.00    -0.375 N 
ATOM     18  H5  NON d   1     -41.054  26.987 -10.698  0.00  0.00     0.158 HD
ATOM     19  H6  NON d   1     -39.761  26.868 -11.809  0.00  0.00     0.158 HD
ENDBRANCH  15  17
ENDBRANCH  13  15
ENDBRANCH  12  13
ENDBRANCH   7  10
ENDBRANCH   3   4
ENDBRANCH   2   3
ENDBRANCH   1   2
BRANCH   1  20
ATOM     20  C10 NON d   1     -39.871  18.035  -4.754  0.00  0.00     0.178 C 
BRANCH  20  21
ATOM     21  O2  NON d   1     -40.996  18.785  -5.289  0.00  0.00    -0.351 OA
BRANCH  21  22
ATOM     22  C11 NON d   1     -42.278  18.313  -5.090  0.00  0.00     0.068 A 
ATOM     23  C12 NON d   1     -43.340  19.188  -5.386  0.00  0.00     0.037 A 
ATOM     24  C13 NON d   1     -44.707  18.825  -5.196  0.00  0.00     0.016 A 
ATOM     25  C14 NON d   1     -45.054  17.564  -4.712  0.00  0.00    -0.010 A 
ATOM     26  C18 NON d   1     -43.974  16.691  -4.430  0.00  0.00     0.016 A 
ATOM     27  C19 NON d   1     -42.616  17.055  -4.615  0.00  0.00     0.037 A 
BRANCH  25  28
ATOM     28  C15 NON d   1     -46.490  17.054  -4.416  0.00  0.00     0.061 C 
ATOM     29  C16 NON d   1     -47.179  17.114  -3.040  0.00  0.00     0.073 C 
ATOM     30  N4  NON d   1     -47.090  16.505  -5.438  0.00  0.00    -0.177 NA
BRANCH  30  31
ATOM     31  N5  NON d   1     -48.316  15.936  -5.311  0.00  0.00    -0.253 N 
ATOM     32  H20 NON d   1     -49.057  16.209  -5.940  0.00  0.00     0.191 HD
BRANCH  31  33
ATOM     33  C17 NON d   1     -48.635  15.191  -4.195  0.00  0.00     0.185 C 
ATOM     34  S2  NON d   1     -50.046  15.230  -3.311  0.00  0.00    -0.040 SA
BRANCH  33  35
ATOM     35  N6  NON d   1     -47.646  14.331  -3.817  0.00  0.00    -0.375 N 
ATOM     36  H21 NON d   1     -47.597  14.128  -2.826  0.00  0.00     0.158 HD
ATOM     37  H22 NON d   1     -46.767  14.327  -4.309  0.00  0.00     0.158 HD
ENDBRANCH  33  35
ENDBRANCH  31  33
ENDBRANCH  30  31
ENDBRANCH  25  28
ENDBRANCH  21  22
ENDBRANCH  20  21
ENDBRANCH   1  20
TORSDOF 14
ENDMDL
MODEL 4
REMARK VINA RESULT:   -28.148      1.497      1.877
REMARK INTER + INTRA:         -32.324
REMARK INTER:                 -32.325
REMARK INTRA:                   0.001
REMARK CONF_INDEPENDENT:        4.176
REMARK UNBOUND:                 0.001
REMARK  14 active torsions:
REMARK  status: ('A' for Active; 'I' for Inactive)
REMARK    1  A    between atoms: C2_2  and  C4_8 
REMARK    2  A    between atoms: N1_3  and  N2_4 
REMARK    3  A    between atoms: N2_4  and  C3_5 
REMARK    4  A    between atoms: C3_5  and  N3_6 
REMARK    5  A    between atoms: C7_11  and  O1_12 
REMARK    6  A    between atoms: O1_12  and  C8_13 
REMARK    7  A    between atoms: C8_13  and  C9_14 
REMARK    8  A    between atoms: C9_14  and  C10_15 
REMARK    9  A    between atoms: C10_15  and  O2_16 
REMARK   10  A    between atoms: O2_16  and  C11_17 
REMARK   11  A    between atoms: C14_20  and  C15_21 
REMARK   12  A    between atoms: N4_23  and  N5_24 
REMARK   13  A    between atoms: N5_24  and  C17_25 
REMARK   14  A    between atoms: C17_25  and  N6_26 
ROOT
ATOM      1  C9  NON d   1     -38.759  19.315  -5.028  0.00  0.00     0.053 C 
ENDROOT
BRANCH   1   2
ATOM      2  C8  NON d   1     -38.989  20.733  -5.628  0.00  0.00     0.178 C 
BRANCH   2   3
ATOM      3  O1  NON d   1     -39.508  20.717  -6.974  0.00  0.00    -0.351 OA
BRANCH   3   4
ATOM      4  C7  NON d   1     -39.449  21.882  -7.720  0.00  0.00     0.068 A 
ATOM      5  C6  NON d   1     -38.284  22.651  -7.588  0.00  0.00     0.037 A 
ATOM      6  C5  NON d   1     -38.084  23.864  -8.313  0.00  0.00     0.016 A 
ATOM      7  C4  NON d   1     -39.038  24.347  -9.220  0.00  0.00    -0.010 A 
ATOM      8  C21 NON d   1     -40.187  23.543  -9.368  0.00  0.00     0.016 A 
ATOM      9  C20 NON d   1     -40.406  22.351  -8.614  0.00  0.00     0.037 A 
BRANCH   7  10
ATOM     10  C2  NON d   1     -38.800  25.656 -10.034  0.00  0.00     0.061 C 
ATOM     11  C1  NON d   1     -37.898  26.755  -9.443  0.00  0.00     0.073 C 
ATOM     12  N1  NON d   1     -39.311  25.958 -11.195  0.00  0.00    -0.177 NA
BRANCH  12  13
ATOM     13  N2  NON d   1     -40.264  25.204 -11.784  0.00  0.00    -0.253 N 
ATOM     14  H4  NON d   1     -41.224  25.513 -11.680  0.00  0.00     0.191 HD
BRANCH  13  15
ATOM     15  C3  NON d   1     -39.970  24.406 -12.869  0.00  0.00     0.185 C 
ATOM     16  S1  NON d   1     -39.279  22.891 -12.872  0.00  0.00    -0.040 SA
BRANCH  15  17
ATOM     17  N3  NON d   1     -40.354  24.960 -14.058  0.00  0.00    -0.375 N 
ATOM     18  H5  NON d   1     -41.081  24.450 -14.549  0.00  0.00     0.158 HD
ATOM     19  H6  NON d   1     -40.410  25.965 -14.130  0.00  0.00     0.158 HD
ENDBRANCH  15  17
ENDBRANCH  13  15
ENDBRANCH  12  13
ENDBRANCH   7  10
ENDBRANCH   3   4
ENDBRANCH   2   3
ENDBRANCH   1   2
BRANCH   1  20
ATOM     20  C10 NON d   1     -40.020  18.519  -4.603  0.00  0.00     0.178 C 
BRANCH  20  21
ATOM     21  O2  NON d   1     -41.159  18.931  -5.408  0.00  0.00    -0.351 OA
BRANCH  21  22
ATOM     22  C11 NON d   1     -42.401  18.385  -5.150  0.00  0.00     0.068 A 
ATOM     23  C12 NON d   1     -42.495  16.981  -5.125  0.00  0.00     0.037 A 
ATOM     24  C13 NON d   1     -43.728  16.300  -4.897  0.00  0.00     0.016 A 
ATOM     25  C14 NON d   1     -44.909  17.008  -4.674  0.00  0.00    -0.010 A 
ATOM     26  C18 NON d   1     -44.796  18.421  -4.691  0.00  0.00     0.016 A 
ATOM     27  C19 NON d   1     -43.570  19.096  -4.923  0.00  0.00     0.037 A 
BRANCH  25  28
ATOM     28  C15 NON d   1     -46.321  16.401  -4.459  0.00  0.00     0.061 C 
ATOM     29  C16 NON d   1     -46.782  15.677  -3.181  0.00  0.00     0.073 C 
ATOM     30  N4  NON d   1     -47.117  16.505  -5.490  0.00  0.00    -0.177 NA
BRANCH  30  31
ATOM     31  N5  NON d   1     -48.354  15.945  -5.482  0.00  0.00    -0.253 N 
ATOM     32  H20 NON d   1     -48.810  15.741  -6.360  0.00  0.00     0.191 HD
BRANCH  31  33
ATOM     33  C17 NON d   1     -49.092  15.883  -4.320  0.00  0.00     0.185 C 
ATOM     34  S2  NON d   1     -49.701  14.527  -3.569  0.00  0.00    -0.040 SA
BRANCH  33  35
ATOM     35  N6  NON d   1     -49.318  17.104  -3.756  0.00  0.00    -0.375 N 
ATOM     36  H21 NON d   1     -48.752  17.864  -4.116  0.00  0.00     0.158 HD
ATOM     37  H22 NON d   1     -49.575  17.171  -2.785  0.00  0.00     0.158 HD
ENDBRANCH  33  35
ENDBRANCH  31  33
ENDBRANCH  30  31
ENDBRANCH  25  28
ENDBRANCH  21  22
ENDBRANCH  20  21
ENDBRANCH   1  20
TORSDOF 14
ENDMDL
MODEL 5
REMARK VINA RESULT:   -28.072      5.313      6.539
REMARK INTER + INTRA:         -33.514
REMARK INTER:                 -32.248
REMARK INTRA:                  -1.266
REMARK CONF_INDEPENDENT:        4.176
REMARK UNBOUND:                -1.266
REMARK  14 active torsions:
REMARK  status: ('A' for Active; 'I' for Inactive)
REMARK    1  A    between atoms: C2_2  and  C4_8 
REMARK    2  A    between atoms: N1_3  and  N2_4 
REMARK    3  A    between atoms: N2_4  and  C3_5 
REMARK    4  A    between atoms: C3_5  and  N3_6 
REMARK    5  A    between atoms: C7_11  and  O1_12 
REMARK    6  A    between atoms: O1_12  and  C8_13 
REMARK    7  A    between atoms: C8_13  and  C9_14 
REMARK    8  A    between atoms: C9_14  and  C10_15 
REMARK    9  A    between atoms: C10_15  and  O2_16 
REMARK   10  A    between atoms: O2_16  and  C11_17 
REMARK   11  A    between atoms: C14_20  and  C15_21 
REMARK   12  A    between atoms: N4_23  and  N5_24 
REMARK   13  A    between atoms: N5_24  and  C17_25 
REMARK   14  A    between atoms: C17_25  and  N6_26 
ROOT
ATOM      1  C9  NON d   1     -39.754  19.525  -2.816  0.00  0.00     0.053 C 
ENDROOT
BRANCH   1   2
ATOM      2  C8  NON d   1     -38.280  19.615  -3.310  0.00  0.00     0.178 C 
BRANCH   2   3
ATOM      3  O1  NON d   1     -37.485  20.582  -2.594  0.00  0.00    -0.351 OA
BRANCH   3   4
ATOM      4  C7  NON d   1     -38.120  21.440  -1.714  0.00  0.00     0.068 A 
ATOM      5  C6  NON d   1     -38.063  22.806  -2.020  0.00  0.00     0.037 A 
ATOM      6  C5  NON d   1     -38.690  23.798  -1.209  0.00  0.00     0.016 A 
ATOM      7  C4  NON d   1     -39.425  23.458  -0.063  0.00  0.00    -0.010 A 
ATOM      8  C21 NON d   1     -39.504  22.077   0.211  0.00  0.00     0.016 A 
ATOM      9  C20 NON d   1     -38.842  21.087  -0.577  0.00  0.00     0.037 A 
BRANCH   7  10
ATOM     10  C2  NON d   1     -40.137  24.543   0.802  0.00  0.00     0.061 C 
ATOM     11  C1  NON d   1     -40.205  24.360   2.329  0.00  0.00     0.073 C 
ATOM     12  N1  NON d   1     -40.728  25.621   0.371  0.00  0.00    -0.177 NA
BRANCH  12  13
ATOM     13  N2  NON d   1     -40.930  25.860  -0.943  0.00  0.00    -0.253 N 
ATOM     14  H4  NON d   1     -41.892  25.878  -1.264  0.00  0.00     0.191 HD
BRANCH  13  15
ATOM     15  C3  NON d   1     -39.999  26.547  -1.693  0.00  0.00     0.185 C 
ATOM     16  S1  NON d   1     -40.115  27.032  -3.281  0.00  0.00    -0.040 SA
BRANCH  15  17
ATOM     17  N3  NON d   1     -38.882  26.880  -0.980  0.00  0.00    -0.375 N 
ATOM     18  H5  NON d   1     -38.942  26.694   0.016  0.00  0.00     0.158 HD
ATOM     19  H6  NON d   1     -37.975  26.716  -1.392  0.00  0.00     0.158 HD
ENDBRANCH  15  17
ENDBRANCH  13  15
ENDBRANCH  12  13
ENDBRANCH   7  10
ENDBRANCH   3   4
ENDBRANCH   2   3
ENDBRANCH   1   2
BRANCH   1  20
ATOM     20  C10 NON d   1     -40.832  20.208  -3.697  0.00  0.00     0.178 C 
BRANCH  20  21
ATOM     21  O2  NON d   1     -41.211  19.325  -4.789  0.00  0.00    -0.351 OA
BRANCH  21  22
ATOM     22  C11 NON d   1     -42.383  18.600  -4.697  0.00  0.00     0.068 A 
ATOM     23  C12 NON d   1     -43.546  19.186  -5.229  0.00  0.00     0.037 A 
ATOM     24  C13 NON d   1     -44.821  18.547  -5.169  0.00  0.00     0.016 A 
ATOM     25  C14 NON d   1     -44.967  17.290  -4.582  0.00  0.00    -0.010 A 
ATOM     26  C18 NON d   1     -43.785  16.709  -4.062  0.00  0.00     0.016 A 
ATOM     27  C19 NON d   1     -42.519  17.348  -4.117  0.00  0.00     0.037 A 
BRANCH  25  28
ATOM     28  C15 NON d   1     -46.294  16.503  -4.409  0.00  0.00     0.061 C 
ATOM     29  C16 NON d   1     -46.696  15.724  -3.143  0.00  0.00     0.073 C 
ATOM     30  N4  NON d   1     -47.065  16.505  -5.463  0.00  0.00    -0.177 NA
BRANCH  30  31
ATOM     31  N5  NON d   1     -48.218  15.788  -5.492  0.00  0.00    -0.253 N 
ATOM     32  H20 NON d   1     -48.511  15.356  -6.356  0.00  0.00     0.191 HD
BRANCH  31  33
ATOM     33  C17 NON d   1     -49.113  15.850  -4.445  0.00  0.00     0.185 C 
ATOM     34  S2  NON d   1     -50.018  14.609  -3.801  0.00  0.00    -0.040 SA
BRANCH  33  35
ATOM     35  N6  NON d   1     -49.228  17.097  -3.904  0.00  0.00    -0.375 N 
ATOM     36  H21 NON d   1     -48.355  17.587  -3.743  0.00  0.00     0.158 HD
ATOM     37  H22 NON d   1     -49.970  17.298  -3.253  0.00  0.00     0.158 HD
ENDBRANCH  33  35
ENDBRANCH  31  33
ENDBRANCH  30  31
ENDBRANCH  25  28
ENDBRANCH  21  22
ENDBRANCH  20  21
ENDBRANCH   1  20
TORSDOF 14
ENDMDL
MODEL 6
REMARK VINA RESULT:   -28.029      6.285      8.185
REMARK INTER + INTRA:         -33.300
REMARK INTER:                 -32.206
REMARK INTRA:                  -1.095
REMARK CONF_INDEPENDENT:        4.176
REMARK UNBOUND:                -1.095
REMARK  14 active torsions:
REMARK  status: ('A' for Active; 'I' for Inactive)
REMARK    1  A    between atoms: C2_2  and  C4_8 
REMARK    2  A    between atoms: N1_3  and  N2_4 
REMARK    3  A    between atoms: N2_4  and  C3_5 
REMARK    4  A    between atoms: C3_5  and  N3_6 
REMARK    5  A    between atoms: C7_11  and  O1_12 
REMARK    6  A    between atoms: O1_12  and  C8_13 
REMARK    7  A    between atoms: C8_13  and  C9_14 
REMARK    8  A    between atoms: C9_14  and  C10_15 
REMARK    9  A    between atoms: C10_15  and  O2_16 
REMARK   10  A    between atoms: O2_16  and  C11_17 
REMARK   11  A    between atoms: C14_20  and  C15_21 
REMARK   12  A    between atoms: N4_23  and  N5_24 
REMARK   13  A    between atoms: N5_24  and  C17_25 
REMARK   14  A    between atoms: C17_25  and  N6_26 
ROOT
ATOM      1  C9  NON d   1     -39.588  19.211  -3.615  0.00  0.00     0.053 C 
ENDROOT
BRANCH   1   2
ATOM      2  C8  NON d   1     -40.243  19.420  -2.218  0.00  0.00     0.178 C 
BRANCH   2   3
ATOM      3  O1  NON d   1     -40.687  20.772  -1.980  0.00  0.00    -0.351 OA
BRANCH   3   4
ATOM      4  C7  NON d   1     -39.925  21.584  -1.159  0.00  0.00     0.068 A 
ATOM      5  C6  NON d   1     -40.428  22.868  -0.907  0.00  0.00     0.037 A 
ATOM      6  C5  NON d   1     -39.754  23.801  -0.064  0.00  0.00     0.016 A 
ATOM      7  C4  NON d   1     -38.553  23.476   0.584  0.00  0.00    -0.010 A 
ATOM      8  C21 NON d   1     -38.079  22.168   0.350  0.00  0.00     0.016 A 
ATOM      9  C20 NON d   1     -38.732  21.249  -0.526  0.00  0.00     0.037 A 
BRANCH   7  10
ATOM     10  C2  NON d   1     -37.837  24.487   1.531  0.00  0.00     0.061 C 
ATOM     11  C1  NON d   1     -36.400  24.935   1.204  0.00  0.00     0.073 C 
ATOM     12  N1  NON d   1     -38.317  25.006   2.626  0.00  0.00    -0.177 NA
BRANCH  12  13
ATOM     13  N2  NON d   1     -39.484  24.597   3.170  0.00  0.00    -0.253 N 
ATOM     14  H4  NON d   1     -39.697  23.607   3.109  0.00  0.00     0.191 HD
BRANCH  13  15
ATOM     15  C3  NON d   1     -40.088  25.314   4.181  0.00  0.00     0.185 C 
ATOM     16  S1  NON d   1     -41.279  24.808   5.228  0.00  0.00    -0.040 SA
BRANCH  15  17
ATOM     17  N3  NON d   1     -39.575  26.572   4.321  0.00  0.00    -0.375 N 
ATOM     18  H5  NON d   1     -39.728  26.994   5.231  0.00  0.00     0.158 HD
ATOM     19  H6  NON d   1     -38.686  26.785   3.893  0.00  0.00     0.158 HD
ENDBRANCH  15  17
ENDBRANCH  13  15
ENDBRANCH  12  13
ENDBRANCH   7  10
ENDBRANCH   3   4
ENDBRANCH   2   3
ENDBRANCH   1   2
BRANCH   1  20
ATOM     20  C10 NON d   1     -40.388  19.711  -4.846  0.00  0.00     0.178 C 
BRANCH  20  21
ATOM     21  O2  NON d   1     -40.919  18.576  -5.585  0.00  0.00    -0.351 OA
BRANCH  21  22
ATOM     22  C11 NON d   1     -42.213  18.158  -5.342  0.00  0.00     0.068 A 
ATOM     23  C12 NON d   1     -43.200  19.153  -5.224  0.00  0.00     0.037 A 
ATOM     24  C13 NON d   1     -44.566  18.847  -4.947  0.00  0.00     0.016 A 
ATOM     25  C14 NON d   1     -44.989  17.527  -4.791  0.00  0.00    -0.010 A 
ATOM     26  C18 NON d   1     -43.985  16.536  -4.924  0.00  0.00     0.016 A 
ATOM     27  C19 NON d   1     -42.626  16.842  -5.195  0.00  0.00     0.037 A 
BRANCH  25  28
ATOM     28  C15 NON d   1     -46.426  17.055  -4.444  0.00  0.00     0.061 C 
ATOM     29  C16 NON d   1     -47.071  17.151  -3.049  0.00  0.00     0.073 C 
ATOM     30  N4  NON d   1     -47.069  16.505  -5.439  0.00  0.00    -0.177 NA
BRANCH  30  31
ATOM     31  N5  NON d   1     -48.304  15.966  -5.267  0.00  0.00    -0.253 N 
ATOM     32  H20 NON d   1     -49.071  16.294  -5.835  0.00  0.00     0.191 HD
BRANCH  31  33
ATOM     33  C17 NON d   1     -48.580  15.173  -4.173  0.00  0.00     0.185 C 
ATOM     34  S2  NON d   1     -50.050  14.944  -3.424  0.00  0.00    -0.040 SA
BRANCH  33  35
ATOM     35  N6  NON d   1     -47.486  14.516  -3.691  0.00  0.00    -0.375 N 
ATOM     36  H21 NON d   1     -46.822  14.200  -4.388  0.00  0.00     0.158 HD
ATOM     37  H22 NON d   1     -47.567  13.939  -2.869  0.00  0.00     0.158 HD
ENDBRANCH  33  35
ENDBRANCH  31  33
ENDBRANCH  30  31
ENDBRANCH  25  28
ENDBRANCH  21  22
ENDBRANCH  20  21
ENDBRANCH   1  20
TORSDOF 14
ENDMDL
MODEL 7
REMARK VINA RESULT:   -27.977      1.672      2.393
REMARK INTER + INTRA:         -33.186
REMARK INTER:                 -32.154
REMARK INTRA:                  -1.032
REMARK CONF_INDEPENDENT:        4.176
REMARK UNBOUND:                -1.032
REMARK  14 active torsions:
REMARK  status: ('A' for Active; 'I' for Inactive)
REMARK    1  A    between atoms: C2_2  and  C4_8 
REMARK    2  A    between atoms: N1_3  and  N2_4 
REMARK    3  A    between atoms: N2_4  and  C3_5 
REMARK    4  A    between atoms: C3_5  and  N3_6 
REMARK    5  A    between atoms: C7_11  and  O1_12 
REMARK    6  A    between atoms: O1_12  and  C8_13 
REMARK    7  A    between atoms: C8_13  and  C9_14 
REMARK    8  A    between atoms: C9_14  and  C10_15 
REMARK    9  A    between atoms: C10_15  and  O2_16 
REMARK   10  A    between atoms: O2_16  and  C11_17 
REMARK   11  A    between atoms: C14_20  and  C15_21 
REMARK   12  A    between atoms: N4_23  and  N5_24 
REMARK   13  A    between atoms: N5_24  and  C17_25 
REMARK   14  A    between atoms: C17_25  and  N6_26 
ROOT
ATOM      1  C9  NON d   1     -38.903  18.069  -4.458  0.00  0.00     0.053 C 
ENDROOT
BRANCH   1   2
ATOM      2  C8  NON d   1     -38.583  18.889  -5.743  0.00  0.00     0.178 C 
BRANCH   2   3
ATOM      3  O1  NON d   1     -38.100  20.222  -5.477  0.00  0.00    -0.351 OA
BRANCH   3   4
ATOM      4  C7  NON d   1     -38.454  21.239  -6.345  0.00  0.00     0.068 A 
ATOM      5  C6  NON d   1     -39.717  21.138  -6.945  0.00  0.00     0.037 A 
ATOM      6  C5  NON d   1     -40.217  22.127  -7.845  0.00  0.00     0.016 A 
ATOM      7  C4  NON d   1     -39.476  23.274  -8.166  0.00  0.00    -0.010 A 
ATOM      8  C21 NON d   1     -38.224  23.378  -7.526  0.00  0.00     0.016 A 
ATOM      9  C20 NON d   1     -37.707  22.371  -6.657  0.00  0.00     0.037 A 
BRANCH   7  10
ATOM     10  C2  NON d   1     -40.040  24.368  -9.124  0.00  0.00     0.061 C 
ATOM     11  C1  NON d   1     -40.516  25.708  -8.535  0.00  0.00     0.073 C 
ATOM     12  N1  NON d   1     -40.185  24.275 -10.416  0.00  0.00    -0.177 NA
BRANCH  12  13
ATOM     13  N2  NON d   1     -39.994  23.117 -11.084  0.00  0.00    -0.253 N 
ATOM     14  H4  NON d   1     -40.509  22.308 -10.757  0.00  0.00     0.191 HD
BRANCH  13  15
ATOM     15  C3  NON d   1     -39.578  23.114 -12.399  0.00  0.00     0.185 C 
ATOM     16  S1  NON d   1     -38.423  22.149 -13.108  0.00  0.00    -0.040 SA
BRANCH  15  17
ATOM     17  N3  NON d   1     -40.264  24.005 -13.176  0.00  0.00    -0.375 N 
ATOM     18  H5  NON d   1     -40.584  24.836 -12.689  0.00  0.00     0.158 HD
ATOM     19  H6  NON d   1     -39.960  24.155 -14.127  0.00  0.00     0.158 HD
ENDBRANCH  15  17
ENDBRANCH  13  15
ENDBRANCH  12  13
ENDBRANCH   7  10
ENDBRANCH   3   4
ENDBRANCH   2   3
ENDBRANCH   1   2
BRANCH   1  20
ATOM     20  C10 NON d   1     -40.118  18.534  -3.614  0.00  0.00     0.178 C 
BRANCH  20  21
ATOM     21  O2  NON d   1     -41.149  19.073  -4.485  0.00  0.00    -0.351 OA
BRANCH  21  22
ATOM     22  C11 NON d   1     -42.420  18.534  -4.442  0.00  0.00     0.068 A 
ATOM     23  C12 NON d   1     -43.427  19.200  -5.165  0.00  0.00     0.037 A 
ATOM     24  C13 NON d   1     -44.783  18.756  -5.176  0.00  0.00     0.016 A 
ATOM     25  C14 NON d   1     -45.171  17.618  -4.469  0.00  0.00    -0.010 A 
ATOM     26  C18 NON d   1     -44.143  16.952  -3.756  0.00  0.00     0.016 A 
ATOM     27  C19 NON d   1     -42.797  17.398  -3.742  0.00  0.00     0.037 A 
BRANCH  25  28
ATOM     28  C15 NON d   1     -46.611  17.050  -4.356  0.00  0.00     0.061 C 
ATOM     29  C16 NON d   1     -47.459  17.052  -3.071  0.00  0.00     0.073 C 
ATOM     30  N4  NON d   1     -47.065  16.505  -5.453  0.00  0.00    -0.177 NA
BRANCH  30  31
ATOM     31  N5  NON d   1     -48.275  15.890  -5.484  0.00  0.00    -0.253 N 
ATOM     32  H20 NON d   1     -48.964  16.185  -6.160  0.00  0.00     0.191 HD
BRANCH  31  33
ATOM     33  C17 NON d   1     -48.667  15.054  -4.460  0.00  0.00     0.185 C 
ATOM     34  S2  NON d   1     -50.218  14.719  -3.954  0.00  0.00    -0.040 SA
BRANCH  33  35
ATOM     35  N6  NON d   1     -47.623  14.452  -3.822  0.00  0.00    -0.375 N 
ATOM     36  H21 NON d   1     -47.868  13.878  -3.024  0.00  0.00     0.158 HD
ATOM     37  H22 NON d   1     -46.729  14.915  -3.770  0.00  0.00     0.158 HD
ENDBRANCH  33  35
ENDBRANCH  31  33
ENDBRANCH  30  31
ENDBRANCH  25  28
ENDBRANCH  21  22
ENDBRANCH  20  21
ENDBRANCH   1  20
TORSDOF 14
ENDMDL
MODEL 8
REMARK VINA RESULT:   -27.091      2.235      2.847
REMARK INTER + INTRA:         -31.781
REMARK INTER:                 -31.267
REMARK INTRA:                  -0.514
REMARK CONF_INDEPENDENT:        4.176
REMARK UNBOUND:                -0.514
REMARK  14 active torsions:
REMARK  status: ('A' for Active; 'I' for Inactive)
REMARK    1  A    between atoms: C2_2  and  C4_8 
REMARK    2  A    between atoms: N1_3  and  N2_4 
REMARK    3  A    between atoms: N2_4  and  C3_5 
REMARK    4  A    between atoms: C3_5  and  N3_6 
REMARK    5  A    between atoms: C7_11  and  O1_12 
REMARK    6  A    between atoms: O1_12  and  C8_13 
REMARK    7  A    between atoms: C8_13  and  C9_14 
REMARK    8  A    between atoms: C9_14  and  C10_15 
REMARK    9  A    between atoms: C10_15  and  O2_16 
REMARK   10  A    between atoms: O2_16  and  C11_17 
REMARK   11  A    between atoms: C14_20  and  C15_21 
REMARK   12  A    between atoms: N4_23  and  N5_24 
REMARK   13  A    between atoms: N5_24  and  C17_25 
REMARK   14  A    between atoms: C17_25  and  N6_26 
ROOT
ATOM      1  C9  NON d   1     -38.975  19.513  -3.426  0.00  0.00     0.053 C 
ENDROOT
BRANCH   1   2
ATOM      2  C8  NON d   1     -37.595  18.812  -3.253  0.00  0.00     0.178 C 
BRANCH   2   3
ATOM      3  O1  NON d   1     -36.536  19.416  -4.025  0.00  0.00    -0.351 OA
BRANCH   3   4
ATOM      4  C7  NON d   1     -36.858  20.032  -5.221  0.00  0.00     0.068 A 
ATOM      5  C6  NON d   1     -36.913  19.208  -6.354  0.00  0.00     0.037 A 
ATOM      6  C5  NON d   1     -37.251  19.708  -7.647  0.00  0.00     0.016 A 
ATOM      7  C4  NON d   1     -37.571  21.059  -7.855  0.00  0.00    -0.010 A 
ATOM      8  C21 NON d   1     -37.546  21.866  -6.699  0.00  0.00     0.016 A 
ATOM      9  C20 NON d   1     -37.169  21.374  -5.414  0.00  0.00     0.037 A 
BRANCH   7  10
ATOM     10  C2  NON d   1     -37.972  21.594  -9.264  0.00  0.00     0.061 C 
ATOM     11  C1  NON d   1     -37.399  20.910 -10.519  0.00  0.00     0.073 C 
ATOM     12  N1  NON d   1     -38.748  22.609  -9.522  0.00  0.00    -0.177 NA
BRANCH  12  13
ATOM     13  N2  NON d   1     -39.196  23.441  -8.556  0.00  0.00    -0.253 N 
ATOM     14  H4  NON d   1     -38.769  23.354  -7.641  0.00  0.00     0.191 HD
BRANCH  13  15
ATOM     15  C3  NON d   1     -39.777  24.651  -8.873  0.00  0.00     0.185 C 
ATOM     16  S1  NON d   1     -39.731  26.070  -8.005  0.00  0.00    -0.040 SA
BRANCH  15  17
ATOM     17  N3  NON d   1     -40.418  24.634 -10.079  0.00  0.00    -0.375 N 
ATOM     18  H5  NON d   1     -41.376  24.971 -10.056  0.00  0.00     0.158 HD
ATOM     19  H6  NON d   1     -39.898  24.877 -10.910  0.00  0.00     0.158 HD
ENDBRANCH  15  17
ENDBRANCH  13  15
ENDBRANCH  12  13
ENDBRANCH   7  10
ENDBRANCH   3   4
ENDBRANCH   2   3
ENDBRANCH   1   2
BRANCH   1  20
ATOM     20  C10 NON d   1     -40.237  18.621  -3.294  0.00  0.00     0.178 C 
BRANCH  20  21
ATOM     21  O2  NON d   1     -41.058  18.745  -4.487  0.00  0.00    -0.351 OA
BRANCH  21  22
ATOM     22  C11 NON d   1     -42.357  18.277  -4.465  0.00  0.00     0.068 A 
ATOM     23  C12 NON d   1     -43.365  19.155  -4.902  0.00  0.00     0.037 A 
ATOM     24  C13 NON d   1     -44.747  18.797  -4.900  0.00  0.00     0.016 A 
ATOM     25  C14 NON d   1     -45.161  17.536  -4.470  0.00  0.00    -0.010 A 
ATOM     26  C18 NON d   1     -44.132  16.659  -4.044  0.00  0.00     0.016 A 
ATOM     27  C19 NON d   1     -42.760  17.019  -4.042  0.00  0.00     0.037 A 
BRANCH  25  28
ATOM     28  C15 NON d   1     -46.625  17.031  -4.372  0.00  0.00     0.061 C 
ATOM     29  C16 NON d   1     -47.487  17.074  -3.097  0.00  0.00     0.073 C 
ATOM     30  N4  NON d   1     -47.089  16.502  -5.473  0.00  0.00    -0.177 NA
BRANCH  30  31
ATOM     31  N5  NON d   1     -48.324  15.939  -5.516  0.00  0.00    -0.253 N 
ATOM     32  H20 NON d   1     -49.027  16.334  -6.123  0.00  0.00     0.191 HD
BRANCH  31  33
ATOM     33  C17 NON d   1     -48.707  15.008  -4.574  0.00  0.00     0.185 C 
ATOM     34  S2  NON d   1     -50.243  14.443  -4.264  0.00  0.00    -0.040 SA
BRANCH  33  35
ATOM     35  N6  NON d   1     -47.666  14.519  -3.841  0.00  0.00    -0.375 N 
ATOM     36  H21 NON d   1     -47.917  13.883  -3.093  0.00  0.00     0.158 HD
ATOM     37  H22 NON d   1     -46.853  15.090  -3.676  0.00  0.00     0.158 HD
ENDBRANCH  33  35
ENDBRANCH  31  33
ENDBRANCH  30  31
ENDBRANCH  25  28
ENDBRANCH  21  22
ENDBRANCH  20  21
ENDBRANCH   1  20
TORSDOF 14
ENDMDL
