MODEL 1
REMARK VINA RESULT:   -27.884      0.000      0.000
REMARK INTER + INTRA:         -30.627
REMARK INTER:                 -29.972
REMARK INTRA:                  -0.655
REMARK CONF_INDEPENDENT:        2.088
REMARK UNBOUND:                -0.655
REMARK  7 active torsions:
REMARK  status: ('A' for Active; 'I' for Inactive)
REMARK    1  A    between atoms: C3_3  and  C2_2 
REMARK    2  A    between atoms: C3_3  and  C5_5 
REMARK       I    between atoms: C5_5  and  N1_7 
REMARK    3  A    between atoms: N1_7  and  C6_8 
REMARK    4  A    between atoms: C10_12  and  C11_13 
REMARK    5  A    between atoms: C11_13  and  N2_14 
REMARK       I    between atoms: N2_14  and  C12_15 
REMARK    6  A    between atoms: C12_15  and  C13_17 
REMARK    7  A    between atoms: C16_20  and  C17_21 
ROOT
ATOM      1  C11 NON d   1     -42.327  18.134  -3.705  0.00  0.00     0.161 C 
ENDROOT
BRANCH   1   2
ATOM      2  C10 NON d   1     -41.002  18.524  -3.096  0.00  0.00    -0.038 A 
ATOM      3  C9  NON d   1     -39.967  17.633  -3.444  0.00  0.00     0.009 A 
ATOM      4  C8  NON d   1     -38.691  17.792  -2.949  0.00  0.00     0.003 A 
ATOM      5  C7  NON d   1     -38.423  18.854  -2.096  0.00  0.00     0.029 A 
ATOM      6  C6  NON d   1     -39.412  19.777  -1.709  0.00  0.00     0.035 A 
ATOM      7  C19 NON d   1     -40.716  19.600  -2.226  0.00  0.00     0.038 A 
BRANCH   6   8
ATOM      8  N1  NON d   1     -39.129  20.873  -0.818  0.00  0.00    -0.327 N 
ATOM      9  C5  NON d   1     -39.216  22.204  -1.168  0.00  0.00     0.226 C 
ATOM     10  O1  NON d   1     -39.522  22.584  -2.304  0.00  0.00    -0.273 OA
ATOM     11  H10 NON d   1     -38.821  20.631   0.115  0.00  0.00     0.169 HD
BRANCH   9  12
ATOM     12  C3  NON d   1     -38.906  23.352  -0.188  0.00  0.00     0.074 C 
ATOM     13  C4  NON d   1     -37.522  24.027  -0.206  0.00  0.00     0.020 C 
BRANCH  12  14
ATOM     14  C2  NON d   1     -39.980  23.823   0.809  0.00  0.00     0.009 C 
ATOM     15  C1  NON d   1     -41.462  23.842   0.392  0.00  0.00     0.006 C 
ENDBRANCH  12  14
ENDBRANCH   9  12
ENDBRANCH   6   8
ENDBRANCH   1   2
BRANCH   1  16
ATOM     16  N2  NON d   1     -42.962  18.946  -4.690  0.00  0.00    -0.352 N 
ATOM     17  C12 NON d   1     -44.271  18.893  -5.124  0.00  0.00     0.257 C 
ATOM     18  O2  NON d   1     -44.595  19.871  -5.805  0.00  0.00    -0.267 OA
ATOM     19  H16 NON d   1     -42.531  19.813  -4.974  0.00  0.00     0.163 HD
BRANCH  17  20
ATOM     20  C13 NON d   1     -45.250  17.764  -4.789  0.00  0.00     0.101 A 
ATOM     21  C14 NON d   1     -45.273  17.098  -3.616  0.00  0.00     0.025 A 
ATOM     22  C15 NON d   1     -46.261  16.103  -3.311  0.00  0.00     0.038 A 
ATOM     23  C16 NON d   1     -47.222  15.898  -4.224  0.00  0.00     0.144 A 
ATOM     24  N3  NON d   1     -47.317  16.505  -5.438  0.00  0.00    -0.205 NA
ATOM     25  C18 NON d   1     -46.348  17.374  -5.802  0.00  0.00     0.283 A 
ATOM     26  O3  NON d   1     -46.309  17.860  -6.929  0.00  0.00    -0.265 OA
BRANCH  23  27
ATOM     27  C17 NON d   1     -48.335  14.906  -3.890  0.00  0.00     0.434 C 
ATOM     28  F1  NON d   1     -48.918  14.375  -5.002  0.00  0.00    -0.165 F 
ATOM     29  F2  NON d   1     -49.334  15.427  -3.126  0.00  0.00    -0.165 F 
ATOM     30  F3  NON d   1     -47.865  13.831  -3.182  0.00  0.00    -0.165 F 
ENDBRANCH  23  27
ENDBRANCH  17  20
ENDBRANCH   1  16
TORSDOF 7
ENDMDL
