MODEL 1
REMARK VINA RESULT:   -14.733      0.000      0.000
REMARK INTER + INTRA:         -17.133
REMARK INTER:                 -16.225
REMARK INTRA:                  -0.908
REMARK CONF_INDEPENDENT:        1.492
REMARK UNBOUND:                -0.908
REMARK  5 active torsions:
REMARK  status: ('A' for Active; 'I' for Inactive)
REMARK       I    between atoms: C2_2  and  N1_4 
REMARK    1  A    between atoms: N1_4  and  C3_5 
REMARK    2  A    between atoms: C5_7  and  N2_8 
REMARK       I    between atoms: N2_8  and  C6_9 
REMARK    3  A    between atoms: C6_9  and  C7_11 
REMARK       I    between atoms: C7_11  and  N3_13 
REMARK    4  A    between atoms: C8_14  and  N3_13 
REMARK    5  A    between atoms: C8_14  and  C10_16 
ROOT
ATOM      1  N2  NON d   1     -44.915  16.963  -4.503  0.00  0.00    -0.319 N 
ATOM      2  C6  NON d   1     -45.993  17.229  -5.401  0.00  0.00     0.314 C 
ATOM      3  O2  NON d   1     -45.974  18.004  -6.347  0.00  0.00    -0.262 OA
ATOM      4  H6  NON d   1     -45.109  16.200  -3.861  0.00  0.00     0.169 HD
ENDROOT
BRANCH   1   5
ATOM      5  C5  NON d   1     -43.596  17.582  -4.350  0.00  0.00     0.037 A 
ATOM      6  C4  NON d   1     -43.058  18.570  -5.181  0.00  0.00     0.059 A 
ATOM      7  C3  NON d   1     -41.743  19.136  -4.955  0.00  0.00     0.042 A 
ATOM      8  C17 NON d   1     -40.878  18.704  -3.859  0.00  0.00    -0.035 A 
ATOM      9  C16 NON d   1     -41.438  17.751  -3.012  0.00  0.00     0.011 A 
ATOM     10  C18 NON d   1     -39.505  19.399  -3.887  0.00  0.00     0.050 C 
ATOM     11  C15 NON d   1     -42.767  17.219  -3.252  0.00  0.00     0.030 A 
BRANCH   7  12
ATOM     12  N1  NON d   1     -41.347  20.180  -5.887  0.00  0.00    -0.327 N 
ATOM     13  C2  NON d   1     -40.600  19.958  -7.016  0.00  0.00     0.218 C 
ATOM     14  C1  NON d   1     -40.454  20.945  -8.189  0.00  0.00     0.117 C 
ATOM     15  O1  NON d   1     -40.314  18.834  -7.464  0.00  0.00    -0.274 OA
ATOM     16  H4  NON d   1     -41.930  21.009  -5.891  0.00  0.00     0.169 HD
ENDBRANCH   7  12
ENDBRANCH   1   5
BRANCH   2  17
ATOM     17  C7  NON d   1     -47.361  16.416  -5.074  0.00  0.00     0.310 C 
ATOM     18  O3  NON d   1     -47.598  15.460  -5.810  0.00  0.00    -0.262 OA
ATOM     19  N3  NON d   1     -48.204  16.794  -3.964  0.00  0.00    -0.344 N 
ATOM     20  H7  NON d   1     -47.808  17.507  -3.363  0.00  0.00     0.163 HD
BRANCH  19  21
ATOM     21  C8  NON d   1     -49.304  15.884  -3.347  0.00  0.00     0.121 C 
ATOM     22  C9  NON d   1     -49.699  14.626  -4.143  0.00  0.00     0.038 C 
BRANCH  21  23
ATOM     23  C10 NON d   1     -50.328  16.507  -2.416  0.00  0.00     0.005 A 
ATOM     24  C11 NON d   1     -51.670  16.787  -2.611  0.00  0.00     0.018 A 
ATOM     25  C12 NON d   1     -52.240  17.575  -1.552  0.00  0.00     0.015 A 
ATOM     26  C13 NON d   1     -51.329  17.887  -0.560  0.00  0.00    -0.021 A 
ATOM     27  C14 NON d   1     -51.542  18.523   0.827  0.00  0.00     0.056 C 
ATOM     28  S1  NON d   1     -49.786  17.255  -0.944  0.00  0.00    -0.098 SA
ENDBRANCH  21  23
ENDBRANCH  19  21
ENDBRANCH   2  17
TORSDOF 5
ENDMDL
MODEL 2
REMARK VINA RESULT:   -13.712      3.487      6.319
REMARK INTER + INTRA:         -16.611
REMARK INTER:                 -15.204
REMARK INTRA:                  -1.408
REMARK CONF_INDEPENDENT:        1.492
REMARK UNBOUND:                -1.408
REMARK  5 active torsions:
REMARK  status: ('A' for Active; 'I' for Inactive)
REMARK       I    between atoms: C2_2  and  N1_4 
REMARK    1  A    between atoms: N1_4  and  C3_5 
REMARK    2  A    between atoms: C5_7  and  N2_8 
REMARK       I    between atoms: N2_8  and  C6_9 
REMARK    3  A    between atoms: C6_9  and  C7_11 
REMARK       I    between atoms: C7_11  and  N3_13 
REMARK    4  A    between atoms: C8_14  and  N3_13 
REMARK    5  A    between atoms: C8_14  and  C10_16 
ROOT
ATOM      1  N2  NON d   1     -40.486  20.858  -6.445  0.00  0.00    -0.319 N 
ATOM      2  C6  NON d   1     -41.644  20.085  -6.762  0.00  0.00     0.314 C 
ATOM      3  O2  NON d   1     -42.374  20.238  -7.733  0.00  0.00    -0.262 OA
ATOM      4  H6  NON d   1     -39.962  20.487  -5.657  0.00  0.00     0.169 HD
ENDROOT
BRANCH   1   5
ATOM      5  C5  NON d   1     -39.924  22.069  -7.049  0.00  0.00     0.037 A 
ATOM      6  C4  NON d   1     -40.316  22.628  -8.268  0.00  0.00     0.059 A 
ATOM      7  C3  NON d   1     -39.711  23.837  -8.792  0.00  0.00     0.042 A 
ATOM      8  C17 NON d   1     -38.637  24.544  -8.097  0.00  0.00    -0.035 A 
ATOM      9  C16 NON d   1     -38.282  24.004  -6.864  0.00  0.00     0.011 A 
ATOM     10  C18 NON d   1     -38.113  25.748  -8.901  0.00  0.00     0.050 C 
ATOM     11  C15 NON d   1     -38.922  22.805  -6.356  0.00  0.00     0.030 A 
BRANCH   7  12
ATOM     12  N1  NON d   1     -40.258  24.309 -10.055  0.00  0.00    -0.327 N 
ATOM     13  C2  NON d   1     -39.909  23.801 -11.281  0.00  0.00     0.218 C 
ATOM     14  C1  NON d   1     -40.697  24.020 -12.586  0.00  0.00     0.117 C 
ATOM     15  O1  NON d   1     -39.220  22.781 -11.452  0.00  0.00    -0.274 OA
ATOM     16  H4  NON d   1     -41.162  24.763  -9.998  0.00  0.00     0.169 HD
ENDBRANCH   7  12
ENDBRANCH   1   5
BRANCH   2  17
ATOM     17  C7  NON d   1     -41.996  18.921  -5.686  0.00  0.00     0.310 C 
ATOM     18  O3  NON d   1     -41.032  18.429  -5.102  0.00  0.00    -0.262 OA
ATOM     19  N3  NON d   1     -43.364  18.536  -5.428  0.00  0.00    -0.344 N 
ATOM     20  H7  NON d   1     -44.056  19.126  -5.875  0.00  0.00     0.163 HD
BRANCH  19  21
ATOM     21  C8  NON d   1     -43.828  17.725  -4.184  0.00  0.00     0.121 C 
ATOM     22  C9  NON d   1     -42.754  16.908  -3.441  0.00  0.00     0.038 C 
BRANCH  21  23
ATOM     23  C10 NON d   1     -45.272  17.265  -4.111  0.00  0.00     0.005 A 
ATOM     24  C11 NON d   1     -46.161  17.254  -3.050  0.00  0.00     0.018 A 
ATOM     25  C12 NON d   1     -47.375  16.541  -3.339  0.00  0.00     0.015 A 
ATOM     26  C13 NON d   1     -47.403  16.018  -4.618  0.00  0.00    -0.021 A 
ATOM     27  C14 NON d   1     -48.556  15.371  -5.409  0.00  0.00     0.056 C 
ATOM     28  S1  NON d   1     -45.940  16.363  -5.437  0.00  0.00    -0.098 SA
ENDBRANCH  21  23
ENDBRANCH  19  21
ENDBRANCH   2  17
TORSDOF 5
ENDMDL
MODEL 3
REMARK VINA RESULT:   -13.489      3.503      6.379
REMARK INTER + INTRA:         -16.426
REMARK INTER:                 -14.981
REMARK INTRA:                  -1.446
REMARK CONF_INDEPENDENT:        1.492
REMARK UNBOUND:                -1.446
REMARK  5 active torsions:
REMARK  status: ('A' for Active; 'I' for Inactive)
REMARK       I    between atoms: C2_2  and  N1_4 
REMARK    1  A    between atoms: N1_4  and  C3_5 
REMARK    2  A    between atoms: C5_7  and  N2_8 
REMARK       I    between atoms: N2_8  and  C6_9 
REMARK    3  A    between atoms: C6_9  and  C7_11 
REMARK       I    between atoms: C7_11  and  N3_13 
REMARK    4  A    between atoms: C8_14  and  N3_13 
REMARK    5  A    between atoms: C8_14  and  C10_16 
ROOT
ATOM      1  N2  NON d   1     -40.115  19.196  -7.529  0.00  0.00    -0.319 N 
ATOM      2  C6  NON d   1     -41.367  19.519  -6.924  0.00  0.00     0.314 C 
ATOM      3  O2  NON d   1     -42.049  20.509  -7.152  0.00  0.00    -0.262 OA
ATOM      4  H6  NON d   1     -39.778  18.270  -7.279  0.00  0.00     0.169 HD
ENDROOT
BRANCH   1   5
ATOM      5  C5  NON d   1     -39.246  19.948  -8.438  0.00  0.00     0.037 A 
ATOM      6  C4  NON d   1     -39.636  21.037  -9.223  0.00  0.00     0.059 A 
ATOM      7  C3  NON d   1     -38.709  21.732 -10.093  0.00  0.00     0.042 A 
ATOM      8  C17 NON d   1     -37.309  21.334 -10.229  0.00  0.00    -0.035 A 
ATOM      9  C16 NON d   1     -36.919  20.276  -9.412  0.00  0.00     0.011 A 
ATOM     10  C18 NON d   1     -36.559  22.179 -11.275  0.00  0.00     0.050 C 
ATOM     11  C15 NON d   1     -37.867  19.614  -8.535  0.00  0.00     0.030 A 
BRANCH   7  12
ATOM     12  N1  NON d   1     -39.264  22.867 -10.814  0.00  0.00    -0.327 N 
ATOM     13  C2  NON d   1     -39.723  22.807 -12.105  0.00  0.00     0.218 C 
ATOM     14  C1  NON d   1     -40.619  23.865 -12.776  0.00  0.00     0.117 C 
ATOM     15  O1  NON d   1     -39.875  21.756 -12.752  0.00  0.00    -0.274 OA
ATOM     16  H4  NON d   1     -39.641  23.610 -10.238  0.00  0.00     0.169 HD
ENDBRANCH   7  12
ENDBRANCH   1   5
BRANCH   2  17
ATOM     17  C7  NON d   1     -41.879  18.449  -5.813  0.00  0.00     0.310 C 
ATOM     18  O3  NON d   1     -41.003  17.746  -5.312  0.00  0.00    -0.262 OA
ATOM     19  N3  NON d   1     -43.270  18.378  -5.435  0.00  0.00    -0.344 N 
ATOM     20  H7  NON d   1     -43.848  19.114  -5.824  0.00  0.00     0.163 HD
BRANCH  19  21
ATOM     21  C8  NON d   1     -43.796  17.675  -4.151  0.00  0.00     0.121 C 
ATOM     22  C9  NON d   1     -42.768  16.898  -3.307  0.00  0.00     0.038 C 
BRANCH  21  23
ATOM     23  C10 NON d   1     -45.252  17.250  -4.096  0.00  0.00     0.005 A 
ATOM     24  C11 NON d   1     -46.152  17.254  -3.045  0.00  0.00     0.018 A 
ATOM     25  C12 NON d   1     -47.380  16.573  -3.352  0.00  0.00     0.015 A 
ATOM     26  C13 NON d   1     -47.406  16.058  -4.634  0.00  0.00    -0.021 A 
ATOM     27  C14 NON d   1     -48.565  15.443  -5.441  0.00  0.00     0.056 C 
ATOM     28  S1  NON d   1     -45.926  16.371  -5.435  0.00  0.00    -0.098 SA
ENDBRANCH  21  23
ENDBRANCH  19  21
ENDBRANCH   2  17
TORSDOF 5
ENDMDL
MODEL 4
REMARK VINA RESULT:   -13.468      1.522      2.425
REMARK INTER + INTRA:         -15.756
REMARK INTER:                 -14.959
REMARK INTRA:                  -0.797
REMARK CONF_INDEPENDENT:        1.492
REMARK UNBOUND:                -0.797
REMARK  5 active torsions:
REMARK  status: ('A' for Active; 'I' for Inactive)
REMARK       I    between atoms: C2_2  and  N1_4 
REMARK    1  A    between atoms: N1_4  and  C3_5 
REMARK    2  A    between atoms: C5_7  and  N2_8 
REMARK       I    between atoms: N2_8  and  C6_9 
REMARK    3  A    between atoms: C6_9  and  C7_11 
REMARK       I    between atoms: C7_11  and  N3_13 
REMARK    4  A    between atoms: C8_14  and  N3_13 
REMARK    5  A    between atoms: C8_14  and  C10_16 
ROOT
ATOM      1  N2  NON d   1     -44.851  17.239  -4.438  0.00  0.00    -0.319 N 
ATOM      2  C6  NON d   1     -45.920  17.321  -5.381  0.00  0.00     0.314 C 
ATOM      3  O2  NON d   1     -45.942  18.006  -6.395  0.00  0.00    -0.262 OA
ATOM      4  H6  NON d   1     -44.995  16.523  -3.732  0.00  0.00     0.169 HD
ENDROOT
BRANCH   1   5
ATOM      5  C5  NON d   1     -43.598  17.988  -4.315  0.00  0.00     0.037 A 
ATOM      6  C4  NON d   1     -42.557  17.694  -3.429  0.00  0.00     0.059 A 
ATOM      7  C3  NON d   1     -41.343  18.485  -3.375  0.00  0.00     0.042 A 
ATOM      8  C17 NON d   1     -41.128  19.654  -4.225  0.00  0.00    -0.035 A 
ATOM      9  C16 NON d   1     -42.151  19.915  -5.133  0.00  0.00     0.011 A 
ATOM     10  C18 NON d   1     -39.798  20.365  -3.916  0.00  0.00     0.050 C 
ATOM     11  C15 NON d   1     -43.345  19.091  -5.177  0.00  0.00     0.030 A 
BRANCH   7  12
ATOM     12  N1  NON d   1     -40.342  18.023  -2.426  0.00  0.00    -0.327 N 
ATOM     13  C2  NON d   1     -39.101  17.561  -2.784  0.00  0.00     0.218 C 
ATOM     14  C1  NON d   1     -37.908  17.394  -1.824  0.00  0.00     0.117 C 
ATOM     15  O1  NON d   1     -38.623  17.634  -3.929  0.00  0.00    -0.274 OA
ATOM     16  H4  NON d   1     -40.431  18.384  -1.484  0.00  0.00     0.169 HD
ENDBRANCH   7  12
ENDBRANCH   1   5
BRANCH   2  17
ATOM     17  C7  NON d   1     -47.219  16.419  -5.010  0.00  0.00     0.310 C 
ATOM     18  O3  NON d   1     -47.353  15.388  -5.666  0.00  0.00    -0.262 OA
ATOM     19  N3  NON d   1     -48.119  16.811  -3.952  0.00  0.00    -0.344 N 
ATOM     20  H7  NON d   1     -47.803  17.604  -3.406  0.00  0.00     0.163 HD
BRANCH  19  21
ATOM     21  C8  NON d   1     -49.151  15.860  -3.279  0.00  0.00     0.121 C 
ATOM     22  C9  NON d   1     -49.457  14.536  -4.003  0.00  0.00     0.038 C 
BRANCH  21  23
ATOM     23  C10 NON d   1     -50.213  16.459  -2.376  0.00  0.00     0.005 A 
ATOM     24  C11 NON d   1     -51.561  16.682  -2.597  0.00  0.00     0.018 A 
ATOM     25  C12 NON d   1     -52.179  17.466  -1.562  0.00  0.00     0.015 A 
ATOM     26  C13 NON d   1     -51.298  17.831  -0.561  0.00  0.00    -0.021 A 
ATOM     27  C14 NON d   1     -51.558  18.483   0.810  0.00  0.00     0.056 C 
ATOM     28  S1  NON d   1     -49.725  17.254  -0.910  0.00  0.00    -0.098 SA
ENDBRANCH  21  23
ENDBRANCH  19  21
ENDBRANCH   2  17
TORSDOF 5
ENDMDL
MODEL 5
REMARK VINA RESULT:   -13.235      3.487      6.416
REMARK INTER + INTRA:         -16.186
REMARK INTER:                 -14.726
REMARK INTRA:                  -1.460
REMARK CONF_INDEPENDENT:        1.492
REMARK UNBOUND:                -1.460
REMARK  5 active torsions:
REMARK  status: ('A' for Active; 'I' for Inactive)
REMARK       I    between atoms: C2_2  and  N1_4 
REMARK    1  A    between atoms: N1_4  and  C3_5 
REMARK    2  A    between atoms: C5_7  and  N2_8 
REMARK       I    between atoms: N2_8  and  C6_9 
REMARK    3  A    between atoms: C6_9  and  C7_11 
REMARK       I    between atoms: C7_11  and  N3_13 
REMARK    4  A    between atoms: C8_14  and  N3_13 
REMARK    5  A    between atoms: C8_14  and  C10_16 
ROOT
ATOM      1  N2  NON d   1     -40.204  20.279  -6.914  0.00  0.00    -0.319 N 
ATOM      2  C6  NON d   1     -41.574  19.876  -6.905  0.00  0.00     0.314 C 
ATOM      3  O2  NON d   1     -42.446  20.255  -7.675  0.00  0.00    -0.262 OA
ATOM      4  H6  NON d   1     -39.629  19.754  -6.261  0.00  0.00     0.169 HD
ENDROOT
BRANCH   1   5
ATOM      5  C5  NON d   1     -39.489  21.295  -7.691  0.00  0.00     0.037 A 
ATOM      6  C4  NON d   1     -39.850  21.751  -8.962  0.00  0.00     0.059 A 
ATOM      7  C3  NON d   1     -39.089  22.768  -9.661  0.00  0.00     0.042 A 
ATOM      8  C17 NON d   1     -37.884  23.374  -9.099  0.00  0.00    -0.035 A 
ATOM      9  C16 NON d   1     -37.556  22.945  -7.815  0.00  0.00     0.011 A 
ATOM     10  C18 NON d   1     -37.218  24.364 -10.071  0.00  0.00     0.050 C 
ATOM     11  C15 NON d   1     -38.351  21.941  -7.133  0.00  0.00     0.030 A 
BRANCH   7  12
ATOM     12  N1  NON d   1     -39.618  23.158 -10.959  0.00  0.00    -0.327 N 
ATOM     13  C2  NON d   1     -38.939  23.009 -12.141  0.00  0.00     0.218 C 
ATOM     14  C1  NON d   1     -39.574  23.080 -13.542  0.00  0.00     0.117 C 
ATOM     15  O1  NON d   1     -37.874  22.380 -12.269  0.00  0.00    -0.274 OA
ATOM     16  H4  NON d   1     -40.628  23.205 -11.024  0.00  0.00     0.169 HD
ENDBRANCH   7  12
ENDBRANCH   1   5
BRANCH   2  17
ATOM     17  C7  NON d   1     -41.965  18.832  -5.723  0.00  0.00     0.310 C 
ATOM     18  O3  NON d   1     -41.020  18.391  -5.072  0.00  0.00    -0.262 OA
ATOM     19  N3  NON d   1     -43.342  18.492  -5.457  0.00  0.00    -0.344 N 
ATOM     20  H7  NON d   1     -44.017  19.042  -5.977  0.00  0.00     0.163 HD
BRANCH  19  21
ATOM     21  C8  NON d   1     -43.843  17.818  -4.147  0.00  0.00     0.121 C 
ATOM     22  C9  NON d   1     -42.784  17.137  -3.261  0.00  0.00     0.038 C 
BRANCH  21  23
ATOM     23  C10 NON d   1     -45.274  17.317  -4.086  0.00  0.00     0.005 A 
ATOM     24  C11 NON d   1     -46.161  17.253  -3.026  0.00  0.00     0.018 A 
ATOM     25  C12 NON d   1     -47.355  16.515  -3.334  0.00  0.00     0.015 A 
ATOM     26  C13 NON d   1     -47.370  16.026  -4.627  0.00  0.00    -0.021 A 
ATOM     27  C14 NON d   1     -48.505  15.368  -5.434  0.00  0.00     0.056 C 
ATOM     28  S1  NON d   1     -45.918  16.432  -5.437  0.00  0.00    -0.098 SA
ENDBRANCH  21  23
ENDBRANCH  19  21
ENDBRANCH   2  17
TORSDOF 5
ENDMDL
MODEL 6
REMARK VINA RESULT:   -13.041      4.640      6.784
REMARK INTER + INTRA:         -15.311
REMARK INTER:                 -14.532
REMARK INTRA:                  -0.779
REMARK CONF_INDEPENDENT:        1.492
REMARK UNBOUND:                -0.779
REMARK  5 active torsions:
REMARK  status: ('A' for Active; 'I' for Inactive)
REMARK       I    between atoms: C2_2  and  N1_4 
REMARK    1  A    between atoms: N1_4  and  C3_5 
REMARK    2  A    between atoms: C5_7  and  N2_8 
REMARK       I    between atoms: N2_8  and  C6_9 
REMARK    3  A    between atoms: C6_9  and  C7_11 
REMARK       I    between atoms: C7_11  and  N3_13 
REMARK    4  A    between atoms: C8_14  and  N3_13 
REMARK    5  A    between atoms: C8_14  and  C10_16 
ROOT
ATOM      1  N2  NON d   1     -41.367  21.093  -4.040  0.00  0.00    -0.319 N 
ATOM      2  C6  NON d   1     -41.401  20.593  -5.377  0.00  0.00     0.314 C 
ATOM      3  O2  NON d   1     -41.055  21.196  -6.385  0.00  0.00    -0.262 OA
ATOM      4  H6  NON d   1     -41.589  20.386  -3.345  0.00  0.00     0.169 HD
ENDROOT
BRANCH   1   5
ATOM      5  C5  NON d   1     -41.068  22.421  -3.501  0.00  0.00     0.037 A 
ATOM      6  C4  NON d   1     -40.688  22.699  -2.184  0.00  0.00     0.059 A 
ATOM      7  C3  NON d   1     -40.402  24.047  -1.732  0.00  0.00     0.042 A 
ATOM      8  C17 NON d   1     -40.508  25.210  -2.610  0.00  0.00    -0.035 A 
ATOM      9  C16 NON d   1     -40.845  24.920  -3.929  0.00  0.00     0.011 A 
ATOM     10  C18 NON d   1     -40.232  26.530  -1.868  0.00  0.00     0.050 C 
ATOM     11  C15 NON d   1     -41.105  23.557  -4.357  0.00  0.00     0.030 A 
BRANCH   7  12
ATOM     12  N1  NON d   1     -39.984  24.161  -0.343  0.00  0.00    -0.327 N 
ATOM     13  C2  NON d   1     -40.783  24.646   0.661  0.00  0.00     0.218 C 
ATOM     14  C1  NON d   1     -40.518  24.465   2.168  0.00  0.00     0.117 C 
ATOM     15  O1  NON d   1     -41.997  24.887   0.544  0.00  0.00    -0.274 OA
ATOM     16  H4  NON d   1     -39.232  23.545  -0.060  0.00  0.00     0.169 HD
ENDBRANCH   7  12
ENDBRANCH   1   5
BRANCH   2  17
ATOM     17  C7  NON d   1     -41.985  19.084  -5.522  0.00  0.00     0.310 C 
ATOM     18  O3  NON d   1     -41.252  18.285  -6.101  0.00  0.00    -0.262 OA
ATOM     19  N3  NON d   1     -43.270  18.729  -4.966  0.00  0.00    -0.344 N 
ATOM     20  H7  NON d   1     -43.693  19.451  -4.395  0.00  0.00     0.163 HD
BRANCH  19  21
ATOM     21  C8  NON d   1     -43.746  17.268  -4.722  0.00  0.00     0.121 C 
ATOM     22  C9  NON d   1     -42.964  16.149  -5.435  0.00  0.00     0.038 C 
BRANCH  21  23
ATOM     23  C10 NON d   1     -45.201  17.026  -4.365  0.00  0.00     0.005 A 
ATOM     24  C11 NON d   1     -45.888  17.255  -3.185  0.00  0.00     0.018 A 
ATOM     25  C12 NON d   1     -47.210  16.692  -3.185  0.00  0.00     0.015 A 
ATOM     26  C13 NON d   1     -47.521  16.041  -4.365  0.00  0.00    -0.021 A 
ATOM     27  C14 NON d   1     -48.862  15.479  -4.873  0.00  0.00     0.056 C 
ATOM     28  S1  NON d   1     -46.190  16.086  -5.440  0.00  0.00    -0.098 SA
ENDBRANCH  21  23
ENDBRANCH  19  21
ENDBRANCH   2  17
TORSDOF 5
ENDMDL
MODEL 7
REMARK VINA RESULT:   -12.708      3.758      6.543
REMARK INTER + INTRA:         -15.437
REMARK INTER:                 -14.199
REMARK INTRA:                  -1.238
REMARK CONF_INDEPENDENT:        1.492
REMARK UNBOUND:                -1.238
REMARK  5 active torsions:
REMARK  status: ('A' for Active; 'I' for Inactive)
REMARK       I    between atoms: C2_2  and  N1_4 
REMARK    1  A    between atoms: N1_4  and  C3_5 
REMARK    2  A    between atoms: C5_7  and  N2_8 
REMARK       I    between atoms: N2_8  and  C6_9 
REMARK    3  A    between atoms: C6_9  and  C7_11 
REMARK       I    between atoms: C7_11  and  N3_13 
REMARK    4  A    between atoms: C8_14  and  N3_13 
REMARK    5  A    between atoms: C8_14  and  C10_16 
ROOT
ATOM      1  N2  NON d   1     -40.542  20.907  -6.206  0.00  0.00    -0.319 N 
ATOM      2  C6  NON d   1     -41.578  20.041  -6.671  0.00  0.00     0.314 C 
ATOM      3  O2  NON d   1     -42.185  20.140  -7.729  0.00  0.00    -0.262 OA
ATOM      4  H6  NON d   1     -40.096  20.575  -5.355  0.00  0.00     0.169 HD
ENDROOT
BRANCH   1   5
ATOM      5  C5  NON d   1     -40.012  22.167  -6.733  0.00  0.00     0.037 A 
ATOM      6  C4  NON d   1     -39.620  23.269  -5.968  0.00  0.00     0.059 A 
ATOM      7  C3  NON d   1     -39.097  24.480  -6.570  0.00  0.00     0.042 A 
ATOM      8  C17 NON d   1     -38.960  24.643  -8.016  0.00  0.00    -0.035 A 
ATOM      9  C16 NON d   1     -39.313  23.525  -8.768  0.00  0.00     0.011 A 
ATOM     10  C18 NON d   1     -38.459  26.046  -8.402  0.00  0.00     0.050 C 
ATOM     11  C15 NON d   1     -39.813  22.320  -8.133  0.00  0.00     0.030 A 
BRANCH   7  12
ATOM     12  N1  NON d   1     -38.700  25.519  -5.633  0.00  0.00    -0.327 N 
ATOM     13  C2  NON d   1     -39.584  26.276  -4.907  0.00  0.00     0.218 C 
ATOM     14  C1  NON d   1     -39.219  27.125  -3.675  0.00  0.00     0.117 C 
ATOM     15  O1  NON d   1     -40.806  26.060  -4.835  0.00  0.00    -0.274 OA
ATOM     16  H4  NON d   1     -37.766  25.432  -5.252  0.00  0.00     0.169 HD
ENDBRANCH   7  12
ENDBRANCH   1   5
BRANCH   2  17
ATOM     17  C7  NON d   1     -41.967  18.841  -5.647  0.00  0.00     0.310 C 
ATOM     18  O3  NON d   1     -41.018  18.276  -5.108  0.00  0.00    -0.262 OA
ATOM     19  N3  NON d   1     -43.347  18.507  -5.383  0.00  0.00    -0.344 N 
ATOM     20  H7  NON d   1     -44.017  19.150  -5.787  0.00  0.00     0.163 HD
BRANCH  19  21
ATOM     21  C8  NON d   1     -43.828  17.656  -4.173  0.00  0.00     0.121 C 
ATOM     22  C9  NON d   1     -42.772  16.788  -3.464  0.00  0.00     0.038 C 
BRANCH  21  23
ATOM     23  C10 NON d   1     -45.282  17.224  -4.118  0.00  0.00     0.005 A 
ATOM     24  C11 NON d   1     -46.191  17.255  -3.075  0.00  0.00     0.018 A 
ATOM     25  C12 NON d   1     -47.412  16.556  -3.371  0.00  0.00     0.015 A 
ATOM     26  C13 NON d   1     -47.424  16.002  -4.638  0.00  0.00    -0.021 A 
ATOM     27  C14 NON d   1     -48.573  15.356  -5.435  0.00  0.00     0.056 C 
ATOM     28  S1  NON d   1     -45.939  16.301  -5.435  0.00  0.00    -0.098 SA
ENDBRANCH  21  23
ENDBRANCH  19  21
ENDBRANCH   2  17
TORSDOF 5
ENDMDL
MODEL 8
REMARK VINA RESULT:   -12.606      4.362      6.443
REMARK INTER + INTRA:         -15.011
REMARK INTER:                 -14.097
REMARK INTRA:                  -0.914
REMARK CONF_INDEPENDENT:        1.492
REMARK UNBOUND:                -0.914
REMARK  5 active torsions:
REMARK  status: ('A' for Active; 'I' for Inactive)
REMARK       I    between atoms: C2_2  and  N1_4 
REMARK    1  A    between atoms: N1_4  and  C3_5 
REMARK    2  A    between atoms: C5_7  and  N2_8 
REMARK       I    between atoms: N2_8  and  C6_9 
REMARK    3  A    between atoms: C6_9  and  C7_11 
REMARK       I    between atoms: C7_11  and  N3_13 
REMARK    4  A    between atoms: C8_14  and  N3_13 
REMARK    5  A    between atoms: C8_14  and  C10_16 
ROOT
ATOM      1  N2  NON d   1     -41.100  19.211  -2.383  0.00  0.00    -0.319 N 
ATOM      2  C6  NON d   1     -41.326  17.814  -2.578  0.00  0.00     0.314 C 
ATOM      3  O2  NON d   1     -40.699  16.900  -2.060  0.00  0.00    -0.262 OA
ATOM      4  H6  NON d   1     -41.810  19.794  -2.818  0.00  0.00     0.169 HD
ENDROOT
BRANCH   1   5
ATOM      5  C5  NON d   1     -40.047  19.940  -1.673  0.00  0.00     0.037 A 
ATOM      6  C4  NON d   1     -40.239  20.781  -0.572  0.00  0.00     0.059 A 
ATOM      7  C3  NON d   1     -39.137  21.463   0.079  0.00  0.00     0.042 A 
ATOM      8  C17 NON d   1     -37.755  21.337  -0.377  0.00  0.00    -0.035 A 
ATOM      9  C16 NON d   1     -37.567  20.465  -1.446  0.00  0.00     0.011 A 
ATOM     10  C18 NON d   1     -36.789  22.223   0.430  0.00  0.00     0.050 C 
ATOM     11  C15 NON d   1     -38.688  19.780  -2.063  0.00  0.00     0.030 A 
BRANCH   7  12
ATOM     12  N1  NON d   1     -39.501  22.271   1.233  0.00  0.00    -0.327 N 
ATOM     13  C2  NON d   1     -40.397  23.309   1.190  0.00  0.00     0.218 C 
ATOM     14  C1  NON d   1     -41.064  23.953   2.420  0.00  0.00     0.117 C 
ATOM     15  O1  NON d   1     -41.122  23.578   0.217  0.00  0.00    -0.274 OA
ATOM     16  H4  NON d   1     -39.365  21.833   2.136  0.00  0.00     0.169 HD
ENDBRANCH   7  12
ENDBRANCH   1   5
BRANCH   2  17
ATOM     17  C7  NON d   1     -42.525  17.461  -3.615  0.00  0.00     0.310 C 
ATOM     18  O3  NON d   1     -42.951  16.309  -3.559  0.00  0.00    -0.262 OA
ATOM     19  N3  NON d   1     -43.058  18.465  -4.506  0.00  0.00    -0.344 N 
ATOM     20  H7  NON d   1     -42.709  19.401  -4.337  0.00  0.00     0.163 HD
BRANCH  19  21
ATOM     21  C8  NON d   1     -44.418  18.344  -5.251  0.00  0.00     0.121 C 
ATOM     22  C9  NON d   1     -44.809  19.505  -6.185  0.00  0.00     0.038 C 
BRANCH  21  23
ATOM     23  C10 NON d   1     -45.520  17.509  -4.627  0.00  0.00     0.005 A 
ATOM     24  C11 NON d   1     -45.691  17.073  -3.325  0.00  0.00     0.018 A 
ATOM     25  C12 NON d   1     -46.761  16.122  -3.185  0.00  0.00     0.015 A 
ATOM     26  C13 NON d   1     -47.396  15.844  -4.381  0.00  0.00    -0.021 A 
ATOM     27  C14 NON d   1     -48.691  15.060  -4.665  0.00  0.00     0.056 C 
ATOM     28  S1  NON d   1     -46.662  16.707  -5.663  0.00  0.00    -0.098 SA
ENDBRANCH  21  23
ENDBRANCH  19  21
ENDBRANCH   2  17
TORSDOF 5
ENDMDL
MODEL 9
REMARK VINA RESULT:   -12.415      4.969      7.156
REMARK INTER + INTRA:         -15.061
REMARK INTER:                 -13.907
REMARK INTRA:                  -1.154
REMARK CONF_INDEPENDENT:        1.492
REMARK UNBOUND:                -1.154
REMARK  5 active torsions:
REMARK  status: ('A' for Active; 'I' for Inactive)
REMARK       I    between atoms: C2_2  and  N1_4 
REMARK    1  A    between atoms: N1_4  and  C3_5 
REMARK    2  A    between atoms: C5_7  and  N2_8 
REMARK       I    between atoms: N2_8  and  C6_9 
REMARK    3  A    between atoms: C6_9  and  C7_11 
REMARK       I    between atoms: C7_11  and  N3_13 
REMARK    4  A    between atoms: C8_14  and  N3_13 
REMARK    5  A    between atoms: C8_14  and  C10_16 
ROOT
ATOM      1  N2  NON d   1     -40.273  20.360  -2.491  0.00  0.00    -0.319 N 
ATOM      2  C6  NON d   1     -41.221  20.348  -3.559  0.00  0.00     0.314 C 
ATOM      3  O2  NON d   1     -41.711  21.328  -4.103  0.00  0.00    -0.262 OA
ATOM      4  H6  NON d   1     -39.911  19.436  -2.269  0.00  0.00     0.169 HD
ENDROOT
BRANCH   1   5
ATOM      5  C5  NON d   1     -39.731  21.451  -1.677  0.00  0.00     0.037 A 
ATOM      6  C4  NON d   1     -40.115  21.759  -0.369  0.00  0.00     0.059 A 
ATOM      7  C3  NON d   1     -39.522  22.855   0.371  0.00  0.00     0.042 A 
ATOM      8  C17 NON d   1     -38.498  23.727  -0.200  0.00  0.00    -0.035 A 
ATOM      9  C16 NON d   1     -38.091  23.387  -1.488  0.00  0.00     0.011 A 
ATOM     10  C18 NON d   1     -38.093  24.861   0.759  0.00  0.00     0.050 C 
ATOM     11  C15 NON d   1     -38.689  22.270  -2.195  0.00  0.00     0.030 A 
BRANCH   7  12
ATOM     12  N1  NON d   1     -40.005  23.018   1.734  0.00  0.00    -0.327 N 
ATOM     13  C2  NON d   1     -40.615  24.155   2.200  0.00  0.00     0.218 C 
ATOM     14  C1  NON d   1     -41.438  24.249   3.499  0.00  0.00     0.117 C 
ATOM     15  O1  NON d   1     -40.976  25.107   1.486  0.00  0.00    -0.274 OA
ATOM     16  H4  NON d   1     -40.214  22.161   2.231  0.00  0.00     0.169 HD
ENDBRANCH   7  12
ENDBRANCH   1   5
BRANCH   2  17
ATOM     17  C7  NON d   1     -41.678  18.866  -4.042  0.00  0.00     0.310 C 
ATOM     18  O3  NON d   1     -40.794  18.012  -4.039  0.00  0.00    -0.262 OA
ATOM     19  N3  NON d   1     -43.048  18.594  -4.409  0.00  0.00    -0.344 N 
ATOM     20  H7  NON d   1     -43.690  19.355  -4.224  0.00  0.00     0.163 HD
BRANCH  19  21
ATOM     21  C8  NON d   1     -43.660  17.168  -4.520  0.00  0.00     0.121 C 
ATOM     22  C9  NON d   1     -42.934  16.164  -5.435  0.00  0.00     0.038 C 
BRANCH  21  23
ATOM     23  C10 NON d   1     -45.149  16.993  -4.285  0.00  0.00     0.005 A 
ATOM     24  C11 NON d   1     -45.923  17.272  -3.172  0.00  0.00     0.018 A 
ATOM     25  C12 NON d   1     -47.264  16.765  -3.278  0.00  0.00     0.015 A 
ATOM     26  C13 NON d   1     -47.500  16.106  -4.470  0.00  0.00    -0.021 A 
ATOM     27  C14 NON d   1     -48.817  15.592  -5.083  0.00  0.00     0.056 C 
ATOM     28  S1  NON d   1     -46.083  16.076  -5.428  0.00  0.00    -0.098 SA
ENDBRANCH  21  23
ENDBRANCH  19  21
ENDBRANCH   2  17
TORSDOF 5
ENDMDL
