MODEL 1
REMARK VINA RESULT:   -33.658      0.000      0.000
REMARK INTER + INTRA:         -38.308
REMARK INTER:                 -36.641
REMARK INTRA:                  -1.667
REMARK CONF_INDEPENDENT:        2.983
REMARK UNBOUND:                -1.667
REMARK  10 active torsions:
REMARK  status: ('A' for Active; 'I' for Inactive)
REMARK    1  A    between atoms: C2_2  and  C3_3 
REMARK    2  A    between atoms: C3_3  and  C4_4 
REMARK    3  A    between atoms: C4_4  and  C5_5 
REMARK    4  A    between atoms: C5_5  and  C6_6 
REMARK    5  A    between atoms: C7_9  and  N3_10 
REMARK       I    between atoms: N3_10  and  C8_11 
REMARK    6  A    between atoms: C8_11  and  C9_13 
REMARK       I    between atoms: C9_13  and  N4_15 
REMARK    7  A    between atoms: N4_15  and  C10_16 
REMARK    8  A    between atoms: C10_16  and  C11_17 
REMARK    9  A    between atoms: C14_20  and  O3_21 
REMARK   10  A    between atoms: O3_21  and  C15_22 
ROOT
ATOM      1  C9  NON d   1     -45.539  16.620  -4.612  0.00  0.00     0.311 C 
ATOM      2  O2  NON d   1     -45.922  17.067  -3.539  0.00  0.00    -0.262 OA
ATOM      3  N4  NON d   1     -44.216  16.648  -5.036  0.00  0.00    -0.349 N 
ATOM      4  H12 NON d   1     -44.082  16.135  -5.903  0.00  0.00     0.163 HD
ENDROOT
BRANCH   1   5
ATOM      5  C8  NON d   1     -46.461  15.973  -5.689  0.00  0.00     0.337 C 
ATOM      6  N3  NON d   1     -47.678  16.505  -5.810  0.00  0.00    -0.177 NA
ATOM      7  O1  NON d   1     -45.945  15.129  -6.427  0.00  0.00    -0.260 OA
BRANCH   6   8
ATOM      8  C7  NON d   1     -48.565  16.182  -4.835  0.00  0.00     0.218 A 
ATOM      9  N2  NON d   1     -49.249  15.065  -4.658  0.00  0.00    -0.121 NA
ATOM     10  N1  NON d   1     -50.093  15.116  -3.554  0.00  0.00    -0.145 NA
ATOM     11  C6  NON d   1     -50.007  16.269  -2.919  0.00  0.00     0.101 A 
ATOM     12  S1  NON d   1     -48.909  17.379  -3.643  0.00  0.00    -0.031 SA
BRANCH  11  13
ATOM     13  C5  NON d   1     -50.821  16.698  -1.736  0.00  0.00     0.069 C 
BRANCH  13  14
ATOM     14  C4  NON d   1     -52.211  17.282  -2.033  0.00  0.00     0.007 C 
BRANCH  14  15
ATOM     15  C3  NON d   1     -52.949  17.908  -0.830  0.00  0.00     0.000 C 
BRANCH  15  16
ATOM     16  C2  NON d   1     -54.440  17.973  -1.086  0.00  0.00    -0.005 C 
ATOM     17  C1  NON d   1     -54.961  17.631  -2.495  0.00  0.00     0.005 C 
ENDBRANCH  15  16
ENDBRANCH  14  15
ENDBRANCH  13  14
ENDBRANCH  11  13
ENDBRANCH   6   8
ENDBRANCH   1   5
BRANCH   3  18
ATOM     18  C10 NON d   1     -43.171  16.701  -4.050  0.00  0.00     0.161 C 
BRANCH  18  19
ATOM     19  C11 NON d   1     -42.142  17.797  -4.215  0.00  0.00    -0.040 A 
ATOM     20  C12 NON d   1     -41.217  17.982  -3.171  0.00  0.00     0.011 A 
ATOM     21  C13 NON d   1     -40.315  19.047  -3.182  0.00  0.00     0.037 A 
ATOM     22  C14 NON d   1     -40.305  19.931  -4.255  0.00  0.00     0.074 A 
ATOM     23  C16 NON d   1     -41.195  19.753  -5.314  0.00  0.00     0.037 A 
ATOM     24  C17 NON d   1     -42.108  18.688  -5.296  0.00  0.00     0.011 A 
BRANCH  22  25
ATOM     25  O3  NON d   1     -39.528  21.050  -4.139  0.00  0.00    -0.290 OA
BRANCH  25  26
ATOM     26  C15 NON d   1     -40.178  22.229  -4.596  0.00  0.00     0.505 C 
ATOM     27  F1  NON d   1     -39.368  23.272  -4.279  0.00  0.00    -0.184 F 
ATOM     28  F2  NON d   1     -41.331  22.422  -3.911  0.00  0.00    -0.184 F 
ENDBRANCH  25  26
ENDBRANCH  22  25
ENDBRANCH  18  19
ENDBRANCH   3  18
TORSDOF 10
ENDMDL
MODEL 2
REMARK VINA RESULT:   -33.642      0.802      1.405
REMARK INTER + INTRA:         -38.175
REMARK INTER:                 -36.625
REMARK INTRA:                  -1.550
REMARK CONF_INDEPENDENT:        2.983
REMARK UNBOUND:                -1.550
REMARK  10 active torsions:
REMARK  status: ('A' for Active; 'I' for Inactive)
REMARK    1  A    between atoms: C2_2  and  C3_3 
REMARK    2  A    between atoms: C3_3  and  C4_4 
REMARK    3  A    between atoms: C4_4  and  C5_5 
REMARK    4  A    between atoms: C5_5  and  C6_6 
REMARK    5  A    between atoms: C7_9  and  N3_10 
REMARK       I    between atoms: N3_10  and  C8_11 
REMARK    6  A    between atoms: C8_11  and  C9_13 
REMARK       I    between atoms: C9_13  and  N4_15 
REMARK    7  A    between atoms: N4_15  and  C10_16 
REMARK    8  A    between atoms: C10_16  and  C11_17 
REMARK    9  A    between atoms: C14_20  and  O3_21 
REMARK   10  A    between atoms: O3_21  and  C15_22 
ROOT
ATOM      1  C9  NON d   1     -45.530  16.598  -4.617  0.00  0.00     0.311 C 
ATOM      2  O2  NON d   1     -45.919  17.097  -3.570  0.00  0.00    -0.262 OA
ATOM      3  N4  NON d   1     -44.195  16.538  -4.999  0.00  0.00    -0.349 N 
ATOM      4  H12 NON d   1     -44.065  15.993  -5.847  0.00  0.00     0.163 HD
ENDROOT
BRANCH   1   5
ATOM      5  C8  NON d   1     -46.455  15.972  -5.705  0.00  0.00     0.337 C 
ATOM      6  N3  NON d   1     -47.672  16.505  -5.810  0.00  0.00    -0.177 NA
ATOM      7  O1  NON d   1     -45.940  15.144  -6.461  0.00  0.00    -0.260 OA
BRANCH   6   8
ATOM      8  C7  NON d   1     -48.557  16.161  -4.839  0.00  0.00     0.218 A 
ATOM      9  N2  NON d   1     -49.271  15.057  -4.706  0.00  0.00    -0.121 NA
ATOM     10  N1  NON d   1     -50.099  15.079  -3.590  0.00  0.00    -0.145 NA
ATOM     11  C6  NON d   1     -49.970  16.196  -2.901  0.00  0.00     0.101 A 
ATOM     12  S1  NON d   1     -48.849  17.308  -3.586  0.00  0.00    -0.031 SA
BRANCH  11  13
ATOM     13  C5  NON d   1     -50.755  16.590  -1.686  0.00  0.00     0.069 C 
BRANCH  13  14
ATOM     14  C4  NON d   1     -52.113  17.267  -1.935  0.00  0.00     0.007 C 
BRANCH  14  15
ATOM     15  C3  NON d   1     -53.235  16.348  -2.466  0.00  0.00     0.000 C 
BRANCH  15  16
ATOM     16  C2  NON d   1     -54.565  17.072  -2.474  0.00  0.00    -0.005 C 
ATOM     17  C1  NON d   1     -54.803  18.188  -1.439  0.00  0.00     0.005 C 
ENDBRANCH  15  16
ENDBRANCH  14  15
ENDBRANCH  13  14
ENDBRANCH  11  13
ENDBRANCH   6   8
ENDBRANCH   1   5
BRANCH   3  18
ATOM     18  C10 NON d   1     -43.179  16.561  -3.983  0.00  0.00     0.161 C 
BRANCH  18  19
ATOM     19  C11 NON d   1     -42.176  17.691  -4.056  0.00  0.00    -0.040 A 
ATOM     20  C12 NON d   1     -41.974  18.301  -5.308  0.00  0.00     0.011 A 
ATOM     21  C13 NON d   1     -40.980  19.263  -5.492  0.00  0.00     0.037 A 
ATOM     22  C14 NON d   1     -40.188  19.652  -4.418  0.00  0.00     0.074 A 
ATOM     23  C16 NON d   1     -40.387  19.080  -3.161  0.00  0.00     0.037 A 
ATOM     24  C17 NON d   1     -41.380  18.105  -2.979  0.00  0.00     0.011 A 
BRANCH  22  25
ATOM     25  O3  NON d   1     -39.121  20.464  -4.685  0.00  0.00    -0.290 OA
BRANCH  25  26
ATOM     26  C15 NON d   1     -39.487  21.652  -5.375  0.00  0.00     0.505 C 
ATOM     27  F1  NON d   1     -40.835  21.775  -5.257  0.00  0.00    -0.184 F 
ATOM     28  F2  NON d   1     -39.232  21.522  -6.699  0.00  0.00    -0.184 F 
ENDBRANCH  25  26
ENDBRANCH  22  25
ENDBRANCH  18  19
ENDBRANCH   3  18
TORSDOF 10
ENDMDL
