MODEL 1
REMARK VINA RESULT:   -30.962      0.000      0.000
REMARK INTER + INTRA:         -35.012
REMARK INTER:                 -32.751
REMARK INTRA:                  -2.260
REMARK CONF_INDEPENDENT:        1.790
REMARK UNBOUND:                -2.260
REMARK  6 active torsions:
REMARK  status: ('A' for Active; 'I' for Inactive)
REMARK    1  A    between atoms: C1_2  and  C2_3 
REMARK       I    between atoms: C1_2  and  N2_13 
REMARK    2  A    between atoms: C2_3  and  C3_4 
REMARK    3  A    between atoms: N2_13  and  N3_14 
REMARK       I    between atoms: N3_14  and  C11_15 
REMARK    4  A    between atoms: C11_15  and  C12_17 
REMARK    5  A    between atoms: C12_17  and  C13_19 
REMARK    6  A    between atoms: N5_22  and  C15_23 
ROOT
ATOM      1  N3  NON d   1     -41.786  18.377  -4.695  0.00  0.00    -0.261 N 
ATOM      2  C11 NON d   1     -43.144  18.387  -4.939  0.00  0.00     0.311 C 
ATOM      3  O2  NON d   1     -43.697  19.166  -5.703  0.00  0.00    -0.262 OA
ATOM      4  H10 NON d   1     -41.357  17.729  -4.029  0.00  0.00     0.190 HD
ENDROOT
BRANCH   1   5
ATOM      5  N2  NON d   1     -40.960  19.288  -5.355  0.00  0.00    -0.267 N 
ATOM      6  C1  NON d   1     -39.591  19.221  -5.130  0.00  0.00     0.240 C 
ATOM      7  O1  NON d   1     -39.108  18.356  -4.404  0.00  0.00    -0.272 OA
ATOM      8  H9  NON d   1     -41.411  20.066  -5.833  0.00  0.00     0.190 HD
BRANCH   6   9
ATOM      9  C2  NON d   1     -38.838  20.334  -5.843  0.00  0.00     0.145 C 
BRANCH   9  10
ATOM     10  C3  NON d   1     -39.405  20.859  -7.129  0.00  0.00    -0.021 A 
ATOM     11  C4  NON d   1     -39.920  20.170  -8.210  0.00  0.00     0.097 A 
ATOM     12  N1  NON d   1     -40.311  21.072  -9.162  0.00  0.00    -0.365 N 
ATOM     13  C5  NON d   1     -40.082  22.354  -8.726  0.00  0.00     0.042 A 
ATOM     14  H4  NON d   1     -40.714  20.833 -10.058  0.00  0.00     0.165 HD
ATOM     15  C6  NON d   1     -40.329  23.580  -9.355  0.00  0.00     0.030 A 
ATOM     16  C10 NON d   1     -39.518  22.256  -7.454  0.00  0.00    -0.001 A 
ATOM     17  C7  NON d   1     -39.992  24.745  -8.661  0.00  0.00     0.002 A 
ATOM     18  C8  NON d   1     -39.429  24.683  -7.389  0.00  0.00     0.001 A 
ATOM     19  C9  NON d   1     -39.187  23.448  -6.775  0.00  0.00     0.014 A 
ENDBRANCH   9  10
ENDBRANCH   6   9
ENDBRANCH   1   5
BRANCH   2  20
ATOM     20  C12 NON d   1     -43.914  17.309  -4.157  0.00  0.00     0.253 C 
ATOM     21  O3  NON d   1     -43.307  16.752  -3.241  0.00  0.00    -0.281 OA
BRANCH  20  22
ATOM     22  C13 NON d   1     -45.285  16.958  -4.488  0.00  0.00     0.057 A 
ATOM     23  C14 NON d   1     -45.932  16.856  -5.732  0.00  0.00     0.156 A 
ATOM     24  N4  NON d   1     -47.214  16.505  -5.622  0.00  0.00    -0.179 NA
ATOM     25  N5  NON d   1     -47.427  16.365  -4.287  0.00  0.00    -0.244 N 
ATOM     26  C21 NON d   1     -46.277  16.639  -3.578  0.00  0.00     0.136 A 
BRANCH  25  27
ATOM     27  C15 NON d   1     -48.701  15.981  -3.784  0.00  0.00     0.058 A 
ATOM     28  C16 NON d   1     -49.202  14.703  -4.078  0.00  0.00     0.031 A 
ATOM     29  C17 NON d   1     -50.450  14.306  -3.592  0.00  0.00     0.002 A 
ATOM     30  C18 NON d   1     -51.204  15.178  -2.812  0.00  0.00     0.000 A 
ATOM     31  C19 NON d   1     -50.714  16.449  -2.515  0.00  0.00     0.002 A 
ATOM     32  C20 NON d   1     -49.466  16.855  -2.999  0.00  0.00     0.031 A 
ENDBRANCH  25  27
ENDBRANCH  20  22
ENDBRANCH   2  20
TORSDOF 6
ENDMDL
MODEL 2
REMARK VINA RESULT:   -30.792      3.372      4.234
REMARK INTER + INTRA:         -34.854
REMARK INTER:                 -32.581
REMARK INTRA:                  -2.273
REMARK CONF_INDEPENDENT:        1.790
REMARK UNBOUND:                -2.273
REMARK  6 active torsions:
REMARK  status: ('A' for Active; 'I' for Inactive)
REMARK    1  A    between atoms: C1_2  and  C2_3 
REMARK       I    between atoms: C1_2  and  N2_13 
REMARK    2  A    between atoms: C2_3  and  C3_4 
REMARK    3  A    between atoms: N2_13  and  N3_14 
REMARK       I    between atoms: N3_14  and  C11_15 
REMARK    4  A    between atoms: C11_15  and  C12_17 
REMARK    5  A    between atoms: C12_17  and  C13_19 
REMARK    6  A    between atoms: N5_22  and  C15_23 
ROOT
ATOM      1  N3  NON d   1     -42.091  18.943  -4.034  0.00  0.00    -0.261 N 
ATOM      2  C11 NON d   1     -43.298  18.676  -4.645  0.00  0.00     0.311 C 
ATOM      3  O2  NON d   1     -43.850  19.432  -5.432  0.00  0.00    -0.262 OA
ATOM      4  H10 NON d   1     -41.667  18.299  -3.360  0.00  0.00     0.190 HD
ENDROOT
BRANCH   1   5
ATOM      5  N2  NON d   1     -41.422  20.134  -4.319  0.00  0.00    -0.267 N 
ATOM      6  C1  NON d   1     -40.310  20.467  -3.555  0.00  0.00     0.240 C 
ATOM      7  O1  NON d   1     -39.893  19.713  -2.679  0.00  0.00    -0.272 OA
ATOM      8  H9  NON d   1     -41.880  20.786  -4.954  0.00  0.00     0.190 HD
BRANCH   6   9
ATOM      9  C2  NON d   1     -39.750  21.832  -3.922  0.00  0.00     0.145 C 
BRANCH   9  10
ATOM     10  C3  NON d   1     -40.271  23.030  -3.186  0.00  0.00    -0.021 A 
ATOM     11  C4  NON d   1     -40.659  24.263  -3.673  0.00  0.00     0.097 A 
ATOM     12  N1  NON d   1     -41.057  25.048  -2.624  0.00  0.00    -0.365 N 
ATOM     13  C5  NON d   1     -40.957  24.351  -1.444  0.00  0.00     0.042 A 
ATOM     14  H4  NON d   1     -41.380  26.002  -2.702  0.00  0.00     0.165 HD
ATOM     15  C6  NON d   1     -41.257  24.744  -0.135  0.00  0.00     0.030 A 
ATOM     16  C10 NON d   1     -40.471  23.083  -1.762  0.00  0.00    -0.001 A 
ATOM     17  C7  NON d   1     -41.058  23.810   0.885  0.00  0.00     0.002 A 
ATOM     18  C8  NON d   1     -40.576  22.534   0.603  0.00  0.00     0.001 A 
ATOM     19  C9  NON d   1     -40.279  22.158  -0.713  0.00  0.00     0.014 A 
ENDBRANCH   9  10
ENDBRANCH   6   9
ENDBRANCH   1   5
BRANCH   2  20
ATOM     20  C12 NON d   1     -43.896  17.315  -4.249  0.00  0.00     0.253 C 
ATOM     21  O3  NON d   1     -43.149  16.533  -3.659  0.00  0.00    -0.281 OA
BRANCH  20  22
ATOM     22  C13 NON d   1     -45.272  16.965  -4.563  0.00  0.00     0.057 A 
ATOM     23  C14 NON d   1     -45.931  16.851  -5.799  0.00  0.00     0.156 A 
ATOM     24  N4  NON d   1     -47.213  16.505  -5.672  0.00  0.00    -0.179 NA
ATOM     25  N5  NON d   1     -47.413  16.379  -4.335  0.00  0.00    -0.244 N 
ATOM     26  C21 NON d   1     -46.255  16.658  -3.640  0.00  0.00     0.136 A 
BRANCH  25  27
ATOM     27  C15 NON d   1     -48.683  16.004  -3.815  0.00  0.00     0.058 A 
ATOM     28  C16 NON d   1     -49.200  14.732  -4.109  0.00  0.00     0.031 A 
ATOM     29  C17 NON d   1     -50.444  14.344  -3.607  0.00  0.00     0.002 A 
ATOM     30  C18 NON d   1     -51.179  15.218  -2.810  0.00  0.00     0.000 A 
ATOM     31  C19 NON d   1     -50.672  16.482  -2.513  0.00  0.00     0.002 A 
ATOM     32  C20 NON d   1     -49.428  16.880  -3.012  0.00  0.00     0.031 A 
ENDBRANCH  25  27
ENDBRANCH  20  22
ENDBRANCH   2  20
TORSDOF 6
ENDMDL
MODEL 3
REMARK VINA RESULT:   -30.690      1.348      1.874
REMARK INTER + INTRA:         -34.741
REMARK INTER:                 -32.480
REMARK INTRA:                  -2.261
REMARK CONF_INDEPENDENT:        1.790
REMARK UNBOUND:                -2.261
REMARK  6 active torsions:
REMARK  status: ('A' for Active; 'I' for Inactive)
REMARK    1  A    between atoms: C1_2  and  C2_3 
REMARK       I    between atoms: C1_2  and  N2_13 
REMARK    2  A    between atoms: C2_3  and  C3_4 
REMARK    3  A    between atoms: N2_13  and  N3_14 
REMARK       I    between atoms: N3_14  and  C11_15 
REMARK    4  A    between atoms: C11_15  and  C12_17 
REMARK    5  A    between atoms: C12_17  and  C13_19 
REMARK    6  A    between atoms: N5_22  and  C15_23 
ROOT
ATOM      1  N3  NON d   1     -41.826  18.513  -4.567  0.00  0.00    -0.261 N 
ATOM      2  C11 NON d   1     -43.162  18.430  -4.904  0.00  0.00     0.311 C 
ATOM      3  O2  NON d   1     -43.717  19.180  -5.695  0.00  0.00    -0.262 OA
ATOM      4  H10 NON d   1     -41.397  17.886  -3.882  0.00  0.00     0.190 HD
ENDROOT
BRANCH   1   5
ATOM      5  N2  NON d   1     -41.027  19.493  -5.157  0.00  0.00    -0.267 N 
ATOM      6  C1  NON d   1     -39.681  19.540  -4.817  0.00  0.00     0.240 C 
ATOM      7  O1  NON d   1     -39.190  18.715  -4.051  0.00  0.00    -0.272 OA
ATOM      8  H9  NON d   1     -41.499  20.234  -5.674  0.00  0.00     0.190 HD
BRANCH   6   9
ATOM      9  C2  NON d   1     -38.966  20.716  -5.466  0.00  0.00     0.145 C 
BRANCH   9  10
ATOM     10  C3  NON d   1     -39.215  20.977  -6.922  0.00  0.00    -0.021 A 
ATOM     11  C4  NON d   1     -40.359  21.428  -7.552  0.00  0.00     0.097 A 
ATOM     12  N1  NON d   1     -40.120  21.506  -8.898  0.00  0.00    -0.365 N 
ATOM     13  C5  NON d   1     -38.828  21.131  -9.174  0.00  0.00     0.042 A 
ATOM     14  H4  NON d   1     -40.794  21.799  -9.591  0.00  0.00     0.165 HD
ATOM     15  C6  NON d   1     -38.149  21.062 -10.396  0.00  0.00     0.030 A 
ATOM     16  C10 NON d   1     -38.233  20.796  -7.958  0.00  0.00    -0.001 A 
ATOM     17  C7  NON d   1     -36.817  20.643 -10.376  0.00  0.00     0.002 A 
ATOM     18  C8  NON d   1     -36.191  20.304  -9.179  0.00  0.00     0.001 A 
ATOM     19  C9  NON d   1     -36.886  20.375  -7.965  0.00  0.00     0.014 A 
ENDBRANCH   9  10
ENDBRANCH   6   9
ENDBRANCH   1   5
BRANCH   2  20
ATOM     20  C12 NON d   1     -43.901  17.284  -4.191  0.00  0.00     0.253 C 
ATOM     21  O3  NON d   1     -43.267  16.665  -3.336  0.00  0.00    -0.281 OA
BRANCH  20  22
ATOM     22  C13 NON d   1     -45.277  16.944  -4.516  0.00  0.00     0.057 A 
ATOM     23  C14 NON d   1     -45.929  16.845  -5.758  0.00  0.00     0.156 A 
ATOM     24  N4  NON d   1     -47.213  16.505  -5.642  0.00  0.00    -0.179 NA
ATOM     25  N5  NON d   1     -47.422  16.368  -4.306  0.00  0.00    -0.244 N 
ATOM     26  C21 NON d   1     -46.267  16.635  -3.602  0.00  0.00     0.136 A 
BRANCH  25  27
ATOM     27  C15 NON d   1     -48.698  15.996  -3.798  0.00  0.00     0.058 A 
ATOM     28  C16 NON d   1     -49.195  14.709  -4.060  0.00  0.00     0.031 A 
ATOM     29  C17 NON d   1     -50.444  14.323  -3.568  0.00  0.00     0.002 A 
ATOM     30  C18 NON d   1     -51.203  15.213  -2.813  0.00  0.00     0.000 A 
ATOM     31  C19 NON d   1     -50.716  16.492  -2.548  0.00  0.00     0.002 A 
ATOM     32  C20 NON d   1     -49.467  16.888  -3.038  0.00  0.00     0.031 A 
ENDBRANCH  25  27
ENDBRANCH  20  22
ENDBRANCH   2  20
TORSDOF 6
ENDMDL
MODEL 4
REMARK VINA RESULT:   -30.610      1.189      2.003
REMARK INTER + INTRA:         -34.689
REMARK INTER:                 -32.400
REMARK INTRA:                  -2.289
REMARK CONF_INDEPENDENT:        1.790
REMARK UNBOUND:                -2.289
REMARK  6 active torsions:
REMARK  status: ('A' for Active; 'I' for Inactive)
REMARK    1  A    between atoms: C1_2  and  C2_3 
REMARK       I    between atoms: C1_2  and  N2_13 
REMARK    2  A    between atoms: C2_3  and  C3_4 
REMARK    3  A    between atoms: N2_13  and  N3_14 
REMARK       I    between atoms: N3_14  and  C11_15 
REMARK    4  A    between atoms: C11_15  and  C12_17 
REMARK    5  A    between atoms: C12_17  and  C13_19 
REMARK    6  A    between atoms: N5_22  and  C15_23 
ROOT
ATOM      1  N3  NON d   1     -42.110  18.878  -3.952  0.00  0.00    -0.261 N 
ATOM      2  C11 NON d   1     -43.258  18.580  -4.656  0.00  0.00     0.311 C 
ATOM      3  O2  NON d   1     -43.743  19.305  -5.515  0.00  0.00    -0.262 OA
ATOM      4  H10 NON d   1     -41.744  18.261  -3.221  0.00  0.00     0.190 HD
ENDROOT
BRANCH   1   5
ATOM      5  N2  NON d   1     -41.425  20.064  -4.219  0.00  0.00    -0.267 N 
ATOM      6  C1  NON d   1     -40.169  20.243  -3.653  0.00  0.00     0.240 C 
ATOM      7  O1  NON d   1     -39.649  19.364  -2.970  0.00  0.00    -0.272 OA
ATOM      8  H9  NON d   1     -41.947  20.813  -4.672  0.00  0.00     0.190 HD
BRANCH   6   9
ATOM      9  C2  NON d   1     -39.593  21.617  -3.959  0.00  0.00     0.145 C 
BRANCH   9  10
ATOM     10  C3  NON d   1     -39.707  22.134  -5.362  0.00  0.00    -0.021 A 
ATOM     11  C4  NON d   1     -39.731  23.437  -5.821  0.00  0.00     0.097 A 
ATOM     12  N1  NON d   1     -39.857  23.423  -7.184  0.00  0.00    -0.365 N 
ATOM     13  C5  NON d   1     -39.900  22.129  -7.644  0.00  0.00     0.042 A 
ATOM     14  H4  NON d   1     -39.909  24.243  -7.771  0.00  0.00     0.165 HD
ATOM     15  C6  NON d   1     -40.015  21.638  -8.950  0.00  0.00     0.030 A 
ATOM     16  C10 NON d   1     -39.805  21.298  -6.529  0.00  0.00    -0.001 A 
ATOM     17  C7  NON d   1     -40.030  20.252  -9.123  0.00  0.00     0.002 A 
ATOM     18  C8  NON d   1     -39.934  19.393  -8.032  0.00  0.00     0.001 A 
ATOM     19  C9  NON d   1     -39.822  19.901  -6.731  0.00  0.00     0.014 A 
ENDBRANCH   9  10
ENDBRANCH   6   9
ENDBRANCH   1   5
BRANCH   2  20
ATOM     20  C12 NON d   1     -43.882  17.229  -4.266  0.00  0.00     0.253 C 
ATOM     21  O3  NON d   1     -43.148  16.429  -3.685  0.00  0.00    -0.281 OA
BRANCH  20  22
ATOM     22  C13 NON d   1     -45.266  16.909  -4.577  0.00  0.00     0.057 A 
ATOM     23  C14 NON d   1     -45.936  16.832  -5.810  0.00  0.00     0.156 A 
ATOM     24  N4  NON d   1     -47.222  16.505  -5.681  0.00  0.00    -0.179 NA
ATOM     25  N5  NON d   1     -47.415  16.355  -4.345  0.00  0.00    -0.244 N 
ATOM     26  C21 NON d   1     -46.248  16.600  -3.653  0.00  0.00     0.136 A 
BRANCH  25  27
ATOM     27  C15 NON d   1     -48.688  15.991  -3.823  0.00  0.00     0.058 A 
ATOM     28  C16 NON d   1     -49.207  14.716  -4.099  0.00  0.00     0.031 A 
ATOM     29  C17 NON d   1     -50.454  14.339  -3.596  0.00  0.00     0.002 A 
ATOM     30  C18 NON d   1     -51.189  15.227  -2.814  0.00  0.00     0.000 A 
ATOM     31  C19 NON d   1     -50.680  16.494  -2.535  0.00  0.00     0.002 A 
ATOM     32  C20 NON d   1     -49.433  16.881  -3.036  0.00  0.00     0.031 A 
ENDBRANCH  25  27
ENDBRANCH  20  22
ENDBRANCH   2  20
TORSDOF 6
ENDMDL
MODEL 5
REMARK VINA RESULT:   -30.219      2.193      3.101
REMARK INTER + INTRA:         -34.400
REMARK INTER:                 -32.008
REMARK INTRA:                  -2.392
REMARK CONF_INDEPENDENT:        1.790
REMARK UNBOUND:                -2.392
REMARK  6 active torsions:
REMARK  status: ('A' for Active; 'I' for Inactive)
REMARK    1  A    between atoms: C1_2  and  C2_3 
REMARK       I    between atoms: C1_2  and  N2_13 
REMARK    2  A    between atoms: C2_3  and  C3_4 
REMARK    3  A    between atoms: N2_13  and  N3_14 
REMARK       I    between atoms: N3_14  and  C11_15 
REMARK    4  A    between atoms: C11_15  and  C12_17 
REMARK    5  A    between atoms: C12_17  and  C13_19 
REMARK    6  A    between atoms: N5_22  and  C15_23 
ROOT
ATOM      1  N3  NON d   1     -41.820  18.420  -4.695  0.00  0.00    -0.261 N 
ATOM      2  C11 NON d   1     -43.193  18.451  -4.825  0.00  0.00     0.311 C 
ATOM      3  O2  NON d   1     -43.812  19.369  -5.346  0.00  0.00    -0.262 OA
ATOM      4  H10 NON d   1     -41.335  17.648  -4.231  0.00  0.00     0.190 HD
ENDROOT
BRANCH   1   5
ATOM      5  N2  NON d   1     -41.057  19.478  -5.191  0.00  0.00    -0.267 N 
ATOM      6  C1  NON d   1     -39.677  19.426  -5.037  0.00  0.00     0.240 C 
ATOM      7  O1  NON d   1     -39.133  18.454  -4.519  0.00  0.00    -0.272 OA
ATOM      8  H9  NON d   1     -41.556  20.316  -5.485  0.00  0.00     0.190 HD
BRANCH   6   9
ATOM      9  C2  NON d   1     -38.996  20.688  -5.542  0.00  0.00     0.145 C 
BRANCH   9  10
ATOM     10  C3  NON d   1     -39.546  22.012  -5.101  0.00  0.00    -0.021 A 
ATOM     11  C4  NON d   1     -39.818  23.144  -5.845  0.00  0.00     0.097 A 
ATOM     12  N1  NON d   1     -40.302  24.115  -5.009  0.00  0.00    -0.365 N 
ATOM     13  C5  NON d   1     -40.375  23.642  -3.722  0.00  0.00     0.042 A 
ATOM     14  H4  NON d   1     -40.571  25.046  -5.296  0.00  0.00     0.165 HD
ATOM     15  C6  NON d   1     -40.810  24.274  -2.551  0.00  0.00     0.030 A 
ATOM     16  C10 NON d   1     -39.911  22.327  -3.745  0.00  0.00    -0.001 A 
ATOM     17  C7  NON d   1     -40.775  23.537  -1.365  0.00  0.00     0.002 A 
ATOM     18  C8  NON d   1     -40.321  22.221  -1.353  0.00  0.00     0.001 A 
ATOM     19  C9  NON d   1     -39.887  21.605  -2.533  0.00  0.00     0.014 A 
ENDBRANCH   9  10
ENDBRANCH   6   9
ENDBRANCH   1   5
BRANCH   2  20
ATOM     20  C12 NON d   1     -43.890  17.204  -4.254  0.00  0.00     0.253 C 
ATOM     21  O3  NON d   1     -43.214  16.481  -3.521  0.00  0.00    -0.281 OA
BRANCH  20  22
ATOM     22  C13 NON d   1     -45.273  16.889  -4.572  0.00  0.00     0.057 A 
ATOM     23  C14 NON d   1     -45.943  16.835  -5.807  0.00  0.00     0.156 A 
ATOM     24  N4  NON d   1     -47.229  16.505  -5.685  0.00  0.00    -0.179 NA
ATOM     25  N5  NON d   1     -47.422  16.330  -4.352  0.00  0.00    -0.244 N 
ATOM     26  C21 NON d   1     -46.255  16.562  -3.655  0.00  0.00     0.136 A 
BRANCH  25  27
ATOM     27  C15 NON d   1     -48.695  15.956  -3.838  0.00  0.00     0.058 A 
ATOM     28  C16 NON d   1     -49.433  16.881  -3.082  0.00  0.00     0.031 A 
ATOM     29  C17 NON d   1     -50.685  16.534  -2.570  0.00  0.00     0.002 A 
ATOM     30  C18 NON d   1     -51.210  15.267  -2.809  0.00  0.00     0.000 A 
ATOM     31  C19 NON d   1     -50.485  14.343  -3.559  0.00  0.00     0.002 A 
ATOM     32  C20 NON d   1     -49.229  14.681  -4.074  0.00  0.00     0.031 A 
ENDBRANCH  25  27
ENDBRANCH  20  22
ENDBRANCH   2  20
TORSDOF 6
ENDMDL
MODEL 6
REMARK VINA RESULT:   -29.729      2.796      3.529
REMARK INTER + INTRA:         -33.541
REMARK INTER:                 -31.518
REMARK INTRA:                  -2.023
REMARK CONF_INDEPENDENT:        1.790
REMARK UNBOUND:                -2.023
REMARK  6 active torsions:
REMARK  status: ('A' for Active; 'I' for Inactive)
REMARK    1  A    between atoms: C1_2  and  C2_3 
REMARK       I    between atoms: C1_2  and  N2_13 
REMARK    2  A    between atoms: C2_3  and  C3_4 
REMARK    3  A    between atoms: N2_13  and  N3_14 
REMARK       I    between atoms: N3_14  and  C11_15 
REMARK    4  A    between atoms: C11_15  and  C12_17 
REMARK    5  A    between atoms: C12_17  and  C13_19 
REMARK    6  A    between atoms: N5_22  and  C15_23 
ROOT
ATOM      1  N3  NON d   1     -41.971  18.730  -4.134  0.00  0.00    -0.261 N 
ATOM      2  C11 NON d   1     -43.192  18.495  -4.731  0.00  0.00     0.311 C 
ATOM      3  O2  NON d   1     -43.713  19.245  -5.546  0.00  0.00    -0.262 OA
ATOM      4  H10 NON d   1     -41.574  18.095  -3.437  0.00  0.00     0.190 HD
ENDROOT
BRANCH   1   5
ATOM      5  N2  NON d   1     -41.250  19.878  -4.469  0.00  0.00    -0.267 N 
ATOM      6  C1  NON d   1     -40.437  20.452  -3.500  0.00  0.00     0.240 C 
ATOM      7  O1  NON d   1     -40.316  19.943  -2.389  0.00  0.00    -0.272 OA
ATOM      8  H9  NON d   1     -41.485  20.338  -5.347  0.00  0.00     0.190 HD
BRANCH   6   9
ATOM      9  C2  NON d   1     -39.794  21.743  -3.983  0.00  0.00     0.145 C 
BRANCH   9  10
ATOM     10  C3  NON d   1     -39.723  22.897  -3.028  0.00  0.00    -0.021 A 
ATOM     11  C4  NON d   1     -39.114  22.981  -1.791  0.00  0.00     0.097 A 
ATOM     12  N1  NON d   1     -39.320  24.234  -1.280  0.00  0.00    -0.365 N 
ATOM     13  C5  NON d   1     -40.043  24.995  -2.166  0.00  0.00     0.042 A 
ATOM     14  H4  NON d   1     -38.988  24.557  -0.383  0.00  0.00     0.165 HD
ATOM     15  C6  NON d   1     -40.478  26.322  -2.071  0.00  0.00     0.030 A 
ATOM     16  C10 NON d   1     -40.309  24.189  -3.273  0.00  0.00    -0.001 A 
ATOM     17  C7  NON d   1     -41.204  26.846  -3.144  0.00  0.00     0.002 A 
ATOM     18  C8  NON d   1     -41.484  26.069  -4.265  0.00  0.00     0.001 A 
ATOM     19  C9  NON d   1     -41.044  24.742  -4.343  0.00  0.00     0.014 A 
ENDBRANCH   9  10
ENDBRANCH   6   9
ENDBRANCH   1   5
BRANCH   2  20
ATOM     20  C12 NON d   1     -43.850  17.179  -4.280  0.00  0.00     0.253 C 
ATOM     21  O3  NON d   1     -43.136  16.389  -3.662  0.00  0.00    -0.281 OA
BRANCH  20  22
ATOM     22  C13 NON d   1     -45.242  16.881  -4.575  0.00  0.00     0.057 A 
ATOM     23  C14 NON d   1     -45.926  16.810  -5.801  0.00  0.00     0.156 A 
ATOM     24  N4  NON d   1     -47.216  16.505  -5.658  0.00  0.00    -0.179 NA
ATOM     25  N5  NON d   1     -47.397  16.364  -4.319  0.00  0.00    -0.244 N 
ATOM     26  C21 NON d   1     -46.219  16.593  -3.640  0.00  0.00     0.136 A 
BRANCH  25  27
ATOM     27  C15 NON d   1     -48.671  16.024  -3.783  0.00  0.00     0.058 A 
ATOM     28  C16 NON d   1     -49.269  14.808  -4.148  0.00  0.00     0.031 A 
ATOM     29  C17 NON d   1     -50.518  14.454  -3.632  0.00  0.00     0.002 A 
ATOM     30  C18 NON d   1     -51.176  15.308  -2.750  0.00  0.00     0.000 A 
ATOM     31  C19 NON d   1     -50.588  16.517  -2.382  0.00  0.00     0.002 A 
ATOM     32  C20 NON d   1     -49.339  16.880  -2.895  0.00  0.00     0.031 A 
ENDBRANCH  25  27
ENDBRANCH  20  22
ENDBRANCH   2  20
TORSDOF 6
ENDMDL
MODEL 7
REMARK VINA RESULT:   -29.667      1.241      1.871
REMARK INTER + INTRA:         -33.596
REMARK INTER:                 -31.457
REMARK INTRA:                  -2.139
REMARK CONF_INDEPENDENT:        1.790
REMARK UNBOUND:                -2.139
REMARK  6 active torsions:
REMARK  status: ('A' for Active; 'I' for Inactive)
REMARK    1  A    between atoms: C1_2  and  C2_3 
REMARK       I    between atoms: C1_2  and  N2_13 
REMARK    2  A    between atoms: C2_3  and  C3_4 
REMARK    3  A    between atoms: N2_13  and  N3_14 
REMARK       I    between atoms: N3_14  and  C11_15 
REMARK    4  A    between atoms: C11_15  and  C12_17 
REMARK    5  A    between atoms: C12_17  and  C13_19 
REMARK    6  A    between atoms: N5_22  and  C15_23 
ROOT
ATOM      1  N3  NON d   1     -41.778  18.421  -4.420  0.00  0.00    -0.261 N 
ATOM      2  C11 NON d   1     -43.123  18.386  -4.727  0.00  0.00     0.311 C 
ATOM      3  O2  NON d   1     -43.689  19.219  -5.421  0.00  0.00    -0.262 OA
ATOM      4  H10 NON d   1     -41.339  17.722  -3.815  0.00  0.00     0.190 HD
ENDROOT
BRANCH   1   5
ATOM      5  N2  NON d   1     -40.982  19.450  -4.927  0.00  0.00    -0.267 N 
ATOM      6  C1  NON d   1     -39.604  19.274  -4.937  0.00  0.00     0.240 C 
ATOM      7  O1  NON d   1     -39.095  18.224  -4.553  0.00  0.00    -0.272 OA
ATOM      8  H9  NON d   1     -41.433  20.346  -5.103  0.00  0.00     0.190 HD
BRANCH   6   9
ATOM      9  C2  NON d   1     -38.872  20.513  -5.428  0.00  0.00     0.145 C 
BRANCH   9  10
ATOM     10  C3  NON d   1     -39.410  21.855  -5.032  0.00  0.00    -0.021 A 
ATOM     11  C4  NON d   1     -39.904  22.281  -3.814  0.00  0.00     0.097 A 
ATOM     12  N1  NON d   1     -40.292  23.589  -3.927  0.00  0.00    -0.365 N 
ATOM     13  C5  NON d   1     -40.048  24.049  -5.198  0.00  0.00     0.042 A 
ATOM     14  H4  NON d   1     -40.697  24.141  -3.184  0.00  0.00     0.165 HD
ATOM     15  C6  NON d   1     -40.275  25.310  -5.761  0.00  0.00     0.030 A 
ATOM     16  C10 NON d   1     -39.493  22.989  -5.914  0.00  0.00    -0.001 A 
ATOM     17  C7  NON d   1     -39.920  25.497  -7.100  0.00  0.00     0.002 A 
ATOM     18  C8  NON d   1     -39.361  24.460  -7.843  0.00  0.00     0.001 A 
ATOM     19  C9  NON d   1     -39.143  23.204  -7.265  0.00  0.00     0.014 A 
ENDBRANCH   9  10
ENDBRANCH   6   9
ENDBRANCH   1   5
BRANCH   2  20
ATOM     20  C12 NON d   1     -43.858  17.180  -4.117  0.00  0.00     0.253 C 
ATOM     21  O3  NON d   1     -43.216  16.481  -3.333  0.00  0.00    -0.281 OA
BRANCH  20  22
ATOM     22  C13 NON d   1     -45.238  16.875  -4.457  0.00  0.00     0.057 A 
ATOM     23  C14 NON d   1     -45.887  16.825  -5.703  0.00  0.00     0.156 A 
ATOM     24  N4  NON d   1     -47.178  16.505  -5.602  0.00  0.00    -0.179 NA
ATOM     25  N5  NON d   1     -47.394  16.332  -4.272  0.00  0.00    -0.244 N 
ATOM     26  C21 NON d   1     -46.237  16.556  -3.556  0.00  0.00     0.136 A 
BRANCH  25  27
ATOM     27  C15 NON d   1     -48.678  15.967  -3.779  0.00  0.00     0.058 A 
ATOM     28  C16 NON d   1     -49.178  14.682  -4.042  0.00  0.00     0.031 A 
ATOM     29  C17 NON d   1     -50.435  14.304  -3.566  0.00  0.00     0.002 A 
ATOM     30  C18 NON d   1     -51.200  15.201  -2.825  0.00  0.00     0.000 A 
ATOM     31  C19 NON d   1     -50.711  16.479  -2.559  0.00  0.00     0.002 A 
ATOM     32  C20 NON d   1     -49.454  16.867  -3.034  0.00  0.00     0.031 A 
ENDBRANCH  25  27
ENDBRANCH  20  22
ENDBRANCH   2  20
TORSDOF 6
ENDMDL
MODEL 8
REMARK VINA RESULT:   -29.455      3.330      4.440
REMARK INTER + INTRA:         -32.937
REMARK INTER:                 -31.245
REMARK INTRA:                  -1.692
REMARK CONF_INDEPENDENT:        1.790
REMARK UNBOUND:                -1.692
REMARK  6 active torsions:
REMARK  status: ('A' for Active; 'I' for Inactive)
REMARK    1  A    between atoms: C1_2  and  C2_3 
REMARK       I    between atoms: C1_2  and  N2_13 
REMARK    2  A    between atoms: C2_3  and  C3_4 
REMARK    3  A    between atoms: N2_13  and  N3_14 
REMARK       I    between atoms: N3_14  and  C11_15 
REMARK    4  A    between atoms: C11_15  and  C12_17 
REMARK    5  A    between atoms: C12_17  and  C13_19 
REMARK    6  A    between atoms: N5_22  and  C15_23 
ROOT
ATOM      1  N3  NON d   1     -42.573  19.121  -4.937  0.00  0.00    -0.261 N 
ATOM      2  C11 NON d   1     -42.976  18.049  -4.169  0.00  0.00     0.311 C 
ATOM      3  O2  NON d   1     -42.821  17.976  -2.958  0.00  0.00    -0.262 OA
ATOM      4  H10 NON d   1     -42.695  19.140  -5.954  0.00  0.00     0.190 HD
ENDROOT
BRANCH   1   5
ATOM      5  N2  NON d   1     -41.958  20.215  -4.325  0.00  0.00    -0.267 N 
ATOM      6  C1  NON d   1     -41.011  20.929  -5.048  0.00  0.00     0.240 C 
ATOM      7  O1  NON d   1     -40.748  20.639  -6.212  0.00  0.00    -0.272 OA
ATOM      8  H9  NON d   1     -42.104  20.333  -3.324  0.00  0.00     0.190 HD
BRANCH   6   9
ATOM      9  C2  NON d   1     -40.366  22.028  -4.217  0.00  0.00     0.145 C 
BRANCH   9  10
ATOM     10  C3  NON d   1     -40.072  21.743  -2.774  0.00  0.00    -0.021 A 
ATOM     11  C4  NON d   1     -39.537  20.610  -2.192  0.00  0.00     0.097 A 
ATOM     12  N1  NON d   1     -39.461  20.803  -0.839  0.00  0.00    -0.365 N 
ATOM     13  C5  NON d   1     -39.920  22.055  -0.510  0.00  0.00     0.042 A 
ATOM     14  H4  NON d   1     -39.114  20.125  -0.174  0.00  0.00     0.165 HD
ATOM     15  C6  NON d   1     -40.021  22.681   0.738  0.00  0.00     0.030 A 
ATOM     16  C10 NON d   1     -40.308  22.671  -1.700  0.00  0.00    -0.001 A 
ATOM     17  C7  NON d   1     -40.531  23.981   0.772  0.00  0.00     0.002 A 
ATOM     18  C8  NON d   1     -40.925  24.626  -0.398  0.00  0.00     0.001 A 
ATOM     19  C9  NON d   1     -40.820  23.984  -1.638  0.00  0.00     0.014 A 
ENDBRANCH   9  10
ENDBRANCH   6   9
ENDBRANCH   1   5
BRANCH   2  20
ATOM     20  C12 NON d   1     -43.659  16.936  -4.984  0.00  0.00     0.253 C 
ATOM     21  O3  NON d   1     -42.918  16.146  -5.569  0.00  0.00    -0.281 OA
BRANCH  20  22
ATOM     22  C13 NON d   1     -45.107  16.829  -5.066  0.00  0.00     0.057 A 
ATOM     23  C14 NON d   1     -45.988  17.095  -6.129  0.00  0.00     0.156 A 
ATOM     24  N4  NON d   1     -47.264  16.874  -5.810  0.00  0.00    -0.179 NA
ATOM     25  N5  NON d   1     -47.237  16.449  -4.521  0.00  0.00    -0.244 N 
ATOM     26  C21 NON d   1     -45.943  16.419  -4.044  0.00  0.00     0.136 A 
BRANCH  25  27
ATOM     27  C15 NON d   1     -48.435  16.103  -3.836  0.00  0.00     0.058 A 
ATOM     28  C16 NON d   1     -48.790  16.802  -2.671  0.00  0.00     0.031 A 
ATOM     29  C17 NON d   1     -49.963  16.480  -1.986  0.00  0.00     0.002 A 
ATOM     30  C18 NON d   1     -50.789  15.462  -2.456  0.00  0.00     0.000 A 
ATOM     31  C19 NON d   1     -50.445  14.764  -3.613  0.00  0.00     0.002 A 
ATOM     32  C20 NON d   1     -49.271  15.079  -4.304  0.00  0.00     0.031 A 
ENDBRANCH  25  27
ENDBRANCH  20  22
ENDBRANCH   2  20
TORSDOF 6
ENDMDL
