MODEL 1
REMARK VINA RESULT:   -32.419      0.000      0.000
REMARK INTER + INTRA:         -39.489
REMARK INTER:                 -36.596
REMARK INTRA:                  -2.894
REMARK CONF_INDEPENDENT:        4.176
REMARK UNBOUND:                -2.894
REMARK  14 active torsions:
REMARK  status: ('A' for Active; 'I' for Inactive)
REMARK    1  A    between atoms: O1_2  and  C2_3 
REMARK    2  A    between atoms: C5_6  and  S1_7 
REMARK    3  A    between atoms: S1_7  and  N1_10 
REMARK    4  A    between atoms: N1_10  and  C6_11 
REMARK    5  A    between atoms: C6_11  and  C7_12 
REMARK    6  A    between atoms: C7_12  and  C8_13 
REMARK    7  A    between atoms: C8_13  and  O5_15 
REMARK    8  A    between atoms: C9_16  and  O5_15 
REMARK    9  A    between atoms: C9_16  and  C11_18 
REMARK       I    between atoms: C11_18  and  N2_20 
REMARK   10  A    between atoms: N2_20  and  C12_21 
REMARK   11  A    between atoms: C12_21  and  C13_22 
REMARK   12  A    between atoms: C13_22  and  C14_23 
REMARK   13  A    between atoms: C17_26  and  S2_27 
REMARK   14  A    between atoms: S2_27  and  N3_28 
ROOT
ATOM      1  C9  NON d   1     -38.691  19.765  -7.293  0.00  0.00     0.219 C 
ATOM      2  C10 NON d   1     -37.636  18.660  -7.102  0.00  0.00     0.050 C 
ENDROOT
BRANCH   1   3
ATOM      3  O5  NON d   1     -38.508  21.160  -8.162  0.00  0.00    -0.307 OA
BRANCH   3   4
ATOM      4  C8  NON d   1     -38.943  22.394  -7.587  0.00  0.00     0.260 C 
ATOM      5  O4  NON d   1     -40.138  22.701  -7.576  0.00  0.00    -0.265 OA
BRANCH   4   6
ATOM      6  C7  NON d   1     -37.840  23.436  -7.046  0.00  0.00     0.126 C 
BRANCH   6   7
ATOM      7  C6  NON d   1     -38.382  24.656  -6.134  0.00  0.00     0.114 C 
BRANCH   7   8
ATOM      8  N1  NON d   1     -39.938  24.753  -5.652  0.00  0.00    -0.215 NA
ATOM      9  H6  NON d   1     -40.507  24.064  -6.145  0.00  0.00     0.139 HD
BRANCH   8  10
ATOM     10  S1  NON d   1     -40.206  24.721  -4.136  0.00  0.00     0.241 S 
ATOM     11  O2  NON d   1     -40.787  23.387  -4.339  0.00  0.00    -0.206 OA
ATOM     12  O3  NON d   1     -41.053  25.907  -4.328  0.00  0.00    -0.206 OA
BRANCH  10  13
ATOM     13  C5  NON d   1     -40.474  24.690  -2.620  0.00  0.00     0.074 A 
ATOM     14  C4  NON d   1     -40.070  25.623  -1.607  0.00  0.00     0.027 A 
ATOM     15  C3  NON d   1     -40.342  25.555  -0.133  0.00  0.00     0.038 A 
ATOM     16  C2  NON d   1     -41.064  24.532   0.508  0.00  0.00     0.068 A 
ATOM     17  C21 NON d   1     -41.471  23.568  -0.423  0.00  0.00     0.038 A 
ATOM     18  C20 NON d   1     -41.171  23.648  -1.905  0.00  0.00     0.027 A 
BRANCH  16  19
ATOM     19  O1  NON d   1     -41.278  24.596   1.929  0.00  0.00    -0.356 OA
ATOM     20  C1  NON d   1     -40.126  25.190   2.762  0.00  0.00     0.210 C 
ENDBRANCH  16  19
ENDBRANCH  10  13
ENDBRANCH   8  10
ENDBRANCH   7   8
ENDBRANCH   6   7
ENDBRANCH   4   6
ENDBRANCH   3   4
ENDBRANCH   1   3
BRANCH   1  21
ATOM     21  C11 NON d   1     -39.946  19.795  -6.400  0.00  0.00     0.246 C 
ATOM     22  O6  NON d   1     -40.743  18.851  -6.459  0.00  0.00    -0.271 OA
ATOM     23  N2  NON d   1     -40.175  20.836  -5.529  0.00  0.00    -0.359 N 
ATOM     24  H15 NON d   1     -39.697  21.720  -5.644  0.00  0.00     0.162 HD
BRANCH  23  25
ATOM     25  C12 NON d   1     -41.398  20.806  -4.730  0.00  0.00     0.127 C 
BRANCH  25  26
ATOM     26  C13 NON d   1     -41.602  19.516  -3.929  0.00  0.00     0.058 C 
BRANCH  26  27
ATOM     27  C14 NON d   1     -42.746  18.617  -4.373  0.00  0.00    -0.057 A 
ATOM     28  C15 NON d   1     -42.697  17.257  -4.019  0.00  0.00     0.009 A 
ATOM     29  C16 NON d   1     -43.744  16.386  -4.345  0.00  0.00     0.025 A 
ATOM     30  C17 NON d   1     -44.849  16.868  -5.047  0.00  0.00     0.074 A 
ATOM     31  C18 NON d   1     -44.905  18.207  -5.434  0.00  0.00     0.025 A 
ATOM     32  C19 NON d   1     -43.854  19.072  -5.104  0.00  0.00     0.009 A 
BRANCH  30  33
ATOM     33  S2  NON d   1     -46.242  15.809  -5.322  0.00  0.00     0.239 S 
ATOM     34  O7  NON d   1     -46.691  15.271  -4.059  0.00  0.00    -0.206 OA
ATOM     35  O8  NON d   1     -45.976  14.966  -6.466  0.00  0.00    -0.206 OA
BRANCH  33  36
ATOM     36  N3  NON d   1     -47.439  16.880  -5.810  0.00  0.00    -0.225 NA
ATOM     37  H22 NON d   1     -47.446  16.939  -6.829  0.00  0.00     0.136 HD
ATOM     38  H23 NON d   1     -47.303  17.778  -5.346  0.00  0.00     0.136 HD
ENDBRANCH  33  36
ENDBRANCH  30  33
ENDBRANCH  26  27
ENDBRANCH  25  26
ENDBRANCH  23  25
ENDBRANCH   1  21
TORSDOF 14
ENDMDL
MODEL 2
REMARK VINA RESULT:   -32.405      1.723      5.505
REMARK INTER + INTRA:         -38.440
REMARK INTER:                 -36.581
REMARK INTRA:                  -1.859
REMARK CONF_INDEPENDENT:        4.176
REMARK UNBOUND:                -1.859
REMARK  14 active torsions:
REMARK  status: ('A' for Active; 'I' for Inactive)
REMARK    1  A    between atoms: O1_2  and  C2_3 
REMARK    2  A    between atoms: C5_6  and  S1_7 
REMARK    3  A    between atoms: S1_7  and  N1_10 
REMARK    4  A    between atoms: N1_10  and  C6_11 
REMARK    5  A    between atoms: C6_11  and  C7_12 
REMARK    6  A    between atoms: C7_12  and  C8_13 
REMARK    7  A    between atoms: C8_13  and  O5_15 
REMARK    8  A    between atoms: C9_16  and  O5_15 
REMARK    9  A    between atoms: C9_16  and  C11_18 
REMARK       I    between atoms: C11_18  and  N2_20 
REMARK   10  A    between atoms: N2_20  and  C12_21 
REMARK   11  A    between atoms: C12_21  and  C13_22 
REMARK   12  A    between atoms: C13_22  and  C14_23 
REMARK   13  A    between atoms: C17_26  and  S2_27 
REMARK   14  A    between atoms: S2_27  and  N3_28 
ROOT
ATOM      1  C9  NON d   1     -39.598  21.641  -1.207  0.00  0.00     0.219 C 
ATOM      2  C10 NON d   1     -40.073  21.210   0.193  0.00  0.00     0.050 C 
ENDROOT
BRANCH   1   3
ATOM      3  O5  NON d   1     -39.003  23.124  -1.631  0.00  0.00    -0.307 OA
BRANCH   3   4
ATOM      4  C8  NON d   1     -39.733  24.294  -1.258  0.00  0.00     0.260 C 
ATOM      5  O4  NON d   1     -39.355  25.004  -0.322  0.00  0.00    -0.265 OA
BRANCH   4   6
ATOM      6  C7  NON d   1     -41.121  24.622  -2.007  0.00  0.00     0.126 C 
BRANCH   6   7
ATOM      7  C6  NON d   1     -41.021  25.486  -3.370  0.00  0.00     0.114 C 
BRANCH   7   8
ATOM      8  N1  NON d   1     -39.726  25.398  -4.359  0.00  0.00    -0.215 NA
ATOM      9  H6  NON d   1     -38.875  25.642  -3.854  0.00  0.00     0.139 HD
BRANCH   8  10
ATOM     10  S1  NON d   1     -39.548  24.098  -5.167  0.00  0.00     0.241 S 
ATOM     11  O2  NON d   1     -39.322  24.947  -6.345  0.00  0.00    -0.206 OA
ATOM     12  O3  NON d   1     -40.926  23.753  -4.788  0.00  0.00    -0.206 OA
BRANCH  10  13
ATOM     13  C5  NON d   1     -39.371  22.799  -5.974  0.00  0.00     0.074 A 
ATOM     14  C4  NON d   1     -38.332  21.814  -5.891  0.00  0.00     0.027 A 
ATOM     15  C3  NON d   1     -38.186  20.560  -6.703  0.00  0.00     0.038 A 
ATOM     16  C2  NON d   1     -39.080  20.140  -7.705  0.00  0.00     0.068 A 
ATOM     17  C21 NON d   1     -40.112  21.072  -7.857  0.00  0.00     0.038 A 
ATOM     18  C20 NON d   1     -40.231  22.340  -7.037  0.00  0.00     0.027 A 
BRANCH  16  19
ATOM     19  O1  NON d   1     -38.840  18.901  -8.397  0.00  0.00    -0.356 OA
ATOM     20  C1  NON d   1     -37.444  18.278  -8.208  0.00  0.00     0.210 C 
ENDBRANCH  16  19
ENDBRANCH  10  13
ENDBRANCH   8  10
ENDBRANCH   7   8
ENDBRANCH   6   7
ENDBRANCH   4   6
ENDBRANCH   3   4
ENDBRANCH   1   3
BRANCH   1  21
ATOM     21  C11 NON d   1     -39.939  20.777  -2.436  0.00  0.00     0.246 C 
ATOM     22  O6  NON d   1     -40.312  21.335  -3.474  0.00  0.00    -0.271 OA
ATOM     23  N2  NON d   1     -39.811  19.406  -2.398  0.00  0.00    -0.359 N 
ATOM     24  H15 NON d   1     -39.766  18.915  -1.514  0.00  0.00     0.162 HD
BRANCH  23  25
ATOM     25  C12 NON d   1     -40.174  18.650  -3.595  0.00  0.00     0.127 C 
BRANCH  25  26
ATOM     26  C13 NON d   1     -41.352  19.233  -4.381  0.00  0.00     0.058 C 
BRANCH  26  27
ATOM     27  C14 NON d   1     -42.577  18.343  -4.527  0.00  0.00    -0.057 A 
ATOM     28  C15 NON d   1     -43.751  18.908  -5.054  0.00  0.00     0.009 A 
ATOM     29  C16 NON d   1     -44.896  18.132  -5.269  0.00  0.00     0.025 A 
ATOM     30  C17 NON d   1     -44.881  16.776  -4.941  0.00  0.00     0.074 A 
ATOM     31  C18 NON d   1     -43.737  16.200  -4.389  0.00  0.00     0.025 A 
ATOM     32  C19 NON d   1     -42.595  16.983  -4.176  0.00  0.00     0.009 A 
BRANCH  30  33
ATOM     33  S2  NON d   1     -46.271  15.759  -5.357  0.00  0.00     0.239 S 
ATOM     34  O7  NON d   1     -46.779  15.130  -4.160  0.00  0.00    -0.206 OA
ATOM     35  O8  NON d   1     -45.963  15.005  -6.551  0.00  0.00    -0.206 OA
BRANCH  33  36
ATOM     36  N3  NON d   1     -47.436  16.880  -5.810  0.00  0.00    -0.225 NA
ATOM     37  H22 NON d   1     -47.172  17.301  -6.701  0.00  0.00     0.136 HD
ATOM     38  H23 NON d   1     -47.568  17.557  -5.058  0.00  0.00     0.136 HD
ENDBRANCH  33  36
ENDBRANCH  30  33
ENDBRANCH  26  27
ENDBRANCH  25  26
ENDBRANCH  23  25
ENDBRANCH   1  21
TORSDOF 14
ENDMDL
MODEL 3
REMARK VINA RESULT:   -32.138      2.422      5.094
REMARK INTER + INTRA:         -38.315
REMARK INTER:                 -36.314
REMARK INTRA:                  -2.001
REMARK CONF_INDEPENDENT:        4.176
REMARK UNBOUND:                -2.001
REMARK  14 active torsions:
REMARK  status: ('A' for Active; 'I' for Inactive)
REMARK    1  A    between atoms: O1_2  and  C2_3 
REMARK    2  A    between atoms: C5_6  and  S1_7 
REMARK    3  A    between atoms: S1_7  and  N1_10 
REMARK    4  A    between atoms: N1_10  and  C6_11 
REMARK    5  A    between atoms: C6_11  and  C7_12 
REMARK    6  A    between atoms: C7_12  and  C8_13 
REMARK    7  A    between atoms: C8_13  and  O5_15 
REMARK    8  A    between atoms: C9_16  and  O5_15 
REMARK    9  A    between atoms: C9_16  and  C11_18 
REMARK       I    between atoms: C11_18  and  N2_20 
REMARK   10  A    between atoms: N2_20  and  C12_21 
REMARK   11  A    between atoms: C12_21  and  C13_22 
REMARK   12  A    between atoms: C13_22  and  C14_23 
REMARK   13  A    between atoms: C17_26  and  S2_27 
REMARK   14  A    between atoms: S2_27  and  N3_28 
ROOT
ATOM      1  C9  NON d   1     -38.463  20.756  -1.541  0.00  0.00     0.219 C 
ATOM      2  C10 NON d   1     -37.137  20.150  -1.045  0.00  0.00     0.050 C 
ENDROOT
BRANCH   1   3
ATOM      3  O5  NON d   1     -39.184  22.135  -0.983  0.00  0.00    -0.307 OA
BRANCH   3   4
ATOM      4  C8  NON d   1     -39.548  22.216   0.396  0.00  0.00     0.260 C 
ATOM      5  O4  NON d   1     -38.846  21.696   1.267  0.00  0.00    -0.265 OA
BRANCH   4   6
ATOM      6  C7  NON d   1     -40.949  22.903   0.795  0.00  0.00     0.126 C 
BRANCH   6   7
ATOM      7  C6  NON d   1     -40.982  24.520   0.815  0.00  0.00     0.114 C 
BRANCH   7   8
ATOM      8  N1  NON d   1     -41.360  25.395  -0.509  0.00  0.00    -0.215 NA
ATOM      9  H6  NON d   1     -41.053  26.361  -0.396  0.00  0.00     0.139 HD
BRANCH   8  10
ATOM     10  S1  NON d   1     -40.930  24.824  -1.873  0.00  0.00     0.241 S 
ATOM     11  O2  NON d   1     -41.832  23.696  -1.604  0.00  0.00    -0.206 OA
ATOM     12  O3  NON d   1     -39.557  24.783  -1.348  0.00  0.00    -0.206 OA
BRANCH  10  13
ATOM     13  C5  NON d   1     -40.499  24.252  -3.236  0.00  0.00     0.074 A 
ATOM     14  C4  NON d   1     -40.185  22.900  -3.596  0.00  0.00     0.027 A 
ATOM     15  C3  NON d   1     -39.758  22.380  -4.938  0.00  0.00     0.038 A 
ATOM     16  C2  NON d   1     -39.597  23.166  -6.093  0.00  0.00     0.068 A 
ATOM     17  C21 NON d   1     -39.865  24.509  -5.808  0.00  0.00     0.038 A 
ATOM     18  C20 NON d   1     -40.279  25.016  -4.441  0.00  0.00     0.027 A 
BRANCH  16  19
ATOM     19  O1  NON d   1     -39.205  22.541  -7.328  0.00  0.00    -0.356 OA
ATOM     20  C1  NON d   1     -40.155  21.456  -7.870  0.00  0.00     0.210 C 
ENDBRANCH  16  19
ENDBRANCH  10  13
ENDBRANCH   8  10
ENDBRANCH   7   8
ENDBRANCH   6   7
ENDBRANCH   4   6
ENDBRANCH   3   4
ENDBRANCH   1   3
BRANCH   1  21
ATOM     21  C11 NON d   1     -39.408  19.921  -2.426  0.00  0.00     0.246 C 
ATOM     22  O6  NON d   1     -40.481  19.531  -1.951  0.00  0.00    -0.271 OA
ATOM     23  N2  NON d   1     -39.085  19.630  -3.733  0.00  0.00    -0.359 N 
ATOM     24  H15 NON d   1     -38.131  19.704  -4.058  0.00  0.00     0.162 HD
BRANCH  23  25
ATOM     25  C12 NON d   1     -40.021  18.814  -4.505  0.00  0.00     0.127 C 
BRANCH  25  26
ATOM     26  C13 NON d   1     -41.388  19.466  -4.740  0.00  0.00     0.058 C 
BRANCH  26  27
ATOM     27  C14 NON d   1     -42.585  18.529  -4.787  0.00  0.00    -0.057 A 
ATOM     28  C15 NON d   1     -43.818  19.048  -5.222  0.00  0.00     0.009 A 
ATOM     29  C16 NON d   1     -44.946  18.228  -5.345  0.00  0.00     0.025 A 
ATOM     30  C17 NON d   1     -44.855  16.875  -5.016  0.00  0.00     0.074 A 
ATOM     31  C18 NON d   1     -43.650  16.346  -4.554  0.00  0.00     0.025 A 
ATOM     32  C19 NON d   1     -42.525  17.172  -4.433  0.00  0.00     0.009 A 
BRANCH  30  33
ATOM     33  S2  NON d   1     -46.234  15.805  -5.319  0.00  0.00     0.239 S 
ATOM     34  O7  NON d   1     -46.692  15.248  -4.068  0.00  0.00    -0.206 OA
ATOM     35  O8  NON d   1     -45.945  14.979  -6.470  0.00  0.00    -0.206 OA
BRANCH  33  36
ATOM     36  N3  NON d   1     -47.436  16.870  -5.810  0.00  0.00    -0.225 NA
ATOM     37  H22 NON d   1     -47.432  16.940  -6.828  0.00  0.00     0.136 HD
ATOM     38  H23 NON d   1     -47.313  17.764  -5.335  0.00  0.00     0.136 HD
ENDBRANCH  33  36
ENDBRANCH  30  33
ENDBRANCH  26  27
ENDBRANCH  25  26
ENDBRANCH  23  25
ENDBRANCH   1  21
TORSDOF 14
ENDMDL
MODEL 4
REMARK VINA RESULT:   -31.925      3.947      7.451
REMARK INTER + INTRA:         -38.244
REMARK INTER:                 -36.102
REMARK INTRA:                  -2.142
REMARK CONF_INDEPENDENT:        4.176
REMARK UNBOUND:                -2.142
REMARK  14 active torsions:
REMARK  status: ('A' for Active; 'I' for Inactive)
REMARK    1  A    between atoms: O1_2  and  C2_3 
REMARK    2  A    between atoms: C5_6  and  S1_7 
REMARK    3  A    between atoms: S1_7  and  N1_10 
REMARK    4  A    between atoms: N1_10  and  C6_11 
REMARK    5  A    between atoms: C6_11  and  C7_12 
REMARK    6  A    between atoms: C7_12  and  C8_13 
REMARK    7  A    between atoms: C8_13  and  O5_15 
REMARK    8  A    between atoms: C9_16  and  O5_15 
REMARK    9  A    between atoms: C9_16  and  C11_18 
REMARK       I    between atoms: C11_18  and  N2_20 
REMARK   10  A    between atoms: N2_20  and  C12_21 
REMARK   11  A    between atoms: C12_21  and  C13_22 
REMARK   12  A    between atoms: C13_22  and  C14_23 
REMARK   13  A    between atoms: C17_26  and  S2_27 
REMARK   14  A    between atoms: S2_27  and  N3_28 
ROOT
ATOM      1  C9  NON d   1     -39.757  21.790  -6.132  0.00  0.00     0.219 C 
ATOM      2  C10 NON d   1     -39.070  23.162  -6.258  0.00  0.00     0.050 C 
ENDROOT
BRANCH   1   3
ATOM      3  O5  NON d   1     -40.308  20.848  -7.374  0.00  0.00    -0.307 OA
BRANCH   3   4
ATOM      4  C8  NON d   1     -39.697  19.577  -7.601  0.00  0.00     0.260 C 
ATOM      5  O4  NON d   1     -40.183  18.547  -7.127  0.00  0.00    -0.265 OA
BRANCH   4   6
ATOM      6  C7  NON d   1     -38.299  19.514  -8.400  0.00  0.00     0.126 C 
BRANCH   6   7
ATOM      7  C6  NON d   1     -38.161  20.472  -9.695  0.00  0.00     0.114 C 
BRANCH   7   8
ATOM      8  N1  NON d   1     -38.328  22.092  -9.595  0.00  0.00    -0.215 NA
ATOM      9  H6  NON d   1     -37.438  22.528  -9.354  0.00  0.00     0.139 HD
BRANCH   8  10
ATOM     10  S1  NON d   1     -38.996  22.803 -10.788  0.00  0.00     0.241 S 
ATOM     11  O2  NON d   1     -37.840  23.710 -10.802  0.00  0.00    -0.206 OA
ATOM     12  O3  NON d   1     -40.125  23.098  -9.894  0.00  0.00    -0.206 OA
BRANCH  10  13
ATOM     13  C5  NON d   1     -39.665  23.513 -11.979  0.00  0.00     0.074 A 
ATOM     14  C4  NON d   1     -39.295  23.506 -13.365  0.00  0.00     0.027 A 
ATOM     15  C3  NON d   1     -39.967  24.220 -14.501  0.00  0.00     0.038 A 
ATOM     16  C2  NON d   1     -41.107  25.035 -14.379  0.00  0.00     0.068 A 
ATOM     17  C21 NON d   1     -41.511  25.108 -13.041  0.00  0.00     0.038 A 
ATOM     18  C20 NON d   1     -40.808  24.391 -11.907  0.00  0.00     0.027 A 
BRANCH  16  19
ATOM     19  O1  NON d   1     -41.671  25.647 -15.552  0.00  0.00    -0.356 OA
ATOM     20  C1  NON d   1     -42.617  26.838 -15.308  0.00  0.00     0.210 C 
ENDBRANCH  16  19
ENDBRANCH  10  13
ENDBRANCH   8  10
ENDBRANCH   7   8
ENDBRANCH   6   7
ENDBRANCH   4   6
ENDBRANCH   3   4
ENDBRANCH   1   3
BRANCH   1  21
ATOM     21  C11 NON d   1     -40.274  21.311  -4.762  0.00  0.00     0.246 C 
ATOM     22  O6  NON d   1     -40.385  22.132  -3.845  0.00  0.00    -0.271 OA
ATOM     23  N2  NON d   1     -40.634  19.997  -4.559  0.00  0.00    -0.359 N 
ATOM     24  H15 NON d   1     -40.315  19.271  -5.187  0.00  0.00     0.162 HD
BRANCH  23  25
ATOM     25  C12 NON d   1     -41.095  19.611  -3.227  0.00  0.00     0.127 C 
BRANCH  25  26
ATOM     26  C13 NON d   1     -41.352  18.110  -3.054  0.00  0.00     0.058 C 
BRANCH  26  27
ATOM     27  C14 NON d   1     -42.664  17.579  -3.611  0.00  0.00    -0.057 A 
ATOM     28  C15 NON d   1     -42.654  16.988  -4.886  0.00  0.00     0.009 A 
ATOM     29  C16 NON d   1     -43.814  16.427  -5.434  0.00  0.00     0.025 A 
ATOM     30  C17 NON d   1     -45.008  16.468  -4.712  0.00  0.00     0.074 A 
ATOM     31  C18 NON d   1     -45.047  17.076  -3.457  0.00  0.00     0.025 A 
ATOM     32  C19 NON d   1     -43.883  17.635  -2.915  0.00  0.00     0.009 A 
BRANCH  30  33
ATOM     33  S2  NON d   1     -46.436  15.622  -5.331  0.00  0.00     0.239 S 
ATOM     34  O7  NON d   1     -47.119  14.972  -4.237  0.00  0.00    -0.206 OA
ATOM     35  O8  NON d   1     -46.079  14.919  -6.543  0.00  0.00    -0.206 OA
BRANCH  33  36
ATOM     36  N3  NON d   1     -47.439  16.880  -5.810  0.00  0.00    -0.225 NA
ATOM     37  H22 NON d   1     -47.221  17.141  -6.772  0.00  0.00     0.136 HD
ATOM     38  H23 NON d   1     -47.360  17.651  -5.146  0.00  0.00     0.136 HD
ENDBRANCH  33  36
ENDBRANCH  30  33
ENDBRANCH  26  27
ENDBRANCH  25  26
ENDBRANCH  23  25
ENDBRANCH   1  21
TORSDOF 14
ENDMDL
MODEL 5
REMARK VINA RESULT:   -31.633      1.829      2.629
REMARK INTER + INTRA:         -39.429
REMARK INTER:                 -35.809
REMARK INTRA:                  -3.620
REMARK CONF_INDEPENDENT:        4.176
REMARK UNBOUND:                -3.620
REMARK  14 active torsions:
REMARK  status: ('A' for Active; 'I' for Inactive)
REMARK    1  A    between atoms: O1_2  and  C2_3 
REMARK    2  A    between atoms: C5_6  and  S1_7 
REMARK    3  A    between atoms: S1_7  and  N1_10 
REMARK    4  A    between atoms: N1_10  and  C6_11 
REMARK    5  A    between atoms: C6_11  and  C7_12 
REMARK    6  A    between atoms: C7_12  and  C8_13 
REMARK    7  A    between atoms: C8_13  and  O5_15 
REMARK    8  A    between atoms: C9_16  and  O5_15 
REMARK    9  A    between atoms: C9_16  and  C11_18 
REMARK       I    between atoms: C11_18  and  N2_20 
REMARK   10  A    between atoms: N2_20  and  C12_21 
REMARK   11  A    between atoms: C12_21  and  C13_22 
REMARK   12  A    between atoms: C13_22  and  C14_23 
REMARK   13  A    between atoms: C17_26  and  S2_27 
REMARK   14  A    between atoms: S2_27  and  N3_28 
ROOT
ATOM      1  C9  NON d   1     -38.972  21.070  -8.752  0.00  0.00     0.219 C 
ATOM      2  C10 NON d   1     -39.048  21.871 -10.065  0.00  0.00     0.050 C 
ENDROOT
BRANCH   1   3
ATOM      3  O5  NON d   1     -37.750  20.056  -8.288  0.00  0.00    -0.307 OA
BRANCH   3   4
ATOM      4  C8  NON d   1     -38.079  18.850  -7.596  0.00  0.00     0.260 C 
ATOM      5  O4  NON d   1     -38.608  17.905  -8.187  0.00  0.00    -0.265 OA
BRANCH   4   6
ATOM      6  C7  NON d   1     -37.847  18.775  -6.003  0.00  0.00     0.126 C 
BRANCH   6   7
ATOM      7  C6  NON d   1     -36.983  19.970  -5.341  0.00  0.00     0.114 C 
BRANCH   7   8
ATOM      8  N1  NON d   1     -37.445  21.532  -5.443  0.00  0.00    -0.215 NA
ATOM      9  H6  NON d   1     -37.951  21.697  -6.312  0.00  0.00     0.139 HD
BRANCH   8  10
ATOM     10  S1  NON d   1     -38.195  22.122  -4.234  0.00  0.00     0.241 S 
ATOM     11  O2  NON d   1     -38.333  20.745  -3.740  0.00  0.00    -0.206 OA
ATOM     12  O3  NON d   1     -39.186  22.642  -5.187  0.00  0.00    -0.206 OA
BRANCH  10  13
ATOM     13  C5  NON d   1     -38.946  22.711  -3.026  0.00  0.00     0.074 A 
ATOM     14  C4  NON d   1     -38.839  24.015  -2.439  0.00  0.00     0.027 A 
ATOM     15  C3  NON d   1     -39.583  24.554  -1.251  0.00  0.00     0.038 A 
ATOM     16  C2  NON d   1     -40.537  23.838  -0.505  0.00  0.00     0.068 A 
ATOM     17  C21 NON d   1     -40.676  22.541  -1.011  0.00  0.00     0.038 A 
ATOM     18  C20 NON d   1     -39.902  22.012  -2.201  0.00  0.00     0.027 A 
BRANCH  16  19
ATOM     19  O1  NON d   1     -41.199  24.478   0.600  0.00  0.00    -0.356 OA
ATOM     20  C1  NON d   1     -41.063  23.783   1.967  0.00  0.00     0.210 C 
ENDBRANCH  16  19
ENDBRANCH  10  13
ENDBRANCH   8  10
ENDBRANCH   7   8
ENDBRANCH   6   7
ENDBRANCH   4   6
ENDBRANCH   3   4
ENDBRANCH   1   3
BRANCH   1  21
ATOM     21  C11 NON d   1     -40.225  20.916  -7.869  0.00  0.00     0.246 C 
ATOM     22  O6  NON d   1     -41.340  21.037  -8.389  0.00  0.00    -0.271 OA
ATOM     23  N2  NON d   1     -40.117  20.621  -6.528  0.00  0.00    -0.359 N 
ATOM     24  H15 NON d   1     -39.248  20.773  -6.034  0.00  0.00     0.162 HD
BRANCH  23  25
ATOM     25  C12 NON d   1     -41.349  20.512  -5.749  0.00  0.00     0.127 C 
BRANCH  25  26
ATOM     26  C13 NON d   1     -41.363  19.359  -4.741  0.00  0.00     0.058 C 
BRANCH  26  27
ATOM     27  C14 NON d   1     -42.569  18.433  -4.786  0.00  0.00    -0.057 A 
ATOM     28  C15 NON d   1     -43.829  18.997  -5.055  0.00  0.00     0.009 A 
ATOM     29  C16 NON d   1     -44.972  18.195  -5.168  0.00  0.00     0.025 A 
ATOM     30  C17 NON d   1     -44.866  16.814  -4.997  0.00  0.00     0.074 A 
ATOM     31  C18 NON d   1     -43.631  16.237  -4.701  0.00  0.00     0.025 A 
ATOM     32  C19 NON d   1     -42.492  17.045  -4.588  0.00  0.00     0.009 A 
BRANCH  30  33
ATOM     33  S2  NON d   1     -46.275  15.784  -5.296  0.00  0.00     0.239 S 
ATOM     34  O7  NON d   1     -46.759  15.260  -4.040  0.00  0.00    -0.206 OA
ATOM     35  O8  NON d   1     -46.005  14.932  -6.432  0.00  0.00    -0.206 OA
BRANCH  33  36
ATOM     36  N3  NON d   1     -47.440  16.879  -5.811  0.00  0.00    -0.225 NA
ATOM     37  H22 NON d   1     -48.147  16.388  -6.358  0.00  0.00     0.136 HD
ATOM     38  H23 NON d   1     -46.989  17.644  -6.312  0.00  0.00     0.136 HD
ENDBRANCH  33  36
ENDBRANCH  30  33
ENDBRANCH  26  27
ENDBRANCH  25  26
ENDBRANCH  23  25
ENDBRANCH   1  21
TORSDOF 14
ENDMDL
MODEL 6
REMARK VINA RESULT:   -31.274      1.808      2.651
REMARK INTER + INTRA:         -38.434
REMARK INTER:                 -35.450
REMARK INTRA:                  -2.984
REMARK CONF_INDEPENDENT:        4.176
REMARK UNBOUND:                -2.984
REMARK  14 active torsions:
REMARK  status: ('A' for Active; 'I' for Inactive)
REMARK    1  A    between atoms: O1_2  and  C2_3 
REMARK    2  A    between atoms: C5_6  and  S1_7 
REMARK    3  A    between atoms: S1_7  and  N1_10 
REMARK    4  A    between atoms: N1_10  and  C6_11 
REMARK    5  A    between atoms: C6_11  and  C7_12 
REMARK    6  A    between atoms: C7_12  and  C8_13 
REMARK    7  A    between atoms: C8_13  and  O5_15 
REMARK    8  A    between atoms: C9_16  and  O5_15 
REMARK    9  A    between atoms: C9_16  and  C11_18 
REMARK       I    between atoms: C11_18  and  N2_20 
REMARK   10  A    between atoms: N2_20  and  C12_21 
REMARK   11  A    between atoms: C12_21  and  C13_22 
REMARK   12  A    between atoms: C13_22  and  C14_23 
REMARK   13  A    between atoms: C17_26  and  S2_27 
REMARK   14  A    between atoms: S2_27  and  N3_28 
ROOT
ATOM      1  C9  NON d   1     -38.427  21.437  -2.001  0.00  0.00     0.219 C 
ATOM      2  C10 NON d   1     -38.215  21.410  -0.475  0.00  0.00     0.050 C 
ENDROOT
BRANCH   1   3
ATOM      3  O5  NON d   1     -38.002  22.657  -3.032  0.00  0.00    -0.307 OA
BRANCH   3   4
ATOM      4  C8  NON d   1     -37.538  22.325  -4.342  0.00  0.00     0.260 C 
ATOM      5  O4  NON d   1     -36.796  21.356  -4.523  0.00  0.00    -0.265 OA
BRANCH   4   6
ATOM      6  C7  NON d   1     -37.909  23.296  -5.572  0.00  0.00     0.126 C 
BRANCH   6   7
ATOM      7  C6  NON d   1     -39.471  23.380  -5.982  0.00  0.00     0.114 C 
BRANCH   7   8
ATOM      8  N1  NON d   1     -40.500  24.423  -5.265  0.00  0.00    -0.215 NA
ATOM      9  H6  NON d   1     -41.426  24.356  -5.687  0.00  0.00     0.139 HD
BRANCH   8  10
ATOM     10  S1  NON d   1     -40.579  24.385  -3.727  0.00  0.00     0.241 S 
ATOM     11  O2  NON d   1     -39.255  25.023  -3.715  0.00  0.00    -0.206 OA
ATOM     12  O3  NON d   1     -40.667  22.921  -3.834  0.00  0.00    -0.206 OA
BRANCH  10  13
ATOM     13  C5  NON d   1     -40.657  24.346  -2.189  0.00  0.00     0.074 A 
ATOM     14  C4  NON d   1     -40.050  25.219  -1.227  0.00  0.00     0.027 A 
ATOM     15  C3  NON d   1     -40.141  25.144   0.269  0.00  0.00     0.038 A 
ATOM     16  C2  NON d   1     -40.864  24.173   0.986  0.00  0.00     0.068 A 
ATOM     17  C21 NON d   1     -41.466  23.267   0.105  0.00  0.00     0.038 A 
ATOM     18  C20 NON d   1     -41.348  23.352  -1.403  0.00  0.00     0.027 A 
BRANCH  16  19
ATOM     19  O1  NON d   1     -40.892  24.225   2.423  0.00  0.00    -0.356 OA
ATOM     20  C1  NON d   1     -39.730  24.980   3.097  0.00  0.00     0.210 C 
ENDBRANCH  16  19
ENDBRANCH  10  13
ENDBRANCH   8  10
ENDBRANCH   7   8
ENDBRANCH   6   7
ENDBRANCH   4   6
ENDBRANCH   3   4
ENDBRANCH   1   3
BRANCH   1  21
ATOM     21  C11 NON d   1     -39.364  20.411  -2.666  0.00  0.00     0.246 C 
ATOM     22  O6  NON d   1     -40.322  19.971  -2.020  0.00  0.00    -0.271 OA
ATOM     23  N2  NON d   1     -39.163  20.003  -3.966  0.00  0.00    -0.359 N 
ATOM     24  H15 NON d   1     -38.268  20.137  -4.417  0.00  0.00     0.162 HD
BRANCH  23  25
ATOM     25  C12 NON d   1     -40.080  19.010  -4.522  0.00  0.00     0.127 C 
BRANCH  25  26
ATOM     26  C13 NON d   1     -41.441  19.571  -4.947  0.00  0.00     0.058 C 
BRANCH  26  27
ATOM     27  C14 NON d   1     -42.606  18.592  -4.949  0.00  0.00    -0.057 A 
ATOM     28  C15 NON d   1     -43.912  19.113  -4.982  0.00  0.00     0.009 A 
ATOM     29  C16 NON d   1     -45.027  18.269  -5.044  0.00  0.00     0.025 A 
ATOM     30  C17 NON d   1     -44.845  16.886  -5.057  0.00  0.00     0.074 A 
ATOM     31  C18 NON d   1     -43.560  16.347  -4.995  0.00  0.00     0.025 A 
ATOM     32  C19 NON d   1     -42.449  17.197  -4.933  0.00  0.00     0.009 A 
BRANCH  30  33
ATOM     33  S2  NON d   1     -46.241  15.822  -5.294  0.00  0.00     0.239 S 
ATOM     34  O7  NON d   1     -46.686  15.323  -4.014  0.00  0.00    -0.206 OA
ATOM     35  O8  NON d   1     -45.981  14.944  -6.414  0.00  0.00    -0.206 OA
BRANCH  33  36
ATOM     36  N3  NON d   1     -47.438  16.880  -5.811  0.00  0.00    -0.225 NA
ATOM     37  H22 NON d   1     -47.361  17.012  -6.819  0.00  0.00     0.136 HD
ATOM     38  H23 NON d   1     -47.380  17.746  -5.276  0.00  0.00     0.136 HD
ENDBRANCH  33  36
ENDBRANCH  30  33
ENDBRANCH  26  27
ENDBRANCH  25  26
ENDBRANCH  23  25
ENDBRANCH   1  21
TORSDOF 14
ENDMDL
MODEL 7
REMARK VINA RESULT:   -30.881      3.251      6.745
REMARK INTER + INTRA:         -37.832
REMARK INTER:                 -35.057
REMARK INTRA:                  -2.774
REMARK CONF_INDEPENDENT:        4.176
REMARK UNBOUND:                -2.774
REMARK  14 active torsions:
REMARK  status: ('A' for Active; 'I' for Inactive)
REMARK    1  A    between atoms: O1_2  and  C2_3 
REMARK    2  A    between atoms: C5_6  and  S1_7 
REMARK    3  A    between atoms: S1_7  and  N1_10 
REMARK    4  A    between atoms: N1_10  and  C6_11 
REMARK    5  A    between atoms: C6_11  and  C7_12 
REMARK    6  A    between atoms: C7_12  and  C8_13 
REMARK    7  A    between atoms: C8_13  and  O5_15 
REMARK    8  A    between atoms: C9_16  and  O5_15 
REMARK    9  A    between atoms: C9_16  and  C11_18 
REMARK       I    between atoms: C11_18  and  N2_20 
REMARK   10  A    between atoms: N2_20  and  C12_21 
REMARK   11  A    between atoms: C12_21  and  C13_22 
REMARK   12  A    between atoms: C13_22  and  C14_23 
REMARK   13  A    between atoms: C17_26  and  S2_27 
REMARK   14  A    between atoms: S2_27  and  N3_28 
ROOT
ATOM      1  C9  NON d   1     -38.651  23.509  -5.204  0.00  0.00     0.219 C 
ATOM      2  C10 NON d   1     -38.490  24.850  -5.944  0.00  0.00     0.050 C 
ENDROOT
BRANCH   1   3
ATOM      3  O5  NON d   1     -37.444  22.614  -4.513  0.00  0.00    -0.307 OA
BRANCH   3   4
ATOM      4  C8  NON d   1     -37.438  21.198  -4.704  0.00  0.00     0.260 C 
ATOM      5  O4  NON d   1     -37.638  20.432  -3.758  0.00  0.00    -0.265 OA
BRANCH   4   6
ATOM      6  C7  NON d   1     -37.061  20.607  -6.154  0.00  0.00     0.126 C 
BRANCH   6   7
ATOM      7  C6  NON d   1     -38.241  19.844  -6.954  0.00  0.00     0.114 C 
BRANCH   7   8
ATOM      8  N1  NON d   1     -39.625  20.596  -7.380  0.00  0.00    -0.215 NA
ATOM      9  H6  NON d   1     -40.006  21.115  -6.589  0.00  0.00     0.139 HD
BRANCH   8  10
ATOM     10  S1  NON d   1     -39.590  21.459  -8.655  0.00  0.00     0.241 S 
ATOM     11  O2  NON d   1     -41.024  21.173  -8.801  0.00  0.00    -0.206 OA
ATOM     12  O3  NON d   1     -38.612  20.504  -9.195  0.00  0.00    -0.206 OA
BRANCH  10  13
ATOM     13  C5  NON d   1     -39.554  22.321  -9.931  0.00  0.00     0.074 A 
ATOM     14  C4  NON d   1     -39.083  21.983 -11.242  0.00  0.00     0.027 A 
ATOM     15  C3  NON d   1     -39.055  22.856 -12.463  0.00  0.00     0.038 A 
ATOM     16  C2  NON d   1     -39.505  24.187 -12.513  0.00  0.00     0.068 A 
ATOM     17  C21 NON d   1     -39.960  24.594 -11.254  0.00  0.00     0.038 A 
ATOM     18  C20 NON d   1     -39.964  23.701 -10.030  0.00  0.00     0.027 A 
BRANCH  16  19
ATOM     19  O1  NON d   1     -39.447  24.910 -13.755  0.00  0.00    -0.356 OA
ATOM     20  C1  NON d   1     -40.794  25.159 -14.460  0.00  0.00     0.210 C 
ENDBRANCH  16  19
ENDBRANCH  10  13
ENDBRANCH   8  10
ENDBRANCH   7   8
ENDBRANCH   6   7
ENDBRANCH   4   6
ENDBRANCH   3   4
ENDBRANCH   1   3
BRANCH   1  21
ATOM     21  C11 NON d   1     -39.969  22.720  -5.319  0.00  0.00     0.246 C 
ATOM     22  O6  NON d   1     -40.851  23.139  -6.077  0.00  0.00    -0.271 OA
ATOM     23  N2  NON d   1     -40.162  21.553  -4.614  0.00  0.00    -0.359 N 
ATOM     24  H15 NON d   1     -39.587  21.332  -3.812  0.00  0.00     0.162 HD
BRANCH  23  25
ATOM     25  C12 NON d   1     -41.447  20.870  -4.757  0.00  0.00     0.127 C 
BRANCH  25  26
ATOM     26  C13 NON d   1     -41.504  19.482  -4.111  0.00  0.00     0.058 C 
BRANCH  26  27
ATOM     27  C14 NON d   1     -42.688  18.606  -4.491  0.00  0.00    -0.057 A 
ATOM     28  C15 NON d   1     -42.579  17.218  -4.292  0.00  0.00     0.009 A 
ATOM     29  C16 NON d   1     -43.651  16.361  -4.566  0.00  0.00     0.025 A 
ATOM     30  C17 NON d   1     -44.846  16.886  -5.060  0.00  0.00     0.074 A 
ATOM     31  C18 NON d   1     -44.966  18.256  -5.293  0.00  0.00     0.025 A 
ATOM     32  C19 NON d   1     -43.889  19.108  -5.017  0.00  0.00     0.009 A 
BRANCH  30  33
ATOM     33  S2  NON d   1     -46.253  15.828  -5.258  0.00  0.00     0.239 S 
ATOM     34  O7  NON d   1     -46.700  15.380  -3.959  0.00  0.00    -0.206 OA
ATOM     35  O8  NON d   1     -46.003  14.909  -6.345  0.00  0.00    -0.206 OA
BRANCH  33  36
ATOM     36  N3  NON d   1     -47.440  16.879  -5.810  0.00  0.00    -0.225 NA
ATOM     37  H22 NON d   1     -47.145  17.287  -6.697  0.00  0.00     0.136 HD
ATOM     38  H23 NON d   1     -47.646  17.569  -5.087  0.00  0.00     0.136 HD
ENDBRANCH  33  36
ENDBRANCH  30  33
ENDBRANCH  26  27
ENDBRANCH  25  26
ENDBRANCH  23  25
ENDBRANCH   1  21
TORSDOF 14
ENDMDL
MODEL 8
REMARK VINA RESULT:   -30.807      2.712      3.798
REMARK INTER + INTRA:         -37.954
REMARK INTER:                 -34.983
REMARK INTRA:                  -2.970
REMARK CONF_INDEPENDENT:        4.176
REMARK UNBOUND:                -2.970
REMARK  14 active torsions:
REMARK  status: ('A' for Active; 'I' for Inactive)
REMARK    1  A    between atoms: O1_2  and  C2_3 
REMARK    2  A    between atoms: C5_6  and  S1_7 
REMARK    3  A    between atoms: S1_7  and  N1_10 
REMARK    4  A    between atoms: N1_10  and  C6_11 
REMARK    5  A    between atoms: C6_11  and  C7_12 
REMARK    6  A    between atoms: C7_12  and  C8_13 
REMARK    7  A    between atoms: C8_13  and  O5_15 
REMARK    8  A    between atoms: C9_16  and  O5_15 
REMARK    9  A    between atoms: C9_16  and  C11_18 
REMARK       I    between atoms: C11_18  and  N2_20 
REMARK   10  A    between atoms: N2_20  and  C12_21 
REMARK   11  A    between atoms: C12_21  and  C13_22 
REMARK   12  A    between atoms: C13_22  and  C14_23 
REMARK   13  A    between atoms: C17_26  and  S2_27 
REMARK   14  A    between atoms: S2_27  and  N3_28 
ROOT
ATOM      1  C9  NON d   1     -39.889  21.804  -6.304  0.00  0.00     0.219 C 
ATOM      2  C10 NON d   1     -39.492  23.284  -6.455  0.00  0.00     0.050 C 
ENDROOT
BRANCH   1   3
ATOM      3  O5  NON d   1     -40.043  20.697  -7.524  0.00  0.00    -0.307 OA
BRANCH   3   4
ATOM      4  C8  NON d   1     -39.447  19.409  -7.367  0.00  0.00     0.260 C 
ATOM      5  O4  NON d   1     -40.144  18.404  -7.203  0.00  0.00    -0.265 OA
BRANCH   4   6
ATOM      6  C7  NON d   1     -37.841  19.293  -7.301  0.00  0.00     0.126 C 
BRANCH   6   7
ATOM      7  C6  NON d   1     -37.167  19.415  -5.837  0.00  0.00     0.114 C 
BRANCH   7   8
ATOM      8  N1  NON d   1     -37.744  18.600  -4.546  0.00  0.00    -0.215 NA
ATOM      9  H6  NON d   1     -37.218  17.739  -4.405  0.00  0.00     0.139 HD
BRANCH   8  10
ATOM     10  S1  NON d   1     -37.898  19.388  -3.232  0.00  0.00     0.241 S 
ATOM     11  O2  NON d   1     -36.660  20.092  -3.593  0.00  0.00    -0.206 OA
ATOM     12  O3  NON d   1     -37.810  18.101  -2.527  0.00  0.00    -0.206 OA
BRANCH  10  13
ATOM     13  C5  NON d   1     -38.053  20.175  -1.917  0.00  0.00     0.074 A 
ATOM     14  C4  NON d   1     -39.246  20.645  -1.275  0.00  0.00     0.027 A 
ATOM     15  C3  NON d   1     -39.358  21.420   0.006  0.00  0.00     0.038 A 
ATOM     16  C2  NON d   1     -38.271  21.817   0.805  0.00  0.00     0.068 A 
ATOM     17  C21 NON d   1     -37.065  21.410   0.223  0.00  0.00     0.038 A 
ATOM     18  C20 NON d   1     -36.974  20.643  -1.080  0.00  0.00     0.027 A 
BRANCH  16  19
ATOM     19  O1  NON d   1     -38.513  22.537   2.026  0.00  0.00    -0.356 OA
ATOM     20  C1  NON d   1     -37.994  23.987   2.074  0.00  0.00     0.210 C 
ENDBRANCH  16  19
ENDBRANCH  10  13
ENDBRANCH   8  10
ENDBRANCH   7   8
ENDBRANCH   6   7
ENDBRANCH   4   6
ENDBRANCH   3   4
ENDBRANCH   1   3
BRANCH   1  21
ATOM     21  C11 NON d   1     -40.490  21.298  -4.979  0.00  0.00     0.246 C 
ATOM     22  O6  NON d   1     -41.038  22.110  -4.224  0.00  0.00    -0.271 OA
ATOM     23  N2  NON d   1     -40.447  19.963  -4.642  0.00  0.00    -0.359 N 
ATOM     24  H15 NON d   1     -39.795  19.337  -5.096  0.00  0.00     0.162 HD
BRANCH  23  25
ATOM     25  C12 NON d   1     -41.018  19.562  -3.358  0.00  0.00     0.127 C 
BRANCH  25  26
ATOM     26  C13 NON d   1     -41.266  18.056  -3.217  0.00  0.00     0.058 C 
BRANCH  26  27
ATOM     27  C14 NON d   1     -42.610  17.542  -3.709  0.00  0.00    -0.057 A 
ATOM     28  C15 NON d   1     -42.654  16.873  -4.945  0.00  0.00     0.009 A 
ATOM     29  C16 NON d   1     -43.847  16.324  -5.429  0.00  0.00     0.025 A 
ATOM     30  C17 NON d   1     -45.019  16.453  -4.683  0.00  0.00     0.074 A 
ATOM     31  C18 NON d   1     -45.005  17.138  -3.468  0.00  0.00     0.025 A 
ATOM     32  C19 NON d   1     -43.807  17.685  -2.990  0.00  0.00     0.009 A 
BRANCH  30  33
ATOM     33  S2  NON d   1     -46.492  15.625  -5.215  0.00  0.00     0.239 S 
ATOM     34  O7  NON d   1     -47.198  15.117  -4.062  0.00  0.00    -0.206 OA
ATOM     35  O8  NON d   1     -46.180  14.793  -6.355  0.00  0.00    -0.206 OA
BRANCH  33  36
ATOM     36  N3  NON d   1     -47.436  16.880  -5.810  0.00  0.00    -0.225 NA
ATOM     37  H22 NON d   1     -47.582  16.749  -6.811  0.00  0.00     0.136 HD
ATOM     38  H23 NON d   1     -47.005  17.773  -5.570  0.00  0.00     0.136 HD
ENDBRANCH  33  36
ENDBRANCH  30  33
ENDBRANCH  26  27
ENDBRANCH  25  26
ENDBRANCH  23  25
ENDBRANCH   1  21
TORSDOF 14
ENDMDL
MODEL 9
REMARK VINA RESULT:   -30.609      1.678      2.355
REMARK INTER + INTRA:         -37.950
REMARK INTER:                 -34.785
REMARK INTRA:                  -3.165
REMARK CONF_INDEPENDENT:        4.176
REMARK UNBOUND:                -3.165
REMARK  14 active torsions:
REMARK  status: ('A' for Active; 'I' for Inactive)
REMARK    1  A    between atoms: O1_2  and  C2_3 
REMARK    2  A    between atoms: C5_6  and  S1_7 
REMARK    3  A    between atoms: S1_7  and  N1_10 
REMARK    4  A    between atoms: N1_10  and  C6_11 
REMARK    5  A    between atoms: C6_11  and  C7_12 
REMARK    6  A    between atoms: C7_12  and  C8_13 
REMARK    7  A    between atoms: C8_13  and  O5_15 
REMARK    8  A    between atoms: C9_16  and  O5_15 
REMARK    9  A    between atoms: C9_16  and  C11_18 
REMARK       I    between atoms: C11_18  and  N2_20 
REMARK   10  A    between atoms: N2_20  and  C12_21 
REMARK   11  A    between atoms: C12_21  and  C13_22 
REMARK   12  A    between atoms: C13_22  and  C14_23 
REMARK   13  A    between atoms: C17_26  and  S2_27 
REMARK   14  A    between atoms: S2_27  and  N3_28 
ROOT
ATOM      1  C9  NON d   1     -37.814  18.656  -6.343  0.00  0.00     0.219 C 
ATOM      2  C10 NON d   1     -36.644  18.594  -5.344  0.00  0.00     0.050 C 
ENDROOT
BRANCH   1   3
ATOM      3  O5  NON d   1     -37.699  18.725  -7.991  0.00  0.00    -0.307 OA
BRANCH   3   4
ATOM      4  C8  NON d   1     -37.742  20.001  -8.633  0.00  0.00     0.260 C 
ATOM      5  O4  NON d   1     -38.552  20.228  -9.536  0.00  0.00    -0.265 OA
BRANCH   4   6
ATOM      6  C7  NON d   1     -36.644  21.112  -8.238  0.00  0.00     0.126 C 
BRANCH   6   7
ATOM      7  C6  NON d   1     -37.068  22.657  -8.456  0.00  0.00     0.114 C 
BRANCH   7   8
ATOM      8  N1  NON d   1     -38.578  23.193  -8.148  0.00  0.00    -0.215 NA
ATOM      9  H6  NON d   1     -39.268  22.593  -8.599  0.00  0.00     0.139 HD
BRANCH   8  10
ATOM     10  S1  NON d   1     -38.941  23.458  -6.674  0.00  0.00     0.241 S 
ATOM     11  O2  NON d   1     -37.756  22.667  -6.315  0.00  0.00    -0.206 OA
ATOM     12  O3  NON d   1     -40.212  22.766  -6.932  0.00  0.00    -0.206 OA
BRANCH  10  13
ATOM     13  C5  NON d   1     -39.304  23.723  -5.201  0.00  0.00     0.074 A 
ATOM     14  C4  NON d   1     -40.284  24.615  -4.654  0.00  0.00     0.027 A 
ATOM     15  C3  NON d   1     -40.605  24.855  -3.208  0.00  0.00     0.038 A 
ATOM     16  C2  NON d   1     -39.974  24.216  -2.125  0.00  0.00     0.068 A 
ATOM     17  C21 NON d   1     -38.983  23.342  -2.587  0.00  0.00     0.038 A 
ATOM     18  C20 NON d   1     -38.664  23.127  -4.053  0.00  0.00     0.027 A 
BRANCH  16  19
ATOM     19  O1  NON d   1     -40.392  24.516  -0.782  0.00  0.00    -0.356 OA
ATOM     20  C1  NON d   1     -40.747  23.307   0.104  0.00  0.00     0.210 C 
ENDBRANCH  16  19
ENDBRANCH  10  13
ENDBRANCH   8  10
ENDBRANCH   7   8
ENDBRANCH   6   7
ENDBRANCH   4   6
ENDBRANCH   3   4
ENDBRANCH   1   3
BRANCH   1  21
ATOM     21  C11 NON d   1     -39.236  18.975  -5.843  0.00  0.00     0.246 C 
ATOM     22  O6  NON d   1     -40.001  18.040  -5.580  0.00  0.00    -0.271 OA
ATOM     23  N2  NON d   1     -39.651  20.277  -5.664  0.00  0.00    -0.359 N 
ATOM     24  H15 NON d   1     -39.159  21.041  -6.107  0.00  0.00     0.162 HD
BRANCH  23  25
ATOM     25  C12 NON d   1     -41.021  20.503  -5.209  0.00  0.00     0.127 C 
BRANCH  25  26
ATOM     26  C13 NON d   1     -41.504  19.521  -4.137  0.00  0.00     0.058 C 
BRANCH  26  27
ATOM     27  C14 NON d   1     -42.691  18.643  -4.507  0.00  0.00    -0.057 A 
ATOM     28  C15 NON d   1     -42.552  17.250  -4.377  0.00  0.00     0.009 A 
ATOM     29  C16 NON d   1     -43.623  16.388  -4.645  0.00  0.00     0.025 A 
ATOM     30  C17 NON d   1     -44.845  16.915  -5.063  0.00  0.00     0.074 A 
ATOM     31  C18 NON d   1     -44.996  18.292  -5.227  0.00  0.00     0.025 A 
ATOM     32  C19 NON d   1     -43.921  19.148  -4.957  0.00  0.00     0.009 A 
BRANCH  30  33
ATOM     33  S2  NON d   1     -46.243  15.843  -5.250  0.00  0.00     0.239 S 
ATOM     34  O7  NON d   1     -46.686  15.403  -3.947  0.00  0.00    -0.206 OA
ATOM     35  O8  NON d   1     -45.987  14.917  -6.329  0.00  0.00    -0.206 OA
BRANCH  33  36
ATOM     36  N3  NON d   1     -47.440  16.879  -5.810  0.00  0.00    -0.225 NA
ATOM     37  H22 NON d   1     -47.751  17.481  -5.048  0.00  0.00     0.136 HD
ATOM     38  H23 NON d   1     -48.189  16.334  -6.238  0.00  0.00     0.136 HD
ENDBRANCH  33  36
ENDBRANCH  30  33
ENDBRANCH  26  27
ENDBRANCH  25  26
ENDBRANCH  23  25
ENDBRANCH   1  21
TORSDOF 14
ENDMDL
