MODEL 1
REMARK VINA RESULT:   -24.323      0.000      0.000
REMARK INTER + INTRA:         -27.784
REMARK INTER:                 -26.710
REMARK INTRA:                  -1.074
REMARK CONF_INDEPENDENT:        2.386
REMARK UNBOUND:                -1.074
REMARK  8 active torsions:
REMARK  status: ('A' for Active; 'I' for Inactive)
REMARK    1  A    between atoms: C2_2  and  N1_3 
REMARK    2  A    between atoms: N1_3  and  C3_4 
REMARK    3  A    between atoms: C4_6  and  N3_7 
REMARK    4  A    between atoms: N3_7  and  C5_8 
REMARK    5  A    between atoms: C8_11  and  N4_12 
REMARK    6  A    between atoms: N4_12  and  S1_13 
REMARK    7  A    between atoms: S1_13  and  C9_16 
REMARK    8  A    between atoms: C12_19  and  C13_20 
ROOT
ATOM      1  C5  NON d   1     -42.856  17.354  -3.369  0.00  0.00     0.033 A 
ATOM      2  C6  NON d   1     -42.470  17.617  -4.690  0.00  0.00     0.031 A 
ATOM      3  C7  NON d   1     -41.186  18.150  -4.991  0.00  0.00     0.026 A 
ATOM      4  C8  NON d   1     -40.265  18.427  -3.972  0.00  0.00     0.023 A 
ATOM      5  C19 NON d   1     -40.669  18.254  -2.655  0.00  0.00     0.026 A 
ATOM      6  C20 NON d   1     -41.950  17.750  -2.362  0.00  0.00     0.031 A 
ENDROOT
BRANCH   4   7
ATOM      7  N4  NON d   1     -38.928  18.938  -4.203  0.00  0.00    -0.181 NA
ATOM      8  H10 NON d   1     -38.385  18.909  -3.335  0.00  0.00     0.146 HD
BRANCH   7   9
ATOM      9  S1  NON d   1     -38.806  20.553  -4.757  0.00  0.00     0.245 S 
ATOM     10  O1  NON d   1     -37.510  20.769  -5.361  0.00  0.00    -0.206 OA
ATOM     11  O2  NON d   1     -40.031  20.789  -5.496  0.00  0.00    -0.206 OA
BRANCH   9  12
ATOM     12  C9  NON d   1     -38.868  21.585  -3.282  0.00  0.00     0.074 C 
ATOM     13  C10 NON d   1     -38.539  21.077  -2.026  0.00  0.00     0.025 C 
ATOM     14  C11 NON d   1     -38.888  21.781  -0.839  0.00  0.00     0.009 C 
ATOM     15  C12 NON d   1     -39.667  22.966  -0.834  0.00  0.00    -0.051 C 
ATOM     16  C17 NON d   1     -39.781  23.528  -2.148  0.00  0.00     0.009 C 
ATOM     17  C18 NON d   1     -39.452  22.843  -3.341  0.00  0.00     0.025 C 
BRANCH  15  18
ATOM     18  C13 NON d   1     -40.200  23.783   0.357  0.00  0.00    -0.024 C 
ATOM     19  C14 NON d   1     -40.734  24.601   1.548  0.00  0.00     0.019 C 
ATOM     20  C15 NON d   1     -41.769  23.760  -0.269  0.00  0.00     0.019 C 
ATOM     21  C16 NON d   1     -40.239  22.432   1.360  0.00  0.00     0.019 C 
ENDBRANCH  15  18
ENDBRANCH   9  12
ENDBRANCH   7   9
ENDBRANCH   4   7
BRANCH   1  22
ATOM     22  N3  NON d   1     -44.018  16.571  -3.068  0.00  0.00    -0.340 N 
ATOM     23  H7  NON d   1     -43.905  15.768  -2.466  0.00  0.00     0.167 HD
BRANCH  22  24
ATOM     24  C4  NON d   1     -45.286  16.608  -3.759  0.00  0.00     0.149 C 
ATOM     25  N2  NON d   1     -46.335  15.722  -3.507  0.00  0.00    -0.045 NA
ATOM     26  C3  NON d   1     -47.432  15.705  -4.333  0.00  0.00     0.724 C 
ATOM     27  N5  NON d   1     -47.382  16.505  -5.436  0.00  0.00    -0.068 NA
ATOM     28  C22 NON d   1     -46.296  17.408  -5.651  0.00  0.00     0.053 C 
ATOM     29  C21 NON d   1     -45.340  17.582  -4.735  0.00  0.00     0.078 C 
ATOM     30  C23 NON d   1     -46.305  18.263  -6.932  0.00  0.00     0.071 C 
BRANCH  26  31
ATOM     31  N1  NON d   1     -48.534  14.787  -4.008  0.00  0.00    -0.223 N 
ATOM     32  H6  NON d   1     -48.104  13.895  -3.790  0.00  0.00     0.177 HD
BRANCH  31  33
ATOM     33  C2  NON d   1     -49.813  15.121  -3.205  0.00  0.00     0.134 C 
ATOM     34  C1  NON d   1     -50.110  16.307  -2.268  0.00  0.00     0.027 C 
ENDBRANCH  31  33
ENDBRANCH  26  31
ENDBRANCH  22  24
ENDBRANCH   1  22
TORSDOF 8
ENDMDL
MODEL 2
REMARK VINA RESULT:   -24.251      3.792      5.514
REMARK INTER + INTRA:         -27.341
REMARK INTER:                 -26.638
REMARK INTRA:                  -0.704
REMARK CONF_INDEPENDENT:        2.386
REMARK UNBOUND:                -0.704
REMARK  8 active torsions:
REMARK  status: ('A' for Active; 'I' for Inactive)
REMARK    1  A    between atoms: C2_2  and  N1_3 
REMARK    2  A    between atoms: N1_3  and  C3_4 
REMARK    3  A    between atoms: C4_6  and  N3_7 
REMARK    4  A    between atoms: N3_7  and  C5_8 
REMARK    5  A    between atoms: C8_11  and  N4_12 
REMARK    6  A    between atoms: N4_12  and  S1_13 
REMARK    7  A    between atoms: S1_13  and  C9_16 
REMARK    8  A    between atoms: C12_19  and  C13_20 
ROOT
ATOM      1  C5  NON d   1     -42.723  17.480  -3.505  0.00  0.00     0.033 A 
ATOM      2  C6  NON d   1     -41.838  17.983  -2.542  0.00  0.00     0.031 A 
ATOM      3  C7  NON d   1     -40.871  18.973  -2.874  0.00  0.00     0.026 A 
ATOM      4  C8  NON d   1     -40.776  19.477  -4.178  0.00  0.00     0.023 A 
ATOM      5  C19 NON d   1     -41.587  18.922  -5.159  0.00  0.00     0.026 A 
ATOM      6  C20 NON d   1     -42.524  17.926  -4.830  0.00  0.00     0.031 A 
ENDROOT
BRANCH   4   7
ATOM      7  N4  NON d   1     -39.841  20.510  -4.582  0.00  0.00    -0.181 NA
ATOM      8  H10 NON d   1     -40.330  21.242  -5.105  0.00  0.00     0.146 HD
BRANCH   7   9
ATOM      9  S1  NON d   1     -38.548  20.024  -5.592  0.00  0.00     0.245 S 
ATOM     10  O1  NON d   1     -37.338  20.719  -5.210  0.00  0.00    -0.206 OA
ATOM     11  O2  NON d   1     -38.610  18.575  -5.609  0.00  0.00    -0.206 OA
BRANCH   9  12
ATOM     12  C9  NON d   1     -38.972  20.595  -7.246  0.00  0.00     0.074 C 
ATOM     13  C10 NON d   1     -38.142  20.341  -8.337  0.00  0.00     0.025 C 
ATOM     14  C11 NON d   1     -38.306  21.050  -9.561  0.00  0.00     0.009 C 
ATOM     15  C12 NON d   1     -39.230  22.113  -9.730  0.00  0.00    -0.051 C 
ATOM     16  C17 NON d   1     -40.173  22.169  -8.651  0.00  0.00     0.009 C 
ATOM     17  C18 NON d   1     -40.025  21.483  -7.424  0.00  0.00     0.025 C 
BRANCH  15  18
ATOM     18  C13 NON d   1     -39.458  23.029 -10.946  0.00  0.00    -0.024 C 
ATOM     19  C14 NON d   1     -39.686  23.945 -12.163  0.00  0.00     0.019 C 
ATOM     20  C15 NON d   1     -37.881  23.626 -10.852  0.00  0.00     0.019 C 
ATOM     21  C16 NON d   1     -39.252  21.759 -12.032  0.00  0.00     0.019 C 
ENDBRANCH  15  18
ENDBRANCH   9  12
ENDBRANCH   7   9
ENDBRANCH   4   7
BRANCH   1  22
ATOM     22  N3  NON d   1     -43.867  16.701  -3.138  0.00  0.00    -0.340 N 
ATOM     23  H7  NON d   1     -43.731  15.932  -2.497  0.00  0.00     0.167 HD
BRANCH  22  24
ATOM     24  C4  NON d   1     -45.150  16.687  -3.802  0.00  0.00     0.149 C 
ATOM     25  N2  NON d   1     -46.153  15.752  -3.536  0.00  0.00    -0.045 NA
ATOM     26  C3  NON d   1     -47.265  15.693  -4.340  0.00  0.00     0.724 C 
ATOM     27  N5  NON d   1     -47.276  16.505  -5.435  0.00  0.00    -0.068 NA
ATOM     28  C22 NON d   1     -46.236  17.458  -5.663  0.00  0.00     0.053 C 
ATOM     29  C21 NON d   1     -45.268  17.667  -4.766  0.00  0.00     0.078 C 
ATOM     30  C23 NON d   1     -46.310  18.323  -6.936  0.00  0.00     0.071 C 
BRANCH  26  31
ATOM     31  N1  NON d   1     -48.318  14.724  -4.001  0.00  0.00    -0.223 N 
ATOM     32  H6  NON d   1     -47.925  14.117  -3.289  0.00  0.00     0.177 HD
BRANCH  31  33
ATOM     33  C2  NON d   1     -49.833  15.008  -3.868  0.00  0.00     0.134 C 
ATOM     34  C1  NON d   1     -50.603  15.765  -2.770  0.00  0.00     0.027 C 
ENDBRANCH  31  33
ENDBRANCH  26  31
ENDBRANCH  22  24
ENDBRANCH   1  22
TORSDOF 8
ENDMDL
MODEL 3
REMARK VINA RESULT:   -24.241      0.678      1.250
REMARK INTER + INTRA:         -27.791
REMARK INTER:                 -26.627
REMARK INTRA:                  -1.164
REMARK CONF_INDEPENDENT:        2.386
REMARK UNBOUND:                -1.164
REMARK  8 active torsions:
REMARK  status: ('A' for Active; 'I' for Inactive)
REMARK    1  A    between atoms: C2_2  and  N1_3 
REMARK    2  A    between atoms: N1_3  and  C3_4 
REMARK    3  A    between atoms: C4_6  and  N3_7 
REMARK    4  A    between atoms: N3_7  and  C5_8 
REMARK    5  A    between atoms: C8_11  and  N4_12 
REMARK    6  A    between atoms: N4_12  and  S1_13 
REMARK    7  A    between atoms: S1_13  and  C9_16 
REMARK    8  A    between atoms: C12_19  and  C13_20 
ROOT
ATOM      1  C5  NON d   1     -42.901  17.397  -3.327  0.00  0.00     0.033 A 
ATOM      2  C6  NON d   1     -42.385  17.567  -4.619  0.00  0.00     0.031 A 
ATOM      3  C7  NON d   1     -41.108  18.157  -4.831  0.00  0.00     0.026 A 
ATOM      4  C8  NON d   1     -40.326  18.587  -3.751  0.00  0.00     0.023 A 
ATOM      5  C19 NON d   1     -40.864  18.506  -2.474  0.00  0.00     0.026 A 
ATOM      6  C20 NON d   1     -42.138  17.944  -2.272  0.00  0.00     0.031 A 
ENDROOT
BRANCH   4   7
ATOM      7  N4  NON d   1     -39.002  19.165  -3.887  0.00  0.00    -0.181 NA
ATOM      8  H10 NON d   1     -38.480  19.058  -3.013  0.00  0.00     0.146 HD
BRANCH   7   9
ATOM      9  S1  NON d   1     -38.926  20.835  -4.254  0.00  0.00     0.245 S 
ATOM     10  O1  NON d   1     -37.549  21.278  -4.248  0.00  0.00    -0.206 OA
ATOM     11  O2  NON d   1     -39.765  21.000  -5.426  0.00  0.00    -0.206 OA
BRANCH   9  12
ATOM     12  C9  NON d   1     -39.747  21.677  -2.890  0.00  0.00     0.074 C 
ATOM     13  C10 NON d   1     -40.470  22.852  -3.092  0.00  0.00     0.025 C 
ATOM     14  C11 NON d   1     -40.842  23.678  -1.994  0.00  0.00     0.009 C 
ATOM     15  C12 NON d   1     -40.429  23.437  -0.659  0.00  0.00    -0.051 C 
ATOM     16  C17 NON d   1     -39.879  22.121  -0.506  0.00  0.00     0.009 C 
ATOM     17  C18 NON d   1     -39.492  21.288  -1.582  0.00  0.00     0.025 C 
BRANCH  15  18
ATOM     18  C13 NON d   1     -40.667  24.278   0.608  0.00  0.00    -0.024 C 
ATOM     19  C14 NON d   1     -40.905  25.120   1.876  0.00  0.00     0.019 C 
ATOM     20  C15 NON d   1     -40.378  22.946   1.606  0.00  0.00     0.019 C 
ATOM     21  C16 NON d   1     -39.129  24.958   0.533  0.00  0.00     0.019 C 
ENDBRANCH  15  18
ENDBRANCH   9  12
ENDBRANCH   7   9
ENDBRANCH   4   7
BRANCH   1  22
ATOM     22  N3  NON d   1     -44.042  16.567  -3.078  0.00  0.00    -0.340 N 
ATOM     23  H7  NON d   1     -43.910  15.738  -2.514  0.00  0.00     0.167 HD
BRANCH  22  24
ATOM     24  C4  NON d   1     -45.304  16.601  -3.779  0.00  0.00     0.149 C 
ATOM     25  N2  NON d   1     -46.341  15.692  -3.558  0.00  0.00    -0.045 NA
ATOM     26  C3  NON d   1     -47.430  15.678  -4.395  0.00  0.00     0.724 C 
ATOM     27  N5  NON d   1     -47.383  16.507  -5.477  0.00  0.00    -0.068 NA
ATOM     28  C22 NON d   1     -46.310  17.433  -5.659  0.00  0.00     0.053 C 
ATOM     29  C21 NON d   1     -45.365  17.599  -4.730  0.00  0.00     0.078 C 
ATOM     30  C23 NON d   1     -46.321  18.319  -6.918  0.00  0.00     0.071 C 
BRANCH  26  31
ATOM     31  N1  NON d   1     -48.519  14.736  -4.103  0.00  0.00    -0.223 N 
ATOM     32  H6  NON d   1     -48.158  14.092  -3.408  0.00  0.00     0.177 HD
BRANCH  31  33
ATOM     33  C2  NON d   1     -50.026  15.067  -3.981  0.00  0.00     0.134 C 
ATOM     34  C1  NON d   1     -50.817  15.637  -2.789  0.00  0.00     0.027 C 
ENDBRANCH  31  33
ENDBRANCH  26  31
ENDBRANCH  22  24
ENDBRANCH   1  22
TORSDOF 8
ENDMDL
MODEL 4
REMARK VINA RESULT:   -23.798      1.447      2.245
REMARK INTER + INTRA:         -27.363
REMARK INTER:                 -26.184
REMARK INTRA:                  -1.179
REMARK CONF_INDEPENDENT:        2.386
REMARK UNBOUND:                -1.179
REMARK  8 active torsions:
REMARK  status: ('A' for Active; 'I' for Inactive)
REMARK    1  A    between atoms: C2_2  and  N1_3 
REMARK    2  A    between atoms: N1_3  and  C3_4 
REMARK    3  A    between atoms: C4_6  and  N3_7 
REMARK    4  A    between atoms: N3_7  and  C5_8 
REMARK    5  A    between atoms: C8_11  and  N4_12 
REMARK    6  A    between atoms: N4_12  and  S1_13 
REMARK    7  A    between atoms: S1_13  and  C9_16 
REMARK    8  A    between atoms: C12_19  and  C13_20 
ROOT
ATOM      1  C5  NON d   1     -43.832  18.381  -4.990  0.00  0.00     0.033 A 
ATOM      2  C6  NON d   1     -43.029  19.368  -5.578  0.00  0.00     0.031 A 
ATOM      3  C7  NON d   1     -41.628  19.419  -5.335  0.00  0.00     0.026 A 
ATOM      4  C8  NON d   1     -41.007  18.481  -4.501  0.00  0.00     0.023 A 
ATOM      5  C19 NON d   1     -41.805  17.555  -3.843  0.00  0.00     0.026 A 
ATOM      6  C20 NON d   1     -43.194  17.523  -4.067  0.00  0.00     0.031 A 
ENDROOT
BRANCH   4   7
ATOM      7  N4  NON d   1     -39.581  18.450  -4.234  0.00  0.00    -0.181 NA
ATOM      8  H10 NON d   1     -39.404  18.039  -3.313  0.00  0.00     0.146 HD
BRANCH   7   9
ATOM      9  S1  NON d   1     -38.768  19.955  -4.219  0.00  0.00     0.245 S 
ATOM     10  O1  NON d   1     -37.454  19.799  -3.635  0.00  0.00    -0.206 OA
ATOM     11  O2  NON d   1     -38.939  20.486  -5.558  0.00  0.00    -0.206 OA
BRANCH   9  12
ATOM     12  C9  NON d   1     -39.707  21.012  -3.104  0.00  0.00     0.074 C 
ATOM     13  C10 NON d   1     -40.102  22.295  -3.480  0.00  0.00     0.025 C 
ATOM     14  C11 NON d   1     -40.554  23.234  -2.510  0.00  0.00     0.009 C 
ATOM     15  C12 NON d   1     -40.540  22.983  -1.114  0.00  0.00    -0.051 C 
ATOM     16  C17 NON d   1     -40.327  21.594  -0.830  0.00  0.00     0.009 C 
ATOM     17  C18 NON d   1     -39.867  20.647  -1.774  0.00  0.00     0.025 C 
BRANCH  15  18
ATOM     18  C13 NON d   1     -40.904  23.918   0.053  0.00  0.00    -0.024 C 
ATOM     19  C14 NON d   1     -41.268  24.854   1.222  0.00  0.00     0.019 C 
ATOM     20  C15 NON d   1     -39.553  23.419   0.937  0.00  0.00     0.019 C 
ATOM     21  C16 NON d   1     -40.284  25.267  -0.739  0.00  0.00     0.019 C 
ENDBRANCH  15  18
ENDBRANCH   9  12
ENDBRANCH   7   9
ENDBRANCH   4   7
BRANCH   1  22
ATOM     22  N3  NON d   1     -45.174  18.144  -5.431  0.00  0.00    -0.340 N 
ATOM     23  H7  NON d   1     -45.565  18.774  -6.118  0.00  0.00     0.167 HD
BRANCH  22  24
ATOM     24  C4  NON d   1     -46.152  17.291  -4.798  0.00  0.00     0.149 C 
ATOM     25  N2  NON d   1     -47.069  16.505  -5.500  0.00  0.00    -0.045 NA
ATOM     26  C3  NON d   1     -48.084  15.870  -4.828  0.00  0.00     0.724 C 
ATOM     27  N5  NON d   1     -48.197  16.134  -3.495  0.00  0.00    -0.068 NA
ATOM     28  C22 NON d   1     -47.230  16.933  -2.811  0.00  0.00     0.053 C 
ATOM     29  C21 NON d   1     -46.124  17.368  -3.421  0.00  0.00     0.078 C 
ATOM     30  C23 NON d   1     -47.441  17.202  -1.309  0.00  0.00     0.071 C 
BRANCH  26  31
ATOM     31  N1  NON d   1     -49.002  15.017  -5.597  0.00  0.00    -0.223 N 
ATOM     32  H6  NON d   1     -48.433  14.542  -6.290  0.00  0.00     0.177 HD
BRANCH  31  33
ATOM     33  C2  NON d   1     -50.193  14.199  -5.044  0.00  0.00     0.134 C 
ATOM     34  C1  NON d   1     -50.876  14.259  -3.665  0.00  0.00     0.027 C 
ENDBRANCH  31  33
ENDBRANCH  26  31
ENDBRANCH  22  24
ENDBRANCH   1  22
TORSDOF 8
ENDMDL
