MODEL 1
REMARK VINA RESULT:   -33.116      0.000      0.000
REMARK INTER + INTRA:         -36.337
REMARK INTER:                 -35.204
REMARK INTRA:                  -1.133
REMARK CONF_INDEPENDENT:        2.088
REMARK UNBOUND:                -1.133
REMARK  7 active torsions:
REMARK  status: ('A' for Active; 'I' for Inactive)
REMARK    1  A    between atoms: C6_6  and  N1_7 
REMARK       I    between atoms: N1_7  and  C7_8 
REMARK    2  A    between atoms: C7_8  and  C8_10 
REMARK    3  A    between atoms: C8_10  and  S1_11 
REMARK    4  A    between atoms: S1_11  and  C9_12 
REMARK    5  A    between atoms: C10_15  and  C11_16 
REMARK    6  A    between atoms: C13_18  and  C14_19 
REMARK    7  A    between atoms: N6_28  and  N7_29 
ROOT
ATOM      1  C9  NON d   1     -48.164  15.915  -3.973  0.00  0.00     0.206 A 
ATOM      2  N2  NON d   1     -47.917  16.110  -2.699  0.00  0.00    -0.121 NA
ATOM      3  N3  NON d   1     -46.711  16.792  -2.613  0.00  0.00    -0.125 NA
ATOM      4  C10 NON d   1     -46.261  17.002  -3.838  0.00  0.00     0.197 A 
ATOM      5  N6  NON d   1     -47.171  16.482  -4.735  0.00  0.00    -0.234 N 
ENDROOT
BRANCH   1   6
ATOM      6  S1  NON d   1     -49.460  15.028  -4.688  0.00  0.00    -0.080 SA
BRANCH   6   7
ATOM      7  C8  NON d   1     -50.529  14.630  -3.267  0.00  0.00     0.185 C 
BRANCH   7   8
ATOM      8  C7  NON d   1     -51.190  15.917  -2.752  0.00  0.00     0.231 C 
ATOM      9  N1  NON d   1     -52.556  15.790  -2.526  0.00  0.00    -0.327 N 
ATOM     10  H7  NON d   1     -52.956  14.860  -2.561  0.00  0.00     0.169 HD
ATOM     11  O1  NON d   1     -50.534  16.932  -2.524  0.00  0.00    -0.272 OA
BRANCH   9  12
ATOM     12  C6  NON d   1     -53.442  16.829  -2.136  0.00  0.00     0.035 A 
ATOM     13  C5  NON d   1     -54.683  16.904  -2.778  0.00  0.00     0.029 A 
ATOM     14  C4  NON d   1     -55.600  17.907  -2.445  0.00  0.00     0.003 A 
ATOM     15  C3  NON d   1     -55.282  18.854  -1.474  0.00  0.00     0.007 A 
ATOM     16  C2  NON d   1     -54.048  18.801  -0.822  0.00  0.00    -0.060 A 
ATOM     17  C1  NON d   1     -53.672  19.844   0.189  0.00  0.00     0.048 C 
ATOM     18  C20 NON d   1     -53.132  17.791  -1.170  0.00  0.00     0.036 A 
ENDBRANCH   9  12
ENDBRANCH   7   8
ENDBRANCH   6   7
ENDBRANCH   1   6
BRANCH   5  19
ATOM     19  N7  NON d   1     -47.065  16.505  -6.184  0.00  0.00    -0.239 NA
ATOM     20  H16 NON d   1     -47.182  17.470  -6.508  0.00  0.00     0.143 HD
ATOM     21  H17 NON d   1     -47.868  16.017  -6.586  0.00  0.00     0.143 HD
ENDBRANCH   5  19
BRANCH   4  22
ATOM     22  C11 NON d   1     -45.020  17.626  -4.168  0.00  0.00     0.101 A 
ATOM     23  C12 NON d   1     -43.728  17.325  -3.800  0.00  0.00     0.069 A 
ATOM     24  C13 NON d   1     -42.891  18.268  -4.468  0.00  0.00     0.089 A 
ATOM     25  N4  NON d   1     -43.642  19.109  -5.201  0.00  0.00    -0.174 NA
ATOM     26  N5  NON d   1     -44.905  18.712  -4.988  0.00  0.00    -0.274 N 
ATOM     27  H15 NON d   1     -45.659  19.217  -5.446  0.00  0.00     0.189 HD
BRANCH  24  28
ATOM     28  C14 NON d   1     -41.425  18.380  -4.429  0.00  0.00    -0.006 A 
ATOM     29  C15 NON d   1     -40.690  18.711  -5.579  0.00  0.00     0.015 A 
ATOM     30  C16 NON d   1     -39.295  18.809  -5.536  0.00  0.00     0.024 A 
ATOM     31  C17 NON d   1     -38.618  18.578  -4.342  0.00  0.00     0.034 A 
ATOM     32 Cl1  NON d   1     -36.902  18.692  -4.295  0.00  0.00    -0.084 Cl
ATOM     33  C18 NON d   1     -39.325  18.250  -3.188  0.00  0.00     0.024 A 
ATOM     34  C19 NON d   1     -40.720  18.153  -3.234  0.00  0.00     0.015 A 
ENDBRANCH  24  28
ENDBRANCH   4  22
TORSDOF 7
ENDMDL
MODEL 2
REMARK VINA RESULT:   -31.798      4.477     11.733
REMARK INTER + INTRA:         -34.906
REMARK INTER:                 -33.886
REMARK INTRA:                  -1.020
REMARK CONF_INDEPENDENT:        2.088
REMARK UNBOUND:                -1.020
REMARK  7 active torsions:
REMARK  status: ('A' for Active; 'I' for Inactive)
REMARK    1  A    between atoms: C6_6  and  N1_7 
REMARK       I    between atoms: N1_7  and  C7_8 
REMARK    2  A    between atoms: C7_8  and  C8_10 
REMARK    3  A    between atoms: C8_10  and  S1_11 
REMARK    4  A    between atoms: S1_11  and  C9_12 
REMARK    5  A    between atoms: C10_15  and  C11_16 
REMARK    6  A    between atoms: C13_18  and  C14_19 
REMARK    7  A    between atoms: N6_28  and  N7_29 
ROOT
ATOM      1  C9  NON d   1     -45.504  16.739  -5.050  0.00  0.00     0.206 A 
ATOM      2  N2  NON d   1     -46.078  16.337  -6.159  0.00  0.00    -0.121 NA
ATOM      3  N3  NON d   1     -47.421  16.130  -5.877  0.00  0.00    -0.125 NA
ATOM      4  C10 NON d   1     -47.631  16.421  -4.605  0.00  0.00     0.197 A 
ATOM      5  N6  NON d   1     -46.440  16.839  -4.049  0.00  0.00    -0.234 N 
ENDROOT
BRANCH   1   6
ATOM      6  S1  NON d   1     -43.831  17.046  -4.760  0.00  0.00    -0.080 SA
BRANCH   6   7
ATOM      7  C8  NON d   1     -43.678  18.839  -5.048  0.00  0.00     0.185 C 
BRANCH   7   8
ATOM      8  C7  NON d   1     -42.220  19.177  -5.391  0.00  0.00     0.231 C 
ATOM      9  N1  NON d   1     -42.049  19.670  -6.679  0.00  0.00    -0.327 N 
ATOM     10  H7  NON d   1     -42.880  19.910  -7.206  0.00  0.00     0.169 HD
ATOM     11  O1  NON d   1     -41.319  19.056  -4.562  0.00  0.00    -0.272 OA
BRANCH   9  12
ATOM     12  C6  NON d   1     -40.811  19.982  -7.300  0.00  0.00     0.035 A 
ATOM     13  C5  NON d   1     -40.596  21.308  -7.696  0.00  0.00     0.029 A 
ATOM     14  C4  NON d   1     -39.401  21.681  -8.319  0.00  0.00     0.003 A 
ATOM     15  C3  NON d   1     -38.410  20.732  -8.565  0.00  0.00     0.007 A 
ATOM     16  C2  NON d   1     -38.605  19.403  -8.181  0.00  0.00    -0.060 A 
ATOM     17  C1  NON d   1     -37.569  18.361  -8.486  0.00  0.00     0.048 C 
ATOM     18  C20 NON d   1     -39.813  19.039  -7.561  0.00  0.00     0.036 A 
ENDBRANCH   9  12
ENDBRANCH   7   8
ENDBRANCH   6   7
ENDBRANCH   1   6
BRANCH   5  19
ATOM     19  N7  NON d   1     -46.229  17.259  -2.673  0.00  0.00    -0.239 NA
ATOM     20  H16 NON d   1     -45.244  17.112  -2.432  0.00  0.00     0.143 HD
ATOM     21  H17 NON d   1     -46.727  16.622  -2.048  0.00  0.00     0.143 HD
ENDBRANCH   5  19
BRANCH   4  22
ATOM     22  C11 NON d   1     -48.875  16.283  -3.919  0.00  0.00     0.101 A 
ATOM     23  C12 NON d   1     -49.643  17.204  -3.242  0.00  0.00     0.069 A 
ATOM     24  C13 NON d   1     -50.806  16.506  -2.798  0.00  0.00     0.089 A 
ATOM     25  N4  NON d   1     -50.743  15.219  -3.181  0.00  0.00    -0.174 NA
ATOM     26  N5  NON d   1     -49.574  15.114  -3.831  0.00  0.00    -0.274 N 
ATOM     27  H15 NON d   1     -49.307  14.210  -4.212  0.00  0.00     0.189 HD
BRANCH  24  28
ATOM     28  C14 NON d   1     -51.954  17.028  -2.040  0.00  0.00    -0.006 A 
ATOM     29  C15 NON d   1     -53.272  16.766  -2.444  0.00  0.00     0.015 A 
ATOM     30  C16 NON d   1     -54.358  17.272  -1.722  0.00  0.00     0.024 A 
ATOM     31  C17 NON d   1     -54.139  18.045  -0.585  0.00  0.00     0.034 A 
ATOM     32 Cl1  NON d   1     -55.477  18.671   0.296  0.00  0.00    -0.084 Cl
ATOM     33  C18 NON d   1     -52.840  18.316  -0.163  0.00  0.00     0.024 A 
ATOM     34  C19 NON d   1     -51.756  17.809  -0.888  0.00  0.00     0.015 A 
ENDBRANCH  24  28
ENDBRANCH   4  22
TORSDOF 7
ENDMDL
MODEL 3
REMARK VINA RESULT:   -31.562      4.296     11.764
REMARK INTER + INTRA:         -34.736
REMARK INTER:                 -33.650
REMARK INTRA:                  -1.086
REMARK CONF_INDEPENDENT:        2.088
REMARK UNBOUND:                -1.086
REMARK  7 active torsions:
REMARK  status: ('A' for Active; 'I' for Inactive)
REMARK    1  A    between atoms: C6_6  and  N1_7 
REMARK       I    between atoms: N1_7  and  C7_8 
REMARK    2  A    between atoms: C7_8  and  C8_10 
REMARK    3  A    between atoms: C8_10  and  S1_11 
REMARK    4  A    between atoms: S1_11  and  C9_12 
REMARK    5  A    between atoms: C10_15  and  C11_16 
REMARK    6  A    between atoms: C13_18  and  C14_19 
REMARK    7  A    between atoms: N6_28  and  N7_29 
ROOT
ATOM      1  C9  NON d   1     -45.515  16.724  -5.075  0.00  0.00     0.206 A 
ATOM      2  N2  NON d   1     -46.096  16.325  -6.182  0.00  0.00    -0.121 NA
ATOM      3  N3  NON d   1     -47.440  16.130  -5.895  0.00  0.00    -0.125 NA
ATOM      4  C10 NON d   1     -47.643  16.425  -4.622  0.00  0.00     0.197 A 
ATOM      5  N6  NON d   1     -46.447  16.834  -4.071  0.00  0.00    -0.234 N 
ENDROOT
BRANCH   1   6
ATOM      6  S1  NON d   1     -43.838  17.016  -4.792  0.00  0.00    -0.080 SA
BRANCH   6   7
ATOM      7  C8  NON d   1     -43.729  18.835  -4.771  0.00  0.00     0.185 C 
BRANCH   7   8
ATOM      8  C7  NON d   1     -42.252  19.256  -4.778  0.00  0.00     0.231 C 
ATOM      9  N1  NON d   1     -41.521  18.711  -5.828  0.00  0.00    -0.327 N 
ATOM     10  H7  NON d   1     -42.033  18.236  -6.561  0.00  0.00     0.169 HD
ATOM     11  O1  NON d   1     -41.802  20.042  -3.946  0.00  0.00    -0.272 OA
BRANCH   9  12
ATOM     12  C6  NON d   1     -40.124  18.850  -6.039  0.00  0.00     0.035 A 
ATOM     13  C5  NON d   1     -39.325  19.163  -4.933  0.00  0.00     0.029 A 
ATOM     14  C4  NON d   1     -37.942  19.319  -5.073  0.00  0.00     0.003 A 
ATOM     15  C3  NON d   1     -37.342  19.178  -6.323  0.00  0.00     0.007 A 
ATOM     16  C2  NON d   1     -38.121  18.869  -7.442  0.00  0.00    -0.060 A 
ATOM     17  C1  NON d   1     -37.497  18.764  -8.802  0.00  0.00     0.048 C 
ATOM     18  C20 NON d   1     -39.511  18.720  -7.288  0.00  0.00     0.036 A 
ENDBRANCH   9  12
ENDBRANCH   7   8
ENDBRANCH   6   7
ENDBRANCH   1   6
BRANCH   5  19
ATOM     19  N7  NON d   1     -46.228  17.254  -2.697  0.00  0.00    -0.239 NA
ATOM     20  H16 NON d   1     -45.238  17.124  -2.468  0.00  0.00     0.143 HD
ATOM     21  H17 NON d   1     -46.708  16.606  -2.068  0.00  0.00     0.143 HD
ENDBRANCH   5  19
BRANCH   4  22
ATOM     22  C11 NON d   1     -48.886  16.299  -3.933  0.00  0.00     0.101 A 
ATOM     23  C12 NON d   1     -49.646  17.228  -3.257  0.00  0.00     0.069 A 
ATOM     24  C13 NON d   1     -50.813  16.541  -2.807  0.00  0.00     0.089 A 
ATOM     25  N4  NON d   1     -50.759  15.251  -3.184  0.00  0.00    -0.174 NA
ATOM     26  N5  NON d   1     -49.594  15.135  -3.837  0.00  0.00    -0.274 N 
ATOM     27  H15 NON d   1     -49.334  14.227  -4.215  0.00  0.00     0.189 HD
BRANCH  24  28
ATOM     28  C14 NON d   1     -51.954  17.075  -2.048  0.00  0.00    -0.006 A 
ATOM     29  C15 NON d   1     -53.276  16.805  -2.437  0.00  0.00     0.015 A 
ATOM     30  C16 NON d   1     -54.356  17.322  -1.714  0.00  0.00     0.024 A 
ATOM     31  C17 NON d   1     -54.128  18.114  -0.592  0.00  0.00     0.034 A 
ATOM     32 Cl1  NON d   1     -55.459  18.753   0.290  0.00  0.00    -0.084 Cl
ATOM     33  C18 NON d   1     -52.826  18.393  -0.185  0.00  0.00     0.024 A 
ATOM     34  C19 NON d   1     -51.747  17.874  -0.911  0.00  0.00     0.015 A 
ENDBRANCH  24  28
ENDBRANCH   4  22
TORSDOF 7
ENDMDL
MODEL 4
REMARK VINA RESULT:   -31.277      4.340     11.425
REMARK INTER + INTRA:         -34.515
REMARK INTER:                 -33.365
REMARK INTRA:                  -1.150
REMARK CONF_INDEPENDENT:        2.088
REMARK UNBOUND:                -1.150
REMARK  7 active torsions:
REMARK  status: ('A' for Active; 'I' for Inactive)
REMARK    1  A    between atoms: C6_6  and  N1_7 
REMARK       I    between atoms: N1_7  and  C7_8 
REMARK    2  A    between atoms: C7_8  and  C8_10 
REMARK    3  A    between atoms: C8_10  and  S1_11 
REMARK    4  A    between atoms: S1_11  and  C9_12 
REMARK    5  A    between atoms: C10_15  and  C11_16 
REMARK    6  A    between atoms: C13_18  and  C14_19 
REMARK    7  A    between atoms: N6_28  and  N7_29 
ROOT
ATOM      1  C9  NON d   1     -45.521  16.741  -5.078  0.00  0.00     0.206 A 
ATOM      2  N2  NON d   1     -46.099  16.338  -6.185  0.00  0.00    -0.121 NA
ATOM      3  N3  NON d   1     -47.440  16.130  -5.898  0.00  0.00    -0.125 NA
ATOM      4  C10 NON d   1     -47.646  16.421  -4.625  0.00  0.00     0.197 A 
ATOM      5  N6  NON d   1     -46.454  16.840  -4.073  0.00  0.00    -0.234 N 
ENDROOT
BRANCH   1   6
ATOM      6  S1  NON d   1     -43.847  17.049  -4.794  0.00  0.00    -0.080 SA
BRANCH   6   7
ATOM      7  C8  NON d   1     -43.702  18.847  -5.056  0.00  0.00     0.185 C 
BRANCH   7   8
ATOM      8  C7  NON d   1     -42.245  19.277  -4.836  0.00  0.00     0.231 C 
ATOM      9  N1  NON d   1     -41.692  18.793  -3.656  0.00  0.00    -0.327 N 
ATOM     10  H7  NON d   1     -42.215  18.094  -3.143  0.00  0.00     0.169 HD
ATOM     11  O1  NON d   1     -41.639  19.948  -5.670  0.00  0.00    -0.272 OA
BRANCH   9  12
ATOM     12  C6  NON d   1     -40.402  19.096  -3.148  0.00  0.00     0.035 A 
ATOM     13  C5  NON d   1     -40.178  20.391  -2.667  0.00  0.00     0.029 A 
ATOM     14  C4  NON d   1     -38.927  20.757  -2.158  0.00  0.00     0.003 A 
ATOM     15  C3  NON d   1     -37.881  19.837  -2.134  0.00  0.00     0.007 A 
ATOM     16  C2  NON d   1     -38.082  18.539  -2.612  0.00  0.00    -0.060 A 
ATOM     17  C1  NON d   1     -36.951  17.552  -2.640  0.00  0.00     0.048 C 
ATOM     18  C20 NON d   1     -39.342  18.185  -3.126  0.00  0.00     0.036 A 
ENDBRANCH   9  12
ENDBRANCH   7   8
ENDBRANCH   6   7
ENDBRANCH   1   6
BRANCH   5  19
ATOM     19  N7  NON d   1     -46.238  17.260  -2.698  0.00  0.00    -0.239 NA
ATOM     20  H16 NON d   1     -45.343  16.880  -2.375  0.00  0.00     0.143 HD
ATOM     21  H17 NON d   1     -46.925  16.801  -2.096  0.00  0.00     0.143 HD
ENDBRANCH   5  19
BRANCH   4  22
ATOM     22  C11 NON d   1     -48.887  16.282  -3.935  0.00  0.00     0.101 A 
ATOM     23  C12 NON d   1     -49.656  17.203  -3.258  0.00  0.00     0.069 A 
ATOM     24  C13 NON d   1     -50.816  16.503  -2.808  0.00  0.00     0.089 A 
ATOM     25  N4  NON d   1     -50.749  15.214  -3.186  0.00  0.00    -0.174 NA
ATOM     26  N5  NON d   1     -49.582  15.110  -3.839  0.00  0.00    -0.274 N 
ATOM     27  H15 NON d   1     -49.313  14.205  -4.217  0.00  0.00     0.189 HD
BRANCH  24  28
ATOM     28  C14 NON d   1     -51.962  17.024  -2.048  0.00  0.00    -0.006 A 
ATOM     29  C15 NON d   1     -53.281  16.753  -2.445  0.00  0.00     0.015 A 
ATOM     30  C16 NON d   1     -54.367  17.258  -1.722  0.00  0.00     0.024 A 
ATOM     31  C17 NON d   1     -54.147  18.040  -0.591  0.00  0.00     0.034 A 
ATOM     32 Cl1  NON d   1     -55.483  18.665   0.292  0.00  0.00    -0.084 Cl
ATOM     33  C18 NON d   1     -52.847  18.321  -0.177  0.00  0.00     0.024 A 
ATOM     34  C19 NON d   1     -51.763  17.814  -0.903  0.00  0.00     0.015 A 
ENDBRANCH  24  28
ENDBRANCH   4  22
TORSDOF 7
ENDMDL
