MODEL 1
REMARK VINA RESULT:   -16.336      0.000      0.000
REMARK INTER + INTRA:         -20.091
REMARK INTER:                 -19.319
REMARK INTRA:                  -0.772
REMARK CONF_INDEPENDENT:        2.983
REMARK UNBOUND:                -0.772
REMARK  10 active torsions:
REMARK  status: ('A' for Active; 'I' for Inactive)
REMARK    1  A    between atoms: C3_3  and  C2_2 
REMARK    2  A    between atoms: C3_3  and  C4_4 
REMARK    3  A    between atoms: C3_3  and  N3_21 
REMARK    4  A    between atoms: C4_4  and  C5_5 
REMARK    5  A    between atoms: C5_5  and  N1_6 
REMARK    6  A    between atoms: N1_6  and  S1_7 
REMARK    7  A    between atoms: S1_7  and  C6_10 
REMARK    8  A    between atoms: C9_13  and  N2_14 
REMARK       I    between atoms: N2_14  and  C10_15 
REMARK    9  A    between atoms: C10_15  and  O4_17 
REMARK   10  A    between atoms: C14_23  and  C15_24 
ROOT
ATOM      1  N1  NON d   1     -44.970  16.625  -5.482  0.00  0.00    -0.315 N 
ATOM      2  H11 NON d   1     -44.538  15.739  -5.738  0.00  0.00     0.172 HD
ENDROOT
BRANCH   1   3
ATOM      3  C5  NON d   1     -44.147  17.683  -5.046  0.00  0.00     0.134 C 
BRANCH   3   4
ATOM      4  C4  NON d   1     -42.714  17.258  -5.057  0.00  0.00     0.047 C 
BRANCH   4   5
ATOM      5  C3  NON d   1     -41.453  18.008  -4.367  0.00  0.00     0.111 C 
BRANCH   5   6
ATOM      6  C2  NON d   1     -41.153  18.081  -2.858  0.00  0.00     0.023 C 
ATOM      7  C1  NON d   1     -39.828  17.523  -2.308  0.00  0.00     0.007 C 
ENDBRANCH   5   6
BRANCH   5   8
ATOM      8  N3  NON d   1     -40.682  18.908  -5.351  0.00  0.00    -0.269 N 
ATOM      9  N4  NON d   1     -40.665  18.892  -6.892  0.00  0.00    -0.167 NA
ATOM     10  C14 NON d   1     -40.001  20.118  -7.419  0.00  0.00     0.162 C 
ATOM     11  C16 NON d   1     -40.166  21.000  -6.263  0.00  0.00     0.064 C 
ATOM     12  C17 NON d   1     -40.650  20.341  -5.128  0.00  0.00     0.029 C 
ATOM     13  C18 NON d   1     -41.064  21.040  -3.878  0.00  0.00     0.070 C 
BRANCH  10  14
ATOM     14  C15 NON d   1     -39.970  20.640  -8.867  0.00  0.00     0.436 C 
ATOM     15  F1  NON d   1     -39.940  21.162 -10.316  0.00  0.00    -0.165 F 
ATOM     16  F2  NON d   1     -40.234  21.994  -8.466  0.00  0.00    -0.165 F 
ATOM     17  F3  NON d   1     -41.285  20.138  -9.140  0.00  0.00    -0.165 F 
ENDBRANCH  10  14
ENDBRANCH   5   8
ENDBRANCH   4   5
ENDBRANCH   3   4
ENDBRANCH   1   3
BRANCH   1  18
ATOM     18  S1  NON d   1     -46.429  16.416  -5.035  0.00  0.00     0.258 S 
ATOM     19  O1  NON d   1     -46.742  17.630  -5.810  0.00  0.00    -0.201 OA
ATOM     20  O2  NON d   1     -46.325  15.166  -5.809  0.00  0.00    -0.201 OA
BRANCH  18  21
ATOM     21  C6  NON d   1     -47.888  16.209  -4.588  0.00  0.00     0.079 C 
ATOM     22  C7  NON d   1     -48.657  15.039  -4.888  0.00  0.00     0.027 C 
ATOM     23  C8  NON d   1     -49.869  14.692  -4.222  0.00  0.00     0.031 C 
ATOM     24  C9  NON d   1     -50.387  15.513  -3.220  0.00  0.00     0.036 C 
ATOM     25  C12 NON d   1     -49.590  16.534  -2.741  0.00  0.00     0.031 C 
ATOM     26  C13 NON d   1     -48.381  16.836  -3.383  0.00  0.00     0.027 C 
BRANCH  24  27
ATOM     27  N2  NON d   1     -51.727  15.376  -2.810  0.00  0.00    -0.303 N 
ATOM     28  C10 NON d   1     -52.530  16.430  -2.435  0.00  0.00     0.364 C 
ATOM     29  O3  NON d   1     -52.204  17.606  -2.354  0.00  0.00    -0.238 OA
ATOM     30  H14 NON d   1     -52.238  14.542  -3.073  0.00  0.00     0.171 HD
BRANCH  28  31
ATOM     31  O4  NON d   1     -53.805  15.982  -2.273  0.00  0.00    -0.309 OA
ATOM     32  C11 NON d   1     -54.827  16.903  -2.686  0.00  0.00     0.215 C 
ENDBRANCH  28  31
ENDBRANCH  24  27
ENDBRANCH  18  21
ENDBRANCH   1  18
TORSDOF 10
ENDMDL
MODEL 2
REMARK VINA RESULT:   -15.968      1.661      2.337
REMARK INTER + INTRA:         -19.793
REMARK INTER:                 -18.951
REMARK INTRA:                  -0.843
REMARK CONF_INDEPENDENT:        2.983
REMARK UNBOUND:                -0.843
REMARK  10 active torsions:
REMARK  status: ('A' for Active; 'I' for Inactive)
REMARK    1  A    between atoms: C3_3  and  C2_2 
REMARK    2  A    between atoms: C3_3  and  C4_4 
REMARK    3  A    between atoms: C3_3  and  N3_21 
REMARK    4  A    between atoms: C4_4  and  C5_5 
REMARK    5  A    between atoms: C5_5  and  N1_6 
REMARK    6  A    between atoms: N1_6  and  S1_7 
REMARK    7  A    between atoms: S1_7  and  C6_10 
REMARK    8  A    between atoms: C9_13  and  N2_14 
REMARK       I    between atoms: N2_14  and  C10_15 
REMARK    9  A    between atoms: C10_15  and  O4_17 
REMARK   10  A    between atoms: C14_23  and  C15_24 
ROOT
ATOM      1  N1  NON d   1     -45.049  16.635  -5.478  0.00  0.00    -0.315 N 
ATOM      2  H11 NON d   1     -44.605  15.749  -5.713  0.00  0.00     0.172 HD
ENDROOT
BRANCH   1   3
ATOM      3  C5  NON d   1     -44.241  17.711  -5.060  0.00  0.00     0.134 C 
BRANCH   3   4
ATOM      4  C4  NON d   1     -42.873  17.221  -4.709  0.00  0.00     0.047 C 
BRANCH   4   5
ATOM      5  C3  NON d   1     -41.699  18.032  -3.939  0.00  0.00     0.111 C 
BRANCH   5   6
ATOM      6  C2  NON d   1     -41.041  17.631  -2.605  0.00  0.00     0.023 C 
ATOM      7  C1  NON d   1     -39.508  17.640  -2.470  0.00  0.00     0.007 C 
ENDBRANCH   5   6
BRANCH   5   8
ATOM      8  N3  NON d   1     -41.458  19.435  -4.526  0.00  0.00    -0.269 N 
ATOM      9  N4  NON d   1     -41.086  20.750  -3.813  0.00  0.00    -0.167 NA
ATOM     10  C14 NON d   1     -40.680  21.785  -4.806  0.00  0.00     0.162 C 
ATOM     11  C16 NON d   1     -40.304  20.917  -5.923  0.00  0.00     0.064 C 
ATOM     12  C17 NON d   1     -40.647  19.576  -5.722  0.00  0.00     0.029 C 
ATOM     13  C18 NON d   1     -40.225  18.468  -6.627  0.00  0.00     0.070 C 
BRANCH  10  14
ATOM     14  C15 NON d   1     -40.007  23.145  -4.546  0.00  0.00     0.436 C 
ATOM     15  F1  NON d   1     -39.334  24.507  -4.288  0.00  0.00    -0.165 F 
ATOM     16  F2  NON d   1     -41.113  23.631  -3.770  0.00  0.00    -0.165 F 
ATOM     17  F3  NON d   1     -40.322  23.620  -5.862  0.00  0.00    -0.165 F 
ENDBRANCH  10  14
ENDBRANCH   5   8
ENDBRANCH   4   5
ENDBRANCH   3   4
ENDBRANCH   1   3
BRANCH   1  18
ATOM     18  S1  NON d   1     -46.508  16.418  -5.035  0.00  0.00     0.258 S 
ATOM     19  O1  NON d   1     -46.825  17.630  -5.811  0.00  0.00    -0.201 OA
ATOM     20  O2  NON d   1     -46.395  15.168  -5.809  0.00  0.00    -0.201 OA
BRANCH  18  21
ATOM     21  C6  NON d   1     -47.967  16.203  -4.592  0.00  0.00     0.079 C 
ATOM     22  C7  NON d   1     -48.710  15.006  -4.844  0.00  0.00     0.027 C 
ATOM     23  C8  NON d   1     -49.922  14.666  -4.174  0.00  0.00     0.031 C 
ATOM     24  C9  NON d   1     -50.464  15.521  -3.214  0.00  0.00     0.036 C 
ATOM     25  C12 NON d   1     -49.692  16.578  -2.776  0.00  0.00     0.031 C 
ATOM     26  C13 NON d   1     -48.483  16.874  -3.420  0.00  0.00     0.027 C 
BRANCH  24  27
ATOM     27  N2  NON d   1     -51.805  15.376  -2.810  0.00  0.00    -0.303 N 
ATOM     28  C10 NON d   1     -52.615  16.426  -2.435  0.00  0.00     0.364 C 
ATOM     29  O3  NON d   1     -52.295  17.603  -2.349  0.00  0.00    -0.238 OA
ATOM     30  H14 NON d   1     -52.312  14.541  -3.077  0.00  0.00     0.171 HD
BRANCH  28  31
ATOM     31  O4  NON d   1     -53.889  15.972  -2.280  0.00  0.00    -0.309 OA
ATOM     32  C11 NON d   1     -54.914  16.934  -2.568  0.00  0.00     0.215 C 
ENDBRANCH  28  31
ENDBRANCH  24  27
ENDBRANCH  18  21
ENDBRANCH   1  18
TORSDOF 10
ENDMDL
MODEL 3
REMARK VINA RESULT:   -15.616      2.728      3.564
REMARK INTER + INTRA:         -19.499
REMARK INTER:                 -18.599
REMARK INTRA:                  -0.900
REMARK CONF_INDEPENDENT:        2.983
REMARK UNBOUND:                -0.900
REMARK  10 active torsions:
REMARK  status: ('A' for Active; 'I' for Inactive)
REMARK    1  A    between atoms: C3_3  and  C2_2 
REMARK    2  A    between atoms: C3_3  and  C4_4 
REMARK    3  A    between atoms: C3_3  and  N3_21 
REMARK    4  A    between atoms: C4_4  and  C5_5 
REMARK    5  A    between atoms: C5_5  and  N1_6 
REMARK    6  A    between atoms: N1_6  and  S1_7 
REMARK    7  A    between atoms: S1_7  and  C6_10 
REMARK    8  A    between atoms: C9_13  and  N2_14 
REMARK       I    between atoms: N2_14  and  C10_15 
REMARK    9  A    between atoms: C10_15  and  O4_17 
REMARK   10  A    between atoms: C14_23  and  C15_24 
ROOT
ATOM      1  N1  NON d   1     -44.905  16.536  -5.435  0.00  0.00    -0.315 N 
ATOM      2  H11 NON d   1     -44.663  15.889  -6.182  0.00  0.00     0.172 HD
ENDROOT
BRANCH   1   3
ATOM      3  C5  NON d   1     -43.883  17.022  -4.595  0.00  0.00     0.134 C 
BRANCH   3   4
ATOM      4  C4  NON d   1     -43.541  18.430  -4.964  0.00  0.00     0.047 C 
BRANCH   4   5
ATOM      5  C3  NON d   1     -42.067  19.057  -5.216  0.00  0.00     0.111 C 
BRANCH   5   6
ATOM      6  C2  NON d   1     -41.489  19.505  -6.571  0.00  0.00     0.023 C 
ATOM      7  C1  NON d   1     -40.228  18.823  -7.133  0.00  0.00     0.007 C 
ENDBRANCH   5   6
BRANCH   5   8
ATOM      8  N3  NON d   1     -41.145  18.925  -3.990  0.00  0.00    -0.269 N 
ATOM      9  N4  NON d   1     -39.970  17.957  -3.742  0.00  0.00    -0.167 NA
ATOM     10  C14 NON d   1     -39.193  18.377  -2.541  0.00  0.00     0.162 C 
ATOM     11  C16 NON d   1     -39.573  19.790  -2.487  0.00  0.00     0.064 C 
ATOM     12  C17 NON d   1     -40.600  20.122  -3.376  0.00  0.00     0.029 C 
ATOM     13  C18 NON d   1     -41.051  21.519  -3.637  0.00  0.00     0.070 C 
BRANCH  10  14
ATOM     14  C15 NON d   1     -37.821  17.866  -2.064  0.00  0.00     0.436 C 
ATOM     15  F1  NON d   1     -36.449  17.353  -1.587  0.00  0.00    -0.165 F 
ATOM     16  F2  NON d   1     -37.232  19.175  -2.106  0.00  0.00    -0.165 F 
ATOM     17  F3  NON d   1     -37.499  17.341  -3.359  0.00  0.00    -0.165 F 
ENDBRANCH  10  14
ENDBRANCH   5   8
ENDBRANCH   4   5
ENDBRANCH   3   4
ENDBRANCH   1   3
BRANCH   1  18
ATOM     18  S1  NON d   1     -46.372  16.351  -5.002  0.00  0.00     0.258 S 
ATOM     19  O1  NON d   1     -46.650  17.595  -5.742  0.00  0.00    -0.201 OA
ATOM     20  O2  NON d   1     -46.295  15.122  -5.812  0.00  0.00    -0.201 OA
BRANCH  18  21
ATOM     21  C6  NON d   1     -47.838  16.168  -4.569  0.00  0.00     0.079 C 
ATOM     22  C7  NON d   1     -48.619  15.006  -4.866  0.00  0.00     0.027 C 
ATOM     23  C8  NON d   1     -49.843  14.681  -4.211  0.00  0.00     0.031 C 
ATOM     24  C9  NON d   1     -50.360  15.517  -3.221  0.00  0.00     0.036 C 
ATOM     25  C12 NON d   1     -49.555  16.533  -2.744  0.00  0.00     0.031 C 
ATOM     26  C13 NON d   1     -48.336  16.813  -3.375  0.00  0.00     0.027 C 
BRANCH  24  27
ATOM     27  N2  NON d   1     -51.707  15.402  -2.825  0.00  0.00    -0.303 N 
ATOM     28  C10 NON d   1     -52.489  16.467  -2.433  0.00  0.00     0.364 C 
ATOM     29  O3  NON d   1     -52.137  17.632  -2.324  0.00  0.00    -0.238 OA
ATOM     30  H14 NON d   1     -52.235  14.587  -3.110  0.00  0.00     0.171 HD
BRANCH  28  31
ATOM     31  O4  NON d   1     -53.775  16.044  -2.291  0.00  0.00    -0.309 OA
ATOM     32  C11 NON d   1     -54.769  17.069  -2.446  0.00  0.00     0.215 C 
ENDBRANCH  28  31
ENDBRANCH  24  27
ENDBRANCH  18  21
ENDBRANCH   1  18
TORSDOF 10
ENDMDL
MODEL 4
REMARK VINA RESULT:   -15.023      3.253      5.450
REMARK INTER + INTRA:         -19.483
REMARK INTER:                 -18.006
REMARK INTRA:                  -1.477
REMARK CONF_INDEPENDENT:        2.983
REMARK UNBOUND:                -1.477
REMARK  10 active torsions:
REMARK  status: ('A' for Active; 'I' for Inactive)
REMARK    1  A    between atoms: C3_3  and  C2_2 
REMARK    2  A    between atoms: C3_3  and  C4_4 
REMARK    3  A    between atoms: C3_3  and  N3_21 
REMARK    4  A    between atoms: C4_4  and  C5_5 
REMARK    5  A    between atoms: C5_5  and  N1_6 
REMARK    6  A    between atoms: N1_6  and  S1_7 
REMARK    7  A    between atoms: S1_7  and  C6_10 
REMARK    8  A    between atoms: C9_13  and  N2_14 
REMARK       I    between atoms: N2_14  and  C10_15 
REMARK    9  A    between atoms: C10_15  and  O4_17 
REMARK   10  A    between atoms: C14_23  and  C15_24 
ROOT
ATOM      1  N1  NON d   1     -39.147  18.608  -2.630  0.00  0.00    -0.315 N 
ATOM      2  H11 NON d   1     -39.038  18.419  -1.636  0.00  0.00     0.172 HD
ENDROOT
BRANCH   1   3
ATOM      3  C5  NON d   1     -38.207  19.439  -3.272  0.00  0.00     0.134 C 
BRANCH   3   4
ATOM      4  C4  NON d   1     -38.714  19.841  -4.620  0.00  0.00     0.047 C 
BRANCH   4   5
ATOM      5  C3  NON d   1     -39.793  21.001  -4.967  0.00  0.00     0.111 C 
BRANCH   5   6
ATOM      6  C2  NON d   1     -40.699  21.731  -3.958  0.00  0.00     0.023 C 
ATOM      7  C1  NON d   1     -40.087  22.382  -2.704  0.00  0.00     0.007 C 
ENDBRANCH   5   6
BRANCH   5   8
ATOM      8  N3  NON d   1     -40.050  21.144  -6.478  0.00  0.00    -0.269 N 
ATOM      9  N4  NON d   1     -39.422  22.118  -7.496  0.00  0.00    -0.167 NA
ATOM     10  C14 NON d   1     -39.761  21.708  -8.888  0.00  0.00     0.162 C 
ATOM     11  C16 NON d   1     -40.064  20.294  -8.659  0.00  0.00     0.064 C 
ATOM     12  C17 NON d   1     -40.123  19.952  -7.304  0.00  0.00     0.029 C 
ATOM     13  C18 NON d   1     -40.245  18.552  -6.807  0.00  0.00     0.070 C 
BRANCH  10  14
ATOM     14  C15 NON d   1     -39.166  22.228 -10.209  0.00  0.00     0.436 C 
ATOM     15  F1  NON d   1     -38.570  22.750 -11.530  0.00  0.00    -0.165 F 
ATOM     16  F2  NON d   1     -37.824  21.886  -9.828  0.00  0.00    -0.165 F 
ATOM     17  F3  NON d   1     -39.267  23.595  -9.786  0.00  0.00    -0.165 F 
ENDBRANCH  10  14
ENDBRANCH   5   8
ENDBRANCH   4   5
ENDBRANCH   3   4
ENDBRANCH   1   3
BRANCH   1  18
ATOM     18  S1  NON d   1     -40.620  18.466  -3.058  0.00  0.00     0.258 S 
ATOM     19  O1  NON d   1     -40.596  17.162  -2.373  0.00  0.00    -0.201 OA
ATOM     20  O2  NON d   1     -40.824  19.644  -2.195  0.00  0.00    -0.201 OA
BRANCH  18  21
ATOM     21  C6  NON d   1     -42.092  18.323  -3.487  0.00  0.00     0.079 C 
ATOM     22  C7  NON d   1     -42.689  19.067  -4.553  0.00  0.00     0.027 C 
ATOM     23  C8  NON d   1     -43.930  18.723  -5.166  0.00  0.00     0.031 C 
ATOM     24  C9  NON d   1     -44.650  17.610  -4.731  0.00  0.00     0.036 C 
ATOM     25  C12 NON d   1     -44.030  16.737  -3.859  0.00  0.00     0.031 C 
ATOM     26  C13 NON d   1     -42.792  17.072  -3.297  0.00  0.00     0.027 C 
BRANCH  24  27
ATOM     27  N2  NON d   1     -46.008  17.463  -5.074  0.00  0.00    -0.303 N 
ATOM     28  C10 NON d   1     -46.522  16.370  -5.736  0.00  0.00     0.364 C 
ATOM     29  O3  NON d   1     -45.896  15.409  -6.159  0.00  0.00    -0.238 OA
ATOM     30  H14 NON d   1     -46.702  18.006  -4.575  0.00  0.00     0.171 HD
BRANCH  28  31
ATOM     31  O4  NON d   1     -47.881  16.458  -5.751  0.00  0.00    -0.309 OA
ATOM     32  C11 NON d   1     -48.562  15.413  -5.041  0.00  0.00     0.215 C 
ENDBRANCH  28  31
ENDBRANCH  24  27
ENDBRANCH  18  21
ENDBRANCH   1  18
TORSDOF 10
ENDMDL
MODEL 5
REMARK VINA RESULT:   -14.948      3.799      6.074
REMARK INTER + INTRA:         -19.813
REMARK INTER:                 -17.931
REMARK INTRA:                  -1.882
REMARK CONF_INDEPENDENT:        2.983
REMARK UNBOUND:                -1.882
REMARK  10 active torsions:
REMARK  status: ('A' for Active; 'I' for Inactive)
REMARK    1  A    between atoms: C3_3  and  C2_2 
REMARK    2  A    between atoms: C3_3  and  C4_4 
REMARK    3  A    between atoms: C3_3  and  N3_21 
REMARK    4  A    between atoms: C4_4  and  C5_5 
REMARK    5  A    between atoms: C5_5  and  N1_6 
REMARK    6  A    between atoms: N1_6  and  S1_7 
REMARK    7  A    between atoms: S1_7  and  C6_10 
REMARK    8  A    between atoms: C9_13  and  N2_14 
REMARK       I    between atoms: N2_14  and  C10_15 
REMARK    9  A    between atoms: C10_15  and  O4_17 
REMARK   10  A    between atoms: C14_23  and  C15_24 
ROOT
ATOM      1  N1  NON d   1     -39.135  18.392  -2.536  0.00  0.00    -0.315 N 
ATOM      2  H11 NON d   1     -39.039  18.144  -1.554  0.00  0.00     0.172 HD
ENDROOT
BRANCH   1   3
ATOM      3  C5  NON d   1     -38.181  19.251  -3.118  0.00  0.00     0.134 C 
BRANCH   3   4
ATOM      4  C4  NON d   1     -38.134  19.040  -4.597  0.00  0.00     0.047 C 
BRANCH   4   5
ATOM      5  C3  NON d   1     -39.269  19.426  -5.689  0.00  0.00     0.111 C 
BRANCH   5   6
ATOM      6  C2  NON d   1     -39.441  18.797  -7.083  0.00  0.00     0.023 C 
ATOM      7  C1  NON d   1     -38.248  18.736  -8.054  0.00  0.00     0.007 C 
ENDBRANCH   5   6
BRANCH   5   8
ATOM      8  N3  NON d   1     -40.037  20.710  -5.322  0.00  0.00    -0.269 N 
ATOM      9  N4  NON d   1     -40.365  21.299  -3.935  0.00  0.00    -0.167 NA
ATOM     10  C14 NON d   1     -40.878  22.692  -4.068  0.00  0.00     0.162 C 
ATOM     11  C16 NON d   1     -40.322  23.032  -5.379  0.00  0.00     0.064 C 
ATOM     12  C17 NON d   1     -39.754  21.939  -6.041  0.00  0.00     0.029 C 
ATOM     13  C18 NON d   1     -38.975  22.049  -7.308  0.00  0.00     0.070 C 
BRANCH  10  14
ATOM     14  C15 NON d   1     -41.098  23.739  -2.961  0.00  0.00     0.436 C 
ATOM     15  F1  NON d   1     -41.318  24.786  -1.852  0.00  0.00    -0.165 F 
ATOM     16  F2  NON d   1     -40.056  24.595  -3.456  0.00  0.00    -0.165 F 
ATOM     17  F3  NON d   1     -40.406  22.944  -1.989  0.00  0.00    -0.165 F 
ENDBRANCH  10  14
ENDBRANCH   5   8
ENDBRANCH   4   5
ENDBRANCH   3   4
ENDBRANCH   1   3
BRANCH   1  18
ATOM     18  S1  NON d   1     -40.604  18.290  -2.988  0.00  0.00     0.258 S 
ATOM     19  O1  NON d   1     -40.565  16.905  -2.486  0.00  0.00    -0.201 OA
ATOM     20  O2  NON d   1     -40.828  19.337  -1.974  0.00  0.00    -0.201 OA
BRANCH  18  21
ATOM     21  C6  NON d   1     -42.072  18.186  -3.440  0.00  0.00     0.079 C 
ATOM     22  C7  NON d   1     -42.638  18.962  -4.502  0.00  0.00     0.027 C 
ATOM     23  C8  NON d   1     -43.876  18.655  -5.139  0.00  0.00     0.031 C 
ATOM     24  C9  NON d   1     -44.627  17.551  -4.734  0.00  0.00     0.036 C 
ATOM     25  C12 NON d   1     -44.039  16.650  -3.868  0.00  0.00     0.031 C 
ATOM     26  C13 NON d   1     -42.802  16.948  -3.282  0.00  0.00     0.027 C 
BRANCH  24  27
ATOM     27  N2  NON d   1     -45.982  17.440  -5.099  0.00  0.00    -0.303 N 
ATOM     28  C10 NON d   1     -46.515  16.358  -5.764  0.00  0.00     0.364 C 
ATOM     29  O3  NON d   1     -45.909  15.378  -6.173  0.00  0.00    -0.238 OA
ATOM     30  H14 NON d   1     -46.669  18.004  -4.614  0.00  0.00     0.171 HD
BRANCH  28  31
ATOM     31  O4  NON d   1     -47.870  16.483  -5.802  0.00  0.00    -0.309 OA
ATOM     32  C11 NON d   1     -48.558  15.961  -4.656  0.00  0.00     0.215 C 
ENDBRANCH  28  31
ENDBRANCH  24  27
ENDBRANCH  18  21
ENDBRANCH   1  18
TORSDOF 10
ENDMDL
MODEL 6
REMARK VINA RESULT:   -14.874      3.195      5.634
REMARK INTER + INTRA:         -19.576
REMARK INTER:                 -17.857
REMARK INTRA:                  -1.718
REMARK CONF_INDEPENDENT:        2.983
REMARK UNBOUND:                -1.718
REMARK  10 active torsions:
REMARK  status: ('A' for Active; 'I' for Inactive)
REMARK    1  A    between atoms: C3_3  and  C2_2 
REMARK    2  A    between atoms: C3_3  and  C4_4 
REMARK    3  A    between atoms: C3_3  and  N3_21 
REMARK    4  A    between atoms: C4_4  and  C5_5 
REMARK    5  A    between atoms: C5_5  and  N1_6 
REMARK    6  A    between atoms: N1_6  and  S1_7 
REMARK    7  A    between atoms: S1_7  and  C6_10 
REMARK    8  A    between atoms: C9_13  and  N2_14 
REMARK       I    between atoms: N2_14  and  C10_15 
REMARK    9  A    between atoms: C10_15  and  O4_17 
REMARK   10  A    between atoms: C14_23  and  C15_24 
ROOT
ATOM      1  N1  NON d   1     -39.127  18.278  -2.573  0.00  0.00    -0.315 N 
ATOM      2  H11 NON d   1     -39.002  17.885  -1.642  0.00  0.00     0.172 HD
ENDROOT
BRANCH   1   3
ATOM      3  C5  NON d   1     -38.218  19.253  -3.029  0.00  0.00     0.134 C 
BRANCH   3   4
ATOM      4  C4  NON d   1     -37.406  18.710  -4.161  0.00  0.00     0.047 C 
BRANCH   4   5
ATOM      5  C3  NON d   1     -37.632  18.954  -5.747  0.00  0.00     0.111 C 
BRANCH   5   6
ATOM      6  C2  NON d   1     -36.769  18.383  -6.888  0.00  0.00     0.023 C 
ATOM      7  C1  NON d   1     -37.304  18.379  -8.331  0.00  0.00     0.007 C 
ENDBRANCH   5   6
BRANCH   5   8
ATOM      8  N3  NON d   1     -38.661  20.062  -6.040  0.00  0.00    -0.269 N 
ATOM      9  N4  NON d   1     -38.436  21.521  -6.486  0.00  0.00    -0.167 NA
ATOM     10  C14 NON d   1     -39.722  22.138  -6.918  0.00  0.00     0.162 C 
ATOM     11  C16 NON d   1     -40.481  20.926  -7.230  0.00  0.00     0.064 C 
ATOM     12  C17 NON d   1     -39.837  19.750  -6.831  0.00  0.00     0.029 C 
ATOM     13  C18 NON d   1     -40.315  18.382  -7.182  0.00  0.00     0.070 C 
BRANCH  10  14
ATOM     14  C15 NON d   1     -39.941  23.470  -7.658  0.00  0.00     0.436 C 
ATOM     15  F1  NON d   1     -40.160  24.804  -8.397  0.00  0.00    -0.165 F 
ATOM     16  F2  NON d   1     -39.714  22.881  -8.948  0.00  0.00    -0.165 F 
ATOM     17  F3  NON d   1     -38.637  23.950  -7.304  0.00  0.00    -0.165 F 
ENDBRANCH  10  14
ENDBRANCH   5   8
ENDBRANCH   4   5
ENDBRANCH   3   4
ENDBRANCH   1   3
BRANCH   1  18
ATOM     18  S1  NON d   1     -40.600  18.188  -3.014  0.00  0.00     0.258 S 
ATOM     19  O1  NON d   1     -40.922  18.037  -1.584  0.00  0.00    -0.201 OA
ATOM     20  O2  NON d   1     -40.383  19.568  -3.484  0.00  0.00    -0.201 OA
BRANCH  18  21
ATOM     21  C6  NON d   1     -42.073  18.097  -3.454  0.00  0.00     0.079 C 
ATOM     22  C7  NON d   1     -42.672  18.963  -4.424  0.00  0.00     0.027 C 
ATOM     23  C8  NON d   1     -43.913  18.694  -5.071  0.00  0.00     0.031 C 
ATOM     24  C9  NON d   1     -44.633  17.537  -4.770  0.00  0.00     0.036 C 
ATOM     25  C12 NON d   1     -44.013  16.567  -4.008  0.00  0.00     0.031 C 
ATOM     26  C13 NON d   1     -42.774  16.833  -3.412  0.00  0.00     0.027 C 
BRANCH  24  27
ATOM     27  N2  NON d   1     -45.992  17.433  -5.125  0.00  0.00    -0.303 N 
ATOM     28  C10 NON d   1     -46.536  16.349  -5.779  0.00  0.00     0.364 C 
ATOM     29  O3  NON d   1     -45.939  15.363  -6.184  0.00  0.00    -0.238 OA
ATOM     30  H14 NON d   1     -46.672  18.005  -4.641  0.00  0.00     0.171 HD
BRANCH  28  31
ATOM     31  O4  NON d   1     -47.891  16.483  -5.810  0.00  0.00    -0.309 OA
ATOM     32  C11 NON d   1     -48.576  15.974  -4.656  0.00  0.00     0.215 C 
ENDBRANCH  28  31
ENDBRANCH  24  27
ENDBRANCH  18  21
ENDBRANCH   1  18
TORSDOF 10
ENDMDL
MODEL 7
REMARK VINA RESULT:   -14.390      4.506      6.739
REMARK INTER + INTRA:         -19.463
REMARK INTER:                 -17.373
REMARK INTRA:                  -2.090
REMARK CONF_INDEPENDENT:        2.983
REMARK UNBOUND:                -2.090
REMARK  10 active torsions:
REMARK  status: ('A' for Active; 'I' for Inactive)
REMARK    1  A    between atoms: C3_3  and  C2_2 
REMARK    2  A    between atoms: C3_3  and  C4_4 
REMARK    3  A    between atoms: C3_3  and  N3_21 
REMARK    4  A    between atoms: C4_4  and  C5_5 
REMARK    5  A    between atoms: C5_5  and  N1_6 
REMARK    6  A    between atoms: N1_6  and  S1_7 
REMARK    7  A    between atoms: S1_7  and  C6_10 
REMARK    8  A    between atoms: C9_13  and  N2_14 
REMARK       I    between atoms: N2_14  and  C10_15 
REMARK    9  A    between atoms: C10_15  and  O4_17 
REMARK   10  A    between atoms: C14_23  and  C15_24 
ROOT
ATOM      1  N1  NON d   1     -39.181  18.634  -2.682  0.00  0.00    -0.315 N 
ATOM      2  H11 NON d   1     -39.112  19.123  -1.792  0.00  0.00     0.172 HD
ENDROOT
BRANCH   1   3
ATOM      3  C5  NON d   1     -38.087  18.680  -3.569  0.00  0.00     0.134 C 
BRANCH   3   4
ATOM      4  C4  NON d   1     -38.147  19.925  -4.395  0.00  0.00     0.047 C 
BRANCH   4   5
ATOM      5  C3  NON d   1     -39.442  20.855  -4.692  0.00  0.00     0.111 C 
BRANCH   5   6
ATOM      6  C2  NON d   1     -39.918  21.337  -6.075  0.00  0.00     0.023 C 
ATOM      7  C1  NON d   1     -40.139  20.322  -7.210  0.00  0.00     0.007 C 
ENDBRANCH   5   6
BRANCH   5   8
ATOM      8  N3  NON d   1     -40.040  21.470  -3.413  0.00  0.00    -0.269 N 
ATOM      9  N4  NON d   1     -39.677  21.217  -1.936  0.00  0.00    -0.167 NA
ATOM     10  C14 NON d   1     -40.320  22.236  -1.059  0.00  0.00     0.162 C 
ATOM     11  C16 NON d   1     -40.540  23.299  -2.041  0.00  0.00     0.064 C 
ATOM     12  C17 NON d   1     -40.282  22.900  -3.356  0.00  0.00     0.029 C 
ATOM     13  C18 NON d   1     -40.265  23.834  -4.518  0.00  0.00     0.070 C 
BRANCH  10  14
ATOM     14  C15 NON d   1     -40.050  22.522   0.430  0.00  0.00     0.436 C 
ATOM     15  F1  NON d   1     -39.782  22.808   1.920  0.00  0.00    -0.165 F 
ATOM     16  F2  NON d   1     -40.024  21.127   0.773  0.00  0.00    -0.165 F 
ATOM     17  F3  NON d   1     -41.419  22.873   0.673  0.00  0.00    -0.165 F 
ENDBRANCH  10  14
ENDBRANCH   5   8
ENDBRANCH   4   5
ENDBRANCH   3   4
ENDBRANCH   1   3
BRANCH   1  18
ATOM     18  S1  NON d   1     -40.651  18.491  -3.118  0.00  0.00     0.258 S 
ATOM     19  O1  NON d   1     -40.126  17.919  -4.371  0.00  0.00    -0.201 OA
ATOM     20  O2  NON d   1     -40.739  17.565  -1.974  0.00  0.00    -0.201 OA
BRANCH  18  21
ATOM     21  C6  NON d   1     -42.120  18.347  -3.556  0.00  0.00     0.079 C 
ATOM     22  C7  NON d   1     -42.681  19.002  -4.698  0.00  0.00     0.027 C 
ATOM     23  C8  NON d   1     -43.922  18.634  -5.296  0.00  0.00     0.031 C 
ATOM     24  C9  NON d   1     -44.680  17.588  -4.769  0.00  0.00     0.036 C 
ATOM     25  C12 NON d   1     -44.098  16.786  -3.807  0.00  0.00     0.031 C 
ATOM     26  C13 NON d   1     -42.859  17.140  -3.259  0.00  0.00     0.027 C 
BRANCH  24  27
ATOM     27  N2  NON d   1     -46.037  17.446  -5.119  0.00  0.00    -0.303 N 
ATOM     28  C10 NON d   1     -46.553  16.350  -5.774  0.00  0.00     0.364 C 
ATOM     29  O3  NON d   1     -45.930  15.382  -6.186  0.00  0.00    -0.238 OA
ATOM     30  H14 NON d   1     -46.731  17.997  -4.629  0.00  0.00     0.171 HD
BRANCH  28  31
ATOM     31  O4  NON d   1     -47.911  16.445  -5.799  0.00  0.00    -0.309 OA
ATOM     32  C11 NON d   1     -48.536  16.506  -4.508  0.00  0.00     0.215 C 
ENDBRANCH  28  31
ENDBRANCH  24  27
ENDBRANCH  18  21
ENDBRANCH   1  18
TORSDOF 10
ENDMDL
MODEL 8
REMARK VINA RESULT:   -14.380      3.536      6.009
REMARK INTER + INTRA:         -19.485
REMARK INTER:                 -17.363
REMARK INTRA:                  -2.122
REMARK CONF_INDEPENDENT:        2.983
REMARK UNBOUND:                -2.122
REMARK  10 active torsions:
REMARK  status: ('A' for Active; 'I' for Inactive)
REMARK    1  A    between atoms: C3_3  and  C2_2 
REMARK    2  A    between atoms: C3_3  and  C4_4 
REMARK    3  A    between atoms: C3_3  and  N3_21 
REMARK    4  A    between atoms: C4_4  and  C5_5 
REMARK    5  A    between atoms: C5_5  and  N1_6 
REMARK    6  A    between atoms: N1_6  and  S1_7 
REMARK    7  A    between atoms: S1_7  and  C6_10 
REMARK    8  A    between atoms: C9_13  and  N2_14 
REMARK       I    between atoms: N2_14  and  C10_15 
REMARK    9  A    between atoms: C10_15  and  O4_17 
REMARK   10  A    between atoms: C14_23  and  C15_24 
ROOT
ATOM      1  N1  NON d   1     -38.529  18.331  -2.414  0.00  0.00    -0.315 N 
ATOM      2  H11 NON d   1     -38.491  18.078  -1.429  0.00  0.00     0.172 HD
ENDROOT
BRANCH   1   3
ATOM      3  C5  NON d   1     -37.481  19.099  -2.961  0.00  0.00     0.134 C 
BRANCH   3   4
ATOM      4  C4  NON d   1     -37.747  20.555  -2.748  0.00  0.00     0.047 C 
BRANCH   4   5
ATOM      5  C3  NON d   1     -37.712  21.739  -3.855  0.00  0.00     0.111 C 
BRANCH   5   6
ATOM      6  C2  NON d   1     -37.339  23.212  -3.601  0.00  0.00     0.023 C 
ATOM      7  C1  NON d   1     -37.420  24.236  -4.747  0.00  0.00     0.007 C 
ENDBRANCH   5   6
BRANCH   5   8
ATOM      8  N3  NON d   1     -38.362  21.328  -5.189  0.00  0.00    -0.269 N 
ATOM      9  N4  NON d   1     -38.179  20.041  -6.018  0.00  0.00    -0.167 NA
ATOM     10  C14 NON d   1     -39.215  19.957  -7.086  0.00  0.00     0.162 C 
ATOM     11  C16 NON d   1     -40.231  20.839  -6.510  0.00  0.00     0.064 C 
ATOM     12  C17 NON d   1     -39.786  21.533  -5.379  0.00  0.00     0.029 C 
ATOM     13  C18 NON d   1     -40.673  22.359  -4.512  0.00  0.00     0.070 C 
BRANCH  10  14
ATOM     14  C15 NON d   1     -39.568  18.755  -7.982  0.00  0.00     0.436 C 
ATOM     15  F1  NON d   1     -39.920  17.553  -8.879  0.00  0.00    -0.165 F 
ATOM     16  F2  NON d   1     -40.251  18.067  -6.922  0.00  0.00    -0.165 F 
ATOM     17  F3  NON d   1     -38.240  18.221  -7.891  0.00  0.00    -0.165 F 
ENDBRANCH  10  14
ENDBRANCH   5   8
ENDBRANCH   4   5
ENDBRANCH   3   4
ENDBRANCH   1   3
BRANCH   1  18
ATOM     18  S1  NON d   1     -39.984  18.360  -2.919  0.00  0.00     0.258 S 
ATOM     19  O1  NON d   1     -39.429  18.070  -4.252  0.00  0.00    -0.201 OA
ATOM     20  O2  NON d   1     -40.154  17.200  -2.025  0.00  0.00    -0.201 OA
BRANCH  18  21
ATOM     21  C6  NON d   1     -41.438  18.389  -3.424  0.00  0.00     0.079 C 
ATOM     22  C7  NON d   1     -41.890  19.202  -4.512  0.00  0.00     0.027 C 
ATOM     23  C8  NON d   1     -43.127  19.005  -5.191  0.00  0.00     0.031 C 
ATOM     24  C9  NON d   1     -43.993  17.981  -4.805  0.00  0.00     0.036 C 
ATOM     25  C12 NON d   1     -43.524  17.039  -3.911  0.00  0.00     0.031 C 
ATOM     26  C13 NON d   1     -42.286  17.227  -3.282  0.00  0.00     0.027 C 
BRANCH  24  27
ATOM     27  N2  NON d   1     -45.338  17.993  -5.219  0.00  0.00    -0.303 N 
ATOM     28  C10 NON d   1     -46.019  16.880  -5.663  0.00  0.00     0.364 C 
ATOM     29  O3  NON d   1     -45.564  15.755  -5.810  0.00  0.00    -0.238 OA
ATOM     30  H14 NON d   1     -45.940  18.747  -4.912  0.00  0.00     0.171 HD
BRANCH  28  31
ATOM     31  O4  NON d   1     -47.335  17.193  -5.810  0.00  0.00    -0.309 OA
ATOM     32  C11 NON d   1     -48.233  16.433  -4.988  0.00  0.00     0.215 C 
ENDBRANCH  28  31
ENDBRANCH  24  27
ENDBRANCH  18  21
ENDBRANCH   1  18
TORSDOF 10
ENDMDL
MODEL 9
REMARK VINA RESULT:   -13.681      3.104      5.213
REMARK INTER + INTRA:         -19.121
REMARK INTER:                 -16.664
REMARK INTRA:                  -2.457
REMARK CONF_INDEPENDENT:        2.983
REMARK UNBOUND:                -2.457
REMARK  10 active torsions:
REMARK  status: ('A' for Active; 'I' for Inactive)
REMARK    1  A    between atoms: C3_3  and  C2_2 
REMARK    2  A    between atoms: C3_3  and  C4_4 
REMARK    3  A    between atoms: C3_3  and  N3_21 
REMARK    4  A    between atoms: C4_4  and  C5_5 
REMARK    5  A    between atoms: C5_5  and  N1_6 
REMARK    6  A    between atoms: N1_6  and  S1_7 
REMARK    7  A    between atoms: S1_7  and  C6_10 
REMARK    8  A    between atoms: C9_13  and  N2_14 
REMARK       I    between atoms: N2_14  and  C10_15 
REMARK    9  A    between atoms: C10_15  and  O4_17 
REMARK   10  A    between atoms: C14_23  and  C15_24 
ROOT
ATOM      1  N1  NON d   1     -39.304  18.738  -3.764  0.00  0.00    -0.315 N 
ATOM      2  H11 NON d   1     -38.706  18.713  -4.587  0.00  0.00     0.172 HD
ENDROOT
BRANCH   1   3
ATOM      3  C5  NON d   1     -38.720  18.571  -2.493  0.00  0.00     0.134 C 
BRANCH   3   4
ATOM      4  C4  NON d   1     -38.124  19.860  -2.027  0.00  0.00     0.047 C 
BRANCH   4   5
ATOM      5  C3  NON d   1     -38.636  21.363  -2.356  0.00  0.00     0.111 C 
BRANCH   5   6
ATOM      6  C2  NON d   1     -39.193  22.377  -1.339  0.00  0.00     0.023 C 
ATOM      7  C1  NON d   1     -38.647  22.404   0.100  0.00  0.00     0.007 C 
ENDBRANCH   5   6
BRANCH   5   8
ATOM      8  N3  NON d   1     -38.781  21.627  -3.866  0.00  0.00    -0.269 N 
ATOM      9  N4  NON d   1     -38.272  20.799  -5.063  0.00  0.00    -0.167 NA
ATOM     10  C14 NON d   1     -38.884  21.287  -6.332  0.00  0.00     0.162 C 
ATOM     11  C16 NON d   1     -40.073  21.948  -5.791  0.00  0.00     0.064 C 
ATOM     12  C17 NON d   1     -40.066  22.046  -4.396  0.00  0.00     0.029 C 
ATOM     13  C18 NON d   1     -41.228  22.520  -3.592  0.00  0.00     0.070 C 
BRANCH  10  14
ATOM     14  C15 NON d   1     -38.861  20.623  -7.721  0.00  0.00     0.436 C 
ATOM     15  F1  NON d   1     -38.839  19.958  -9.110  0.00  0.00    -0.165 F 
ATOM     16  F2  NON d   1     -38.361  21.806  -8.364  0.00  0.00    -0.165 F 
ATOM     17  F3  NON d   1     -40.280  20.763  -7.878  0.00  0.00    -0.165 F 
ENDBRANCH  10  14
ENDBRANCH   5   8
ENDBRANCH   4   5
ENDBRANCH   3   4
ENDBRANCH   1   3
BRANCH   1  18
ATOM     18  S1  NON d   1     -40.746  18.330  -4.120  0.00  0.00     0.258 S 
ATOM     19  O1  NON d   1     -41.175  19.355  -3.152  0.00  0.00    -0.201 OA
ATOM     20  O2  NON d   1     -40.390  18.820  -5.464  0.00  0.00    -0.201 OA
BRANCH  18  21
ATOM     21  C6  NON d   1     -42.188  17.922  -4.474  0.00  0.00     0.079 C 
ATOM     22  C7  NON d   1     -42.932  16.922  -3.770  0.00  0.00     0.027 C 
ATOM     23  C8  NON d   1     -44.345  16.765  -3.869  0.00  0.00     0.031 C 
ATOM     24  C9  NON d   1     -45.095  17.602  -4.697  0.00  0.00     0.036 C 
ATOM     25  C12 NON d   1     -44.472  18.711  -5.233  0.00  0.00     0.031 C 
ATOM     26  C13 NON d   1     -43.087  18.872  -5.091  0.00  0.00     0.027 C 
BRANCH  24  27
ATOM     27  N2  NON d   1     -46.405  17.244  -5.070  0.00  0.00    -0.303 N 
ATOM     28  C10 NON d   1     -46.722  16.098  -5.765  0.00  0.00     0.364 C 
ATOM     29  O3  NON d   1     -45.941  15.262  -6.196  0.00  0.00    -0.238 OA
ATOM     30  H14 NON d   1     -47.186  17.655  -4.575  0.00  0.00     0.171 HD
BRANCH  28  31
ATOM     31  O4  NON d   1     -48.077  15.964  -5.807  0.00  0.00    -0.309 OA
ATOM     32  C11 NON d   1     -48.648  15.249  -4.701  0.00  0.00     0.215 C 
ENDBRANCH  28  31
ENDBRANCH  24  27
ENDBRANCH  18  21
ENDBRANCH   1  18
TORSDOF 10
ENDMDL
