MODEL 1
REMARK VINA RESULT:   -15.874      0.000      0.000
REMARK INTER + INTRA:         -19.546
REMARK INTER:                 -17.664
REMARK INTRA:                  -1.882
REMARK CONF_INDEPENDENT:        1.790
REMARK UNBOUND:                -1.882
REMARK  6 active torsions:
REMARK  status: ('A' for Active; 'I' for Inactive)
REMARK    1  A    between atoms: C2_2  and  C3_3 
REMARK    2  A    between atoms: C4_5  and  C5_6 
REMARK       I    between atoms: C5_6  and  N1_8 
REMARK    3  A    between atoms: N1_8  and  N2_9 
REMARK       I    between atoms: N2_9  and  C6_10 
REMARK    4  A    between atoms: C6_10  and  C7_12 
REMARK    5  A    between atoms: C11_16  and  O3_17 
REMARK    6  A    between atoms: C13_19  and  O4_20 
ROOT
ATOM      1  N2  NON d   1     -43.223  19.095  -5.544  0.00  0.00    -0.263 N 
ATOM      2  C6  NON d   1     -42.047  18.700  -4.927  0.00  0.00     0.273 C 
ATOM      3  O2  NON d   1     -42.094  17.968  -3.940  0.00  0.00    -0.266 OA
ATOM      4  H7  NON d   1     -43.305  19.712  -6.347  0.00  0.00     0.190 HD
ENDROOT
BRANCH   1   5
ATOM      5  N1  NON d   1     -44.444  18.634  -5.019  0.00  0.00    -0.263 N 
ATOM      6  C5  NON d   1     -44.674  17.267  -4.992  0.00  0.00     0.277 C 
ATOM      7  O1  NON d   1     -43.806  16.503  -5.429  0.00  0.00    -0.265 OA
ATOM      8  H6  NON d   1     -45.080  19.347  -4.672  0.00  0.00     0.190 HD
BRANCH   6   9
ATOM      9  C4  NON d   1     -45.954  16.836  -4.441  0.00  0.00     0.075 A 
ATOM     10  S1  NON d   1     -47.003  15.928  -5.438  0.00  0.00    -0.089 SA
ATOM     11  C3  NON d   1     -48.214  15.781  -4.219  0.00  0.00    -0.011 A 
ATOM     12  C15 NON d   1     -47.828  16.422  -3.050  0.00  0.00    -0.047 A 
ATOM     13  C14 NON d   1     -46.524  17.030  -3.196  0.00  0.00     0.032 A 
ATOM     14  C16 NON d   1     -48.615  16.505  -1.784  0.00  0.00     0.049 C 
BRANCH  11  15
ATOM     15  C2  NON d   1     -49.439  14.989  -4.611  0.00  0.00     0.042 C 
ATOM     16  C1  NON d   1     -50.438  14.631  -3.496  0.00  0.00     0.010 C 
ENDBRANCH  11  15
ENDBRANCH   6   9
ENDBRANCH   1   5
BRANCH   2  17
ATOM     17  C7  NON d   1     -40.754  19.203  -5.522  0.00  0.00     0.069 A 
ATOM     18  C8  NON d   1     -39.546  19.132  -4.805  0.00  0.00     0.020 A 
ATOM     19  C9  NON d   1     -38.349  19.607  -5.357  0.00  0.00     0.004 A 
ATOM     20  C10 NON d   1     -38.331  20.174  -6.629  0.00  0.00     0.040 A 
ATOM     21  C11 NON d   1     -39.514  20.265  -7.358  0.00  0.00     0.102 A 
ATOM     22  C13 NON d   1     -40.714  19.777  -6.802  0.00  0.00     0.114 A 
BRANCH  21  23
ATOM     23  O3  NON d   1     -39.637  20.804  -8.617  0.00  0.00    -0.353 OA
ATOM     24  C12 NON d   1     -39.987  22.182  -8.697  0.00  0.00     0.210 C 
ENDBRANCH  21  23
BRANCH  22  25
ATOM     25  O4  NON d   1     -41.842  19.880  -7.578  0.00  0.00    -0.357 OA
ATOM     26  H14 NON d   1     -41.545  20.216  -8.445  0.00  0.00     0.217 HD
ENDBRANCH  22  25
ENDBRANCH   2  17
TORSDOF 6
ENDMDL
MODEL 2
REMARK VINA RESULT:   -15.219      1.487      2.238
REMARK INTER + INTRA:         -18.326
REMARK INTER:                 -17.009
REMARK INTRA:                  -1.317
REMARK CONF_INDEPENDENT:        1.790
REMARK UNBOUND:                -1.317
REMARK  6 active torsions:
REMARK  status: ('A' for Active; 'I' for Inactive)
REMARK    1  A    between atoms: C2_2  and  C3_3 
REMARK    2  A    between atoms: C4_5  and  C5_6 
REMARK       I    between atoms: C5_6  and  N1_8 
REMARK    3  A    between atoms: N1_8  and  N2_9 
REMARK       I    between atoms: N2_9  and  C6_10 
REMARK    4  A    between atoms: C6_10  and  C7_12 
REMARK    5  A    between atoms: C11_16  and  O3_17 
REMARK    6  A    between atoms: C13_19  and  O4_20 
ROOT
ATOM      1  N2  NON d   1     -43.308  19.094  -5.432  0.00  0.00    -0.263 N 
ATOM      2  C6  NON d   1     -42.160  18.816  -4.707  0.00  0.00     0.273 C 
ATOM      3  O2  NON d   1     -42.241  18.170  -3.664  0.00  0.00    -0.266 OA
ATOM      4  H7  NON d   1     -43.363  19.634  -6.291  0.00  0.00     0.190 HD
ENDROOT
BRANCH   1   5
ATOM      5  N1  NON d   1     -44.539  18.617  -4.948  0.00  0.00    -0.263 N 
ATOM      6  C5  NON d   1     -44.761  17.249  -4.948  0.00  0.00     0.277 C 
ATOM      7  O1  NON d   1     -43.877  16.497  -5.374  0.00  0.00    -0.265 OA
ATOM      8  H6  NON d   1     -45.189  19.320  -4.607  0.00  0.00     0.190 HD
BRANCH   6   9
ATOM      9  C4  NON d   1     -46.053  16.801  -4.439  0.00  0.00     0.075 A 
ATOM     10  S1  NON d   1     -47.021  15.810  -5.439  0.00  0.00    -0.089 SA
ATOM     11  C3  NON d   1     -48.286  15.681  -4.275  0.00  0.00    -0.011 A 
ATOM     12  C15 NON d   1     -47.979  16.391  -3.122  0.00  0.00    -0.047 A 
ATOM     13  C14 NON d   1     -46.690  17.035  -3.235  0.00  0.00     0.032 A 
ATOM     14  C16 NON d   1     -48.831  16.507  -1.901  0.00  0.00     0.049 C 
BRANCH  11  15
ATOM     15  C2  NON d   1     -49.464  14.830  -4.685  0.00  0.00     0.042 C 
ATOM     16  C1  NON d   1     -50.439  14.387  -3.579  0.00  0.00     0.010 C 
ENDBRANCH  11  15
ENDBRANCH   6   9
ENDBRANCH   1   5
BRANCH   2  17
ATOM     17  C7  NON d   1     -40.854  19.331  -5.260  0.00  0.00     0.069 A 
ATOM     18  C8  NON d   1     -40.823  20.359  -6.220  0.00  0.00     0.020 A 
ATOM     19  C9  NON d   1     -39.610  20.829  -6.737  0.00  0.00     0.004 A 
ATOM     20  C10 NON d   1     -38.400  20.279  -6.320  0.00  0.00     0.040 A 
ATOM     21  C11 NON d   1     -38.400  19.253  -5.378  0.00  0.00     0.102 A 
ATOM     22  C13 NON d   1     -39.624  18.789  -4.853  0.00  0.00     0.114 A 
BRANCH  21  23
ATOM     23  O3  NON d   1     -37.283  18.620  -4.886  0.00  0.00    -0.353 OA
ATOM     24  C12 NON d   1     -36.715  19.149  -3.693  0.00  0.00     0.210 C 
ENDBRANCH  21  23
BRANCH  22  25
ATOM     25  O4  NON d   1     -39.556  17.789  -3.915  0.00  0.00    -0.357 OA
ATOM     26  H14 NON d   1     -38.614  17.538  -3.854  0.00  0.00     0.217 HD
ENDBRANCH  22  25
ENDBRANCH   2  17
TORSDOF 6
ENDMDL
MODEL 3
REMARK VINA RESULT:   -14.504      1.420      1.522
REMARK INTER + INTRA:         -19.173
REMARK INTER:                 -16.294
REMARK INTRA:                  -2.879
REMARK CONF_INDEPENDENT:        1.790
REMARK UNBOUND:                -2.879
REMARK  6 active torsions:
REMARK  status: ('A' for Active; 'I' for Inactive)
REMARK    1  A    between atoms: C2_2  and  C3_3 
REMARK    2  A    between atoms: C4_5  and  C5_6 
REMARK       I    between atoms: C5_6  and  N1_8 
REMARK    3  A    between atoms: N1_8  and  N2_9 
REMARK       I    between atoms: N2_9  and  C6_10 
REMARK    4  A    between atoms: C6_10  and  C7_12 
REMARK    5  A    between atoms: C11_16  and  O3_17 
REMARK    6  A    between atoms: C13_19  and  O4_20 
ROOT
ATOM      1  N2  NON d   1     -42.574  17.785  -4.650  0.00  0.00    -0.263 N 
ATOM      2  C6  NON d   1     -41.454  17.644  -3.845  0.00  0.00     0.273 C 
ATOM      3  O2  NON d   1     -41.543  17.036  -2.780  0.00  0.00    -0.266 OA
ATOM      4  H7  NON d   1     -42.622  18.283  -5.534  0.00  0.00     0.190 HD
ENDROOT
BRANCH   1   5
ATOM      5  N1  NON d   1     -43.786  17.217  -4.219  0.00  0.00    -0.263 N 
ATOM      6  C5  NON d   1     -44.952  17.579  -4.875  0.00  0.00     0.277 C 
ATOM      7  O1  NON d   1     -44.890  18.386  -5.809  0.00  0.00    -0.265 OA
ATOM      8  H6  NON d   1     -43.721  16.553  -3.452  0.00  0.00     0.190 HD
BRANCH   6   9
ATOM      9  C4  NON d   1     -46.185  16.966  -4.391  0.00  0.00     0.075 A 
ATOM     10  S1  NON d   1     -47.032  15.913  -5.436  0.00  0.00    -0.089 SA
ATOM     11  C3  NON d   1     -48.276  15.593  -4.286  0.00  0.00    -0.011 A 
ATOM     12  C15 NON d   1     -48.053  16.285  -3.103  0.00  0.00    -0.047 A 
ATOM     13  C14 NON d   1     -46.846  17.077  -3.182  0.00  0.00     0.032 A 
ATOM     14  C16 NON d   1     -48.915  16.254  -1.883  0.00  0.00     0.049 C 
BRANCH  11  15
ATOM     15  C2  NON d   1     -49.348  14.630  -4.737  0.00  0.00     0.042 C 
ATOM     16  C1  NON d   1     -50.440  14.256  -3.718  0.00  0.00     0.010 C 
ENDBRANCH  11  15
ENDBRANCH   6   9
ENDBRANCH   1   5
BRANCH   2  17
ATOM     17  C7  NON d   1     -40.167  18.256  -4.342  0.00  0.00     0.069 A 
ATOM     18  C8  NON d   1     -39.051  18.392  -3.497  0.00  0.00     0.020 A 
ATOM     19  C9  NON d   1     -37.861  18.968  -3.959  0.00  0.00     0.004 A 
ATOM     20  C10 NON d   1     -37.758  19.433  -5.268  0.00  0.00     0.040 A 
ATOM     21  C11 NON d   1     -38.851  19.319  -6.125  0.00  0.00     0.102 A 
ATOM     22  C13 NON d   1     -40.044  18.730  -5.658  0.00  0.00     0.114 A 
BRANCH  21  23
ATOM     23  O3  NON d   1     -38.887  19.739  -7.433  0.00  0.00    -0.353 OA
ATOM     24  C12 NON d   1     -38.195  18.940  -8.387  0.00  0.00     0.210 C 
ENDBRANCH  21  23
BRANCH  22  25
ATOM     25  O4  NON d   1     -41.078  18.632  -6.556  0.00  0.00    -0.357 OA
ATOM     26  H14 NON d   1     -40.889  19.282  -7.259  0.00  0.00     0.217 HD
ENDBRANCH  22  25
ENDBRANCH   2  17
TORSDOF 6
ENDMDL
MODEL 4
REMARK VINA RESULT:   -13.322      2.639      8.946
REMARK INTER + INTRA:         -17.611
REMARK INTER:                 -15.112
REMARK INTRA:                  -2.499
REMARK CONF_INDEPENDENT:        1.790
REMARK UNBOUND:                -2.499
REMARK  6 active torsions:
REMARK  status: ('A' for Active; 'I' for Inactive)
REMARK    1  A    between atoms: C2_2  and  C3_3 
REMARK    2  A    between atoms: C4_5  and  C5_6 
REMARK       I    between atoms: C5_6  and  N1_8 
REMARK    3  A    between atoms: N1_8  and  N2_9 
REMARK       I    between atoms: N2_9  and  C6_10 
REMARK    4  A    between atoms: C6_10  and  C7_12 
REMARK    5  A    between atoms: C11_16  and  O3_17 
REMARK    6  A    between atoms: C13_19  and  O4_20 
ROOT
ATOM      1  N2  NON d   1     -44.468  17.412  -3.812  0.00  0.00    -0.263 N 
ATOM      2  C6  NON d   1     -45.598  17.191  -4.584  0.00  0.00     0.273 C 
ATOM      3  O2  NON d   1     -45.519  17.254  -5.810  0.00  0.00    -0.266 OA
ATOM      4  H7  NON d   1     -44.421  17.408  -2.798  0.00  0.00     0.190 HD
ENDROOT
BRANCH   1   5
ATOM      5  N1  NON d   1     -43.255  17.699  -4.465  0.00  0.00    -0.263 N 
ATOM      6  C5  NON d   1     -42.163  18.061  -3.692  0.00  0.00     0.277 C 
ATOM      7  O1  NON d   1     -42.289  18.122  -2.464  0.00  0.00    -0.265 OA
ATOM      8  H6  NON d   1     -43.257  17.603  -5.476  0.00  0.00     0.190 HD
BRANCH   6   9
ATOM      9  C4  NON d   1     -40.928  18.351  -4.411  0.00  0.00     0.075 A 
ATOM     10  S1  NON d   1     -41.028  18.751  -6.069  0.00  0.00    -0.089 SA
ATOM     11  C3  NON d   1     -39.324  18.953  -6.238  0.00  0.00    -0.011 A 
ATOM     12  C15 NON d   1     -38.671  18.717  -5.035  0.00  0.00    -0.047 A 
ATOM     13  C14 NON d   1     -39.610  18.367  -3.993  0.00  0.00     0.032 A 
ATOM     14  C16 NON d   1     -37.199  18.800  -4.796  0.00  0.00     0.049 C 
BRANCH  11  15
ATOM     15  C2  NON d   1     -38.849  19.359  -7.612  0.00  0.00     0.042 C 
ATOM     16  C1  NON d   1     -37.698  18.546  -8.234  0.00  0.00     0.010 C 
ENDBRANCH  11  15
ENDBRANCH   6   9
ENDBRANCH   1   5
BRANCH   2  17
ATOM     17  C7  NON d   1     -46.880  16.874  -3.855  0.00  0.00     0.069 A 
ATOM     18  C8  NON d   1     -47.055  17.224  -2.504  0.00  0.00     0.020 A 
ATOM     19  C9  NON d   1     -48.244  16.921  -1.827  0.00  0.00     0.004 A 
ATOM     20  C10 NON d   1     -49.280  16.253  -2.477  0.00  0.00     0.040 A 
ATOM     21  C11 NON d   1     -49.131  15.887  -3.812  0.00  0.00     0.102 A 
ATOM     22  C13 NON d   1     -47.936  16.202  -4.492  0.00  0.00     0.114 A 
BRANCH  21  23
ATOM     23  O3  NON d   1     -50.067  15.222  -4.567  0.00  0.00    -0.353 OA
ATOM     24  C12 NON d   1     -50.362  13.880  -4.195  0.00  0.00     0.210 C 
ENDBRANCH  21  23
BRANCH  22  25
ATOM     25  O4  NON d   1     -47.857  15.830  -5.810  0.00  0.00    -0.357 OA
ATOM     26  H14 NON d   1     -48.775  15.663  -6.100  0.00  0.00     0.217 HD
ENDBRANCH  22  25
ENDBRANCH   2  17
TORSDOF 6
ENDMDL
MODEL 5
REMARK VINA RESULT:   -13.034      2.797      9.076
REMARK INTER + INTRA:         -17.136
REMARK INTER:                 -14.824
REMARK INTRA:                  -2.312
REMARK CONF_INDEPENDENT:        1.790
REMARK UNBOUND:                -2.312
REMARK  6 active torsions:
REMARK  status: ('A' for Active; 'I' for Inactive)
REMARK    1  A    between atoms: C2_2  and  C3_3 
REMARK    2  A    between atoms: C4_5  and  C5_6 
REMARK       I    between atoms: C5_6  and  N1_8 
REMARK    3  A    between atoms: N1_8  and  N2_9 
REMARK       I    between atoms: N2_9  and  C6_10 
REMARK    4  A    between atoms: C6_10  and  C7_12 
REMARK    5  A    between atoms: C11_16  and  O3_17 
REMARK    6  A    between atoms: C13_19  and  O4_20 
ROOT
ATOM      1  N2  NON d   1     -44.602  17.451  -3.903  0.00  0.00    -0.263 N 
ATOM      2  C6  NON d   1     -45.717  17.005  -4.595  0.00  0.00     0.273 C 
ATOM      3  O2  NON d   1     -45.648  16.828  -5.810  0.00  0.00    -0.266 OA
ATOM      4  H7  NON d   1     -44.551  17.651  -2.908  0.00  0.00     0.190 HD
ENDROOT
BRANCH   1   5
ATOM      5  N1  NON d   1     -43.415  17.683  -4.620  0.00  0.00    -0.263 N 
ATOM      6  C5  NON d   1     -42.314  18.166  -3.930  0.00  0.00     0.277 C 
ATOM      7  O1  NON d   1     -42.411  18.377  -2.716  0.00  0.00    -0.265 OA
ATOM      8  H6  NON d   1     -43.440  17.461  -5.611  0.00  0.00     0.190 HD
BRANCH   6   9
ATOM      9  C4  NON d   1     -41.106  18.394  -4.715  0.00  0.00     0.075 A 
ATOM     10  S1  NON d   1     -39.613  18.514  -3.893  0.00  0.00    -0.089 SA
ATOM     11  C3  NON d   1     -38.709  18.757  -5.341  0.00  0.00    -0.011 A 
ATOM     12  C15 NON d   1     -39.537  18.749  -6.455  0.00  0.00    -0.047 A 
ATOM     13  C14 NON d   1     -40.917  18.543  -6.077  0.00  0.00     0.032 A 
ATOM     14  C16 NON d   1     -39.111  18.926  -7.876  0.00  0.00     0.049 C 
BRANCH  11  15
ATOM     15  C2  NON d   1     -37.218  18.912  -5.159  0.00  0.00     0.042 C 
ATOM     16  C1  NON d   1     -36.304  17.967  -5.961  0.00  0.00     0.010 C 
ENDBRANCH  11  15
ENDBRANCH   6   9
ENDBRANCH   1   5
BRANCH   2  17
ATOM     17  C7  NON d   1     -46.972  16.755  -3.794  0.00  0.00     0.069 A 
ATOM     18  C8  NON d   1     -47.057  17.121  -2.439  0.00  0.00     0.020 A 
ATOM     19  C9  NON d   1     -48.220  16.879  -1.697  0.00  0.00     0.004 A 
ATOM     20  C10 NON d   1     -49.319  16.257  -2.283  0.00  0.00     0.040 A 
ATOM     21  C11 NON d   1     -49.260  15.874  -3.622  0.00  0.00     0.102 A 
ATOM     22  C13 NON d   1     -48.091  16.128  -4.368  0.00  0.00     0.114 A 
BRANCH  21  23
ATOM     23  O3  NON d   1     -50.266  15.250  -4.319  0.00  0.00    -0.353 OA
ATOM     24  C12 NON d   1     -50.065  13.881  -4.655  0.00  0.00     0.210 C 
ENDBRANCH  21  23
BRANCH  22  25
ATOM     25  O4  NON d   1     -48.101  15.744  -5.685  0.00  0.00    -0.357 OA
ATOM     26  H14 NON d   1     -49.040  15.713  -5.951  0.00  0.00     0.217 HD
ENDBRANCH  22  25
ENDBRANCH   2  17
TORSDOF 6
ENDMDL
