MODEL 1
REMARK VINA RESULT:   -10.346      0.000      0.000
REMARK INTER + INTRA:         -15.481
REMARK INTER:                 -13.329
REMARK INTRA:                  -2.153
REMARK CONF_INDEPENDENT:        2.983
REMARK UNBOUND:                -2.153
REMARK  10 active torsions:
REMARK  status: ('A' for Active; 'I' for Inactive)
REMARK    1  A    between atoms: C2_2  and  N1_5 
REMARK       I    between atoms: N1_5  and  C5_6 
REMARK    2  A    between atoms: C6_8  and  C5_6 
REMARK    3  A    between atoms: C6_8  and  C7_9 
REMARK    4  A    between atoms: C6_8  and  N2_18 
REMARK    5  A    between atoms: C8_10  and  O2_11 
REMARK    6  A    between atoms: C10_13  and  O3_14 
REMARK    7  A    between atoms: C12_16  and  O4_17 
REMARK       I    between atoms: N2_18  and  C13_19 
REMARK    8  A    between atoms: N2_18  and  C20_30 
REMARK    9  A    between atoms: C13_19  and  C14_21 
REMARK   10  A    between atoms: C18_25  and  N3_26 
ROOT
ATOM      1  C6  NON d   1     -40.431  21.245  -6.760  0.00  0.00     0.224 C 
ENDROOT
BRANCH   1   2
ATOM      2  C5  NON d   1     -39.841  20.683  -8.142  0.00  0.00     0.246 C 
ATOM      3  N1  NON d   1     -38.894  21.417  -8.846  0.00  0.00    -0.351 N 
ATOM      4  H10 NON d   1     -38.637  22.299  -8.404  0.00  0.00     0.163 HD
ATOM      5  O1  NON d   1     -40.184  19.568  -8.549  0.00  0.00    -0.271 OA
BRANCH   3   6
ATOM      6  C2  NON d   1     -37.918  20.855  -9.894  0.00  0.00     0.022 C 
ATOM      7  C1  NON d   1     -36.940  20.292 -10.943  0.00  0.00     0.037 C 
ATOM      8  C3  NON d   1     -38.503  21.809 -10.951  0.00  0.00     0.037 C 
ATOM      9  C4  NON d   1     -37.332  19.900  -8.836  0.00  0.00     0.037 C 
ENDBRANCH   3   6
ENDBRANCH   1   2
BRANCH   1  10
ATOM     10  C7  NON d   1     -40.137  22.749  -6.607  0.00  0.00     0.041 A 
ATOM     11  C8  NON d   1     -40.224  23.680  -7.654  0.00  0.00     0.080 A 
ATOM     12  C9  NON d   1     -39.952  25.037  -7.450  0.00  0.00     0.073 A 
ATOM     13  C10 NON d   1     -39.527  25.476  -6.204  0.00  0.00     0.071 A 
ATOM     14  C11 NON d   1     -39.349  24.581  -5.163  0.00  0.00     0.073 A 
ATOM     15  C12 NON d   1     -39.647  23.234  -5.375  0.00  0.00     0.080 A 
BRANCH  11  16
ATOM     16  O2  NON d   1     -40.532  23.266  -8.923  0.00  0.00    -0.360 OA
ATOM     17  H12 NON d   1     -41.398  22.816  -8.890  0.00  0.00     0.217 HD
ENDBRANCH  11  16
BRANCH  13  18
ATOM     18  O3  NON d   1     -39.265  26.807  -6.055  0.00  0.00    -0.361 OA
ATOM     19  H14 NON d   1     -38.430  27.015  -6.505  0.00  0.00     0.217 HD
ENDBRANCH  13  18
BRANCH  15  20
ATOM     20  O4  NON d   1     -39.360  22.348  -4.369  0.00  0.00    -0.360 OA
ATOM     21  H16 NON d   1     -40.217  22.087  -3.985  0.00  0.00     0.217 HD
ENDBRANCH  15  20
ENDBRANCH   1  10
BRANCH   1  22
ATOM     22  N2  NON d   1     -40.399  20.477  -5.450  0.00  0.00    -0.295 N 
ATOM     23  C13 NON d   1     -41.622  20.390  -4.722  0.00  0.00     0.259 C 
ATOM     24  O5  NON d   1     -42.226  21.381  -4.310  0.00  0.00    -0.267 OA
BRANCH  23  25
ATOM     25  C14 NON d   1     -42.274  19.050  -4.431  0.00  0.00     0.035 A 
ATOM     26  C15 NON d   1     -41.738  18.085  -3.564  0.00  0.00     0.017 A 
ATOM     27  C16 NON d   1     -42.398  16.868  -3.330  0.00  0.00     0.003 A 
ATOM     28  C17 NON d   1     -43.578  16.572  -4.006  0.00  0.00     0.036 A 
ATOM     29  C18 NON d   1     -44.085  17.495  -4.921  0.00  0.00     0.103 A 
ATOM     30  C19 NON d   1     -43.452  18.729  -5.134  0.00  0.00     0.053 A 
BRANCH  29  31
ATOM     31  N3  NON d   1     -45.286  17.152  -5.689  0.00  0.00    -0.116 N 
ATOM     32  O6  NON d   1     -45.936  18.084  -6.185  0.00  0.00    -0.532 OA
ATOM     33  O7  NON d   1     -45.565  15.953  -5.810  0.00  0.00    -0.532 OA
ENDBRANCH  29  31
ENDBRANCH  23  25
BRANCH  22  34
ATOM     34  C20 NON d   1     -39.393  19.491  -5.154  0.00  0.00     0.040 A 
ATOM     35  C21 NON d   1     -38.495  19.128  -6.183  0.00  0.00     0.030 A 
ATOM     36  C22 NON d   1     -37.394  18.303  -5.941  0.00  0.00     0.004 A 
ATOM     37  C23 NON d   1     -37.178  17.801  -4.666  0.00  0.00     0.024 A 
ATOM     38  C24 NON d   1     -38.070  18.128  -3.647  0.00  0.00     0.036 A 
ATOM     39 Cl1  NON d   1     -37.784  17.521  -2.059  0.00  0.00    -0.084 Cl
ATOM     40  C25 NON d   1     -39.173  18.963  -3.880  0.00  0.00     0.053 A 
ENDBRANCH  22  34
ENDBRANCH   1  22
TORSDOF 10
ENDMDL
MODEL 2
REMARK VINA RESULT:    -8.007      2.826      4.582
REMARK INTER + INTRA:         -14.771
REMARK INTER:                 -10.990
REMARK INTRA:                  -3.782
REMARK CONF_INDEPENDENT:        2.983
REMARK UNBOUND:                -3.782
REMARK  10 active torsions:
REMARK  status: ('A' for Active; 'I' for Inactive)
REMARK    1  A    between atoms: C2_2  and  N1_5 
REMARK       I    between atoms: N1_5  and  C5_6 
REMARK    2  A    between atoms: C6_8  and  C5_6 
REMARK    3  A    between atoms: C6_8  and  C7_9 
REMARK    4  A    between atoms: C6_8  and  N2_18 
REMARK    5  A    between atoms: C8_10  and  O2_11 
REMARK    6  A    between atoms: C10_13  and  O3_14 
REMARK    7  A    between atoms: C12_16  and  O4_17 
REMARK       I    between atoms: N2_18  and  C13_19 
REMARK    8  A    between atoms: N2_18  and  C20_30 
REMARK    9  A    between atoms: C13_19  and  C14_21 
REMARK   10  A    between atoms: C18_25  and  N3_26 
ROOT
ATOM      1  C6  NON d   1     -40.600  21.615  -3.261  0.00  0.00     0.224 C 
ENDROOT
BRANCH   1   2
ATOM      2  C5  NON d   1     -40.418  22.903  -4.203  0.00  0.00     0.246 C 
ATOM      3  N1  NON d   1     -39.248  23.074  -4.930  0.00  0.00    -0.351 N 
ATOM      4  H10 NON d   1     -38.564  22.329  -4.802  0.00  0.00     0.163 HD
ATOM      5  O1  NON d   1     -41.345  23.710  -4.325  0.00  0.00    -0.271 OA
BRANCH   3   6
ATOM      6  C2  NON d   1     -39.088  23.956  -6.182  0.00  0.00     0.022 C 
ATOM      7  C1  NON d   1     -38.929  24.838  -7.434  0.00  0.00     0.037 C 
ATOM      8  C3  NON d   1     -38.901  22.695  -7.046  0.00  0.00     0.037 C 
ATOM      9  C4  NON d   1     -39.276  25.217  -5.317  0.00  0.00     0.037 C 
ENDBRANCH   3   6
ENDBRANCH   1   2
BRANCH   1  10
ATOM     10  C7  NON d   1     -39.987  21.860  -1.869  0.00  0.00     0.041 A 
ATOM     11  C8  NON d   1     -38.909  21.130  -1.345  0.00  0.00     0.080 A 
ATOM     12  C9  NON d   1     -38.389  21.405  -0.075  0.00  0.00     0.073 A 
ATOM     13  C10 NON d   1     -38.984  22.378   0.718  0.00  0.00     0.071 A 
ATOM     14  C11 NON d   1     -40.100  23.065   0.274  0.00  0.00     0.073 A 
ATOM     15  C12 NON d   1     -40.592  22.796  -1.005  0.00  0.00     0.080 A 
BRANCH  11  16
ATOM     16  O2  NON d   1     -38.367  20.090  -2.053  0.00  0.00    -0.360 OA
ATOM     17  H12 NON d   1     -38.695  19.258  -1.662  0.00  0.00     0.217 HD
ENDBRANCH  11  16
BRANCH  13  18
ATOM     18  O3  NON d   1     -38.449  22.604   1.952  0.00  0.00    -0.361 OA
ATOM     19  H14 NON d   1     -39.052  22.251   2.626  0.00  0.00     0.217 HD
ENDBRANCH  13  18
BRANCH  15  20
ATOM     20  O4  NON d   1     -41.760  23.406  -1.383  0.00  0.00    -0.360 OA
ATOM     21  H16 NON d   1     -41.562  23.882  -2.210  0.00  0.00     0.217 HD
ENDBRANCH  15  20
ENDBRANCH   1  10
BRANCH   1  22
ATOM     22  N2  NON d   1     -40.464  20.183  -3.749  0.00  0.00    -0.295 N 
ATOM     23  C13 NON d   1     -41.046  19.167  -2.937  0.00  0.00     0.259 C 
ATOM     24  O5  NON d   1     -40.709  18.969  -1.769  0.00  0.00    -0.267 OA
BRANCH  23  25
ATOM     25  C14 NON d   1     -42.153  18.271  -3.466  0.00  0.00     0.035 A 
ATOM     26  C15 NON d   1     -42.259  16.900  -3.185  0.00  0.00     0.017 A 
ATOM     27  C16 NON d   1     -43.315  16.130  -3.697  0.00  0.00     0.003 A 
ATOM     28  C17 NON d   1     -44.252  16.709  -4.548  0.00  0.00     0.036 A 
ATOM     29  C18 NON d   1     -44.120  18.055  -4.888  0.00  0.00     0.103 A 
ATOM     30  C19 NON d   1     -43.089  18.841  -4.351  0.00  0.00     0.053 A 
BRANCH  29  31
ATOM     31  N3  NON d   1     -45.063  18.645  -5.844  0.00  0.00    -0.116 N 
ATOM     32  O6  NON d   1     -44.815  19.785  -6.263  0.00  0.00    -0.532 OA
ATOM     33  O7  NON d   1     -46.035  17.962  -6.184  0.00  0.00    -0.532 OA
ENDBRANCH  29  31
ENDBRANCH  23  25
BRANCH  22  34
ATOM     34  C20 NON d   1     -40.217  19.854  -5.129  0.00  0.00     0.040 A 
ATOM     35  C21 NON d   1     -41.158  20.282  -6.092  0.00  0.00     0.030 A 
ATOM     36  C22 NON d   1     -40.921  20.147  -7.462  0.00  0.00     0.004 A 
ATOM     37  C23 NON d   1     -39.744  19.557  -7.901  0.00  0.00     0.024 A 
ATOM     38  C24 NON d   1     -38.819  19.105  -6.963  0.00  0.00     0.036 A 
ATOM     39 Cl1  NON d   1     -37.349  18.394  -7.513  0.00  0.00    -0.084 Cl
ATOM     40  C25 NON d   1     -39.047  19.246  -5.585  0.00  0.00     0.053 A 
ENDBRANCH  22  34
ENDBRANCH   1  22
TORSDOF 10
ENDMDL
MODEL 3
REMARK VINA RESULT:    -7.975      2.827      4.887
REMARK INTER + INTRA:         -14.197
REMARK INTER:                 -10.958
REMARK INTRA:                  -3.239
REMARK CONF_INDEPENDENT:        2.983
REMARK UNBOUND:                -3.239
REMARK  10 active torsions:
REMARK  status: ('A' for Active; 'I' for Inactive)
REMARK    1  A    between atoms: C2_2  and  N1_5 
REMARK       I    between atoms: N1_5  and  C5_6 
REMARK    2  A    between atoms: C6_8  and  C5_6 
REMARK    3  A    between atoms: C6_8  and  C7_9 
REMARK    4  A    between atoms: C6_8  and  N2_18 
REMARK    5  A    between atoms: C8_10  and  O2_11 
REMARK    6  A    between atoms: C10_13  and  O3_14 
REMARK    7  A    between atoms: C12_16  and  O4_17 
REMARK       I    between atoms: N2_18  and  C13_19 
REMARK    8  A    between atoms: N2_18  and  C20_30 
REMARK    9  A    between atoms: C13_19  and  C14_21 
REMARK   10  A    between atoms: C18_25  and  N3_26 
ROOT
ATOM      1  C6  NON d   1     -40.417  21.772  -3.574  0.00  0.00     0.224 C 
ENDROOT
BRANCH   1   2
ATOM      2  C5  NON d   1     -39.924  23.023  -4.451  0.00  0.00     0.246 C 
ATOM      3  N1  NON d   1     -40.633  24.218  -4.421  0.00  0.00    -0.351 N 
ATOM      4  H10 NON d   1     -41.450  24.203  -3.812  0.00  0.00     0.163 HD
ATOM      5  O1  NON d   1     -38.880  22.941  -5.105  0.00  0.00    -0.271 OA
BRANCH   3   6
ATOM      6  C2  NON d   1     -40.079  25.601  -4.808  0.00  0.00     0.022 C 
ATOM      7  C1  NON d   1     -39.525  26.985  -5.195  0.00  0.00     0.037 C 
ATOM      8  C3  NON d   1     -40.049  25.175  -6.287  0.00  0.00     0.037 C 
ATOM      9  C4  NON d   1     -40.108  26.027  -3.328  0.00  0.00     0.037 C 
ENDBRANCH   3   6
ENDBRANCH   1   2
BRANCH   1  10
ATOM     10  C7  NON d   1     -40.071  21.972  -2.086  0.00  0.00     0.041 A 
ATOM     11  C8  NON d   1     -40.699  22.909  -1.250  0.00  0.00     0.080 A 
ATOM     12  C9  NON d   1     -40.347  23.038   0.098  0.00  0.00     0.073 A 
ATOM     13  C10 NON d   1     -39.313  22.270   0.616  0.00  0.00     0.071 A 
ATOM     14  C11 NON d   1     -38.611  21.392  -0.191  0.00  0.00     0.073 A 
ATOM     15  C12 NON d   1     -38.990  21.258  -1.528  0.00  0.00     0.080 A 
BRANCH  11  16
ATOM     16  O2  NON d   1     -41.647  23.760  -1.754  0.00  0.00    -0.360 OA
ATOM     17  H12 NON d   1     -41.596  24.596  -1.255  0.00  0.00     0.217 HD
ENDBRANCH  11  16
BRANCH  13  18
ATOM     18  O3  NON d   1     -38.998  22.437   1.933  0.00  0.00    -0.361 OA
ATOM     19  H14 NON d   1     -39.820  22.490   2.448  0.00  0.00     0.217 HD
ENDBRANCH  13  18
BRANCH  15  20
ATOM     20  O4  NON d   1     -38.216  20.468  -2.337  0.00  0.00    -0.360 OA
ATOM     21  H16 NON d   1     -38.239  19.575  -1.947  0.00  0.00     0.217 HD
ENDBRANCH  15  20
ENDBRANCH   1  10
BRANCH   1  22
ATOM     22  N2  NON d   1     -40.331  20.328  -4.036  0.00  0.00    -0.295 N 
ATOM     23  C13 NON d   1     -40.854  19.337  -3.154  0.00  0.00     0.259 C 
ATOM     24  O5  NON d   1     -40.426  19.164  -2.012  0.00  0.00    -0.267 OA
BRANCH  23  25
ATOM     25  C14 NON d   1     -42.006  18.439  -3.571  0.00  0.00     0.035 A 
ATOM     26  C15 NON d   1     -42.134  17.093  -3.191  0.00  0.00     0.017 A 
ATOM     27  C16 NON d   1     -43.231  16.321  -3.602  0.00  0.00     0.003 A 
ATOM     28  C17 NON d   1     -44.191  16.866  -4.450  0.00  0.00     0.036 A 
ATOM     29  C18 NON d   1     -44.040  18.182  -4.888  0.00  0.00     0.103 A 
ATOM     30  C19 NON d   1     -42.966  18.973  -4.453  0.00  0.00     0.053 A 
BRANCH  29  31
ATOM     31  N3  NON d   1     -45.010  18.732  -5.841  0.00  0.00    -0.116 N 
ATOM     32  O6  NON d   1     -44.815  19.884  -6.255  0.00  0.00    -0.532 OA
ATOM     33  O7  NON d   1     -45.949  18.005  -6.184  0.00  0.00    -0.532 OA
ENDBRANCH  29  31
ENDBRANCH  23  25
BRANCH  22  34
ATOM     34  C20 NON d   1     -40.198  19.963  -5.422  0.00  0.00     0.040 A 
ATOM     35  C21 NON d   1     -41.194  20.401  -6.322  0.00  0.00     0.030 A 
ATOM     36  C22 NON d   1     -41.064  20.231  -7.703  0.00  0.00     0.004 A 
ATOM     37  C23 NON d   1     -39.941  19.595  -8.214  0.00  0.00     0.024 A 
ATOM     38  C24 NON d   1     -38.963  19.134  -7.336  0.00  0.00     0.036 A 
ATOM     39 Cl1  NON d   1     -37.559  18.366  -7.978  0.00  0.00    -0.084 Cl
ATOM     40  C25 NON d   1     -39.083  19.309  -5.949  0.00  0.00     0.053 A 
ENDBRANCH  22  34
ENDBRANCH   1  22
TORSDOF 10
ENDMDL
