MODEL 1
REMARK VINA RESULT:   -13.070      0.000      0.000
REMARK INTER + INTRA:         -18.300
REMARK INTER:                 -15.755
REMARK INTRA:                  -2.545
REMARK CONF_INDEPENDENT:        2.685
REMARK UNBOUND:                -2.545
REMARK  9 active torsions:
REMARK  status: ('A' for Active; 'I' for Inactive)
REMARK    1  A    between atoms: C6_6  and  C5_5 
REMARK    2  A    between atoms: C6_6  and  N1_7 
REMARK    3  A    between atoms: C6_6  and  C22_28 
REMARK    4  A    between atoms: N1_7  and  C7_8 
REMARK    5  A    between atoms: C7_8  and  C8_9 
REMARK       I    between atoms: C8_9  and  N2_11 
REMARK    6  A    between atoms: N2_11  and  C10_13 
REMARK    7  A    between atoms: C15_18  and  C16_19 
REMARK       I    between atoms: C16_19  and  N3_21 
REMARK    8  A    between atoms: N3_21  and  C17_22 
REMARK    9  A    between atoms: C17_22  and  C18_23 
ROOT
ATOM      1  C8  NON d   1     -40.970  19.374  -6.707  0.00  0.00     0.252 C 
ATOM      2  O1  NON d   1     -41.985  19.854  -7.216  0.00  0.00    -0.271 OA
ATOM      3  N2  NON d   1     -39.732  20.049  -6.739  0.00  0.00    -0.320 N 
ATOM      4  C9  NON d   1     -38.613  19.303  -7.490  0.00  0.00     0.159 C 
ENDROOT
BRANCH   1   5
ATOM      5  C7  NON d   1     -40.903  17.917  -6.170  0.00  0.00     0.373 C 
BRANCH   5   6
ATOM      6  N1  NON d   1     -42.199  17.357  -5.749  0.00  0.00     0.106 N 
ATOM      7  H7  NON d   1     -42.712  17.008  -6.552  0.00  0.00     0.317 HD
BRANCH   6   8
ATOM      8  C6  NON d   1     -43.039  18.332  -5.012  0.00  0.00     0.293 C 
BRANCH   8   9
ATOM      9  C5  NON d   1     -42.238  19.003  -3.891  0.00  0.00    -0.020 A 
ATOM     10  C4  NON d   1     -41.803  18.291  -2.751  0.00  0.00     0.010 A 
ATOM     11  C3  NON d   1     -40.800  18.792  -1.915  0.00  0.00     0.007 A 
ATOM     12  C2  NON d   1     -40.240  20.037  -2.187  0.00  0.00    -0.062 A 
ATOM     13  C1  NON d   1     -39.131  20.631  -1.299  0.00  0.00     0.048 C 
ATOM     14  C27 NON d   1     -40.752  20.806  -3.245  0.00  0.00     0.007 A 
ATOM     15  C26 NON d   1     -41.717  20.286  -4.099  0.00  0.00     0.010 A 
ENDBRANCH   8   9
BRANCH   8  16
ATOM     16  C22 NON d   1     -44.416  17.734  -4.679  0.00  0.00     0.020 A 
ATOM     17  C23 NON d   1     -44.773  17.092  -3.497  0.00  0.00     0.017 A 
ATOM     18  C24 NON d   1     -46.050  16.465  -3.557  0.00  0.00     0.008 A 
ATOM     19  C25 NON d   1     -46.645  16.640  -4.783  0.00  0.00     0.050 A 
ATOM     20  S1  NON d   1     -45.708  17.630  -5.810  0.00  0.00    -0.104 SA
ENDBRANCH   8  16
ENDBRANCH   6   8
ENDBRANCH   5   6
ENDBRANCH   1   5
BRANCH   3  21
ATOM     21  C10 NON d   1     -39.673  21.497  -6.808  0.00  0.00     0.052 A 
ATOM     22  C11 NON d   1     -39.505  22.215  -5.606  0.00  0.00     0.031 A 
ATOM     23  C12 NON d   1     -39.450  23.616  -5.579  0.00  0.00     0.002 A 
ATOM     24  C13 NON d   1     -39.550  24.344  -6.759  0.00  0.00     0.001 A 
ATOM     25  C14 NON d   1     -39.678  23.670  -7.968  0.00  0.00     0.019 A 
ATOM     26  C15 NON d   1     -39.727  22.264  -7.998  0.00  0.00     0.058 A 
BRANCH  26  27
ATOM     27  C16 NON d   1     -39.724  21.676  -9.353  0.00  0.00     0.254 C 
ATOM     28  O2  NON d   1     -40.319  20.625  -9.550  0.00  0.00    -0.268 OA
ATOM     29  N3  NON d   1     -39.095  22.415 -10.334  0.00  0.00    -0.351 N 
ATOM     30  H17 NON d   1     -38.664  23.299 -10.096  0.00  0.00     0.163 HD
BRANCH  29  31
ATOM     31  C17 NON d   1     -39.352  22.131 -11.734  0.00  0.00     0.187 C 
BRANCH  31  32
ATOM     32  C18 NON d   1     -39.931  23.275 -12.466  0.00  0.00     0.070 A 
ATOM     33  C19 NON d   1     -40.439  23.474 -13.731  0.00  0.00     0.036 A 
ATOM     34  C20 NON d   1     -40.912  24.810 -13.764  0.00  0.00     0.027 A 
ATOM     35  C21 NON d   1     -40.669  25.337 -12.519  0.00  0.00     0.142 A 
ATOM     36  O3  NON d   1     -40.058  24.420 -11.730  0.00  0.00    -0.325 OA
ENDBRANCH  31  32
ENDBRANCH  29  31
ENDBRANCH  26  27
ENDBRANCH   3  21
TORSDOF 9
ENDMDL
MODEL 2
REMARK VINA RESULT:   -12.940      3.738      6.903
REMARK INTER + INTRA:         -18.940
REMARK INTER:                 -15.624
REMARK INTRA:                  -3.316
REMARK CONF_INDEPENDENT:        2.685
REMARK UNBOUND:                -3.316
REMARK  9 active torsions:
REMARK  status: ('A' for Active; 'I' for Inactive)
REMARK    1  A    between atoms: C6_6  and  C5_5 
REMARK    2  A    between atoms: C6_6  and  N1_7 
REMARK    3  A    between atoms: C6_6  and  C22_28 
REMARK    4  A    between atoms: N1_7  and  C7_8 
REMARK    5  A    between atoms: C7_8  and  C8_9 
REMARK       I    between atoms: C8_9  and  N2_11 
REMARK    6  A    between atoms: N2_11  and  C10_13 
REMARK    7  A    between atoms: C15_18  and  C16_19 
REMARK       I    between atoms: C16_19  and  N3_21 
REMARK    8  A    between atoms: N3_21  and  C17_22 
REMARK    9  A    between atoms: C17_22  and  C18_23 
ROOT
ATOM      1  C8  NON d   1     -40.410  18.375  -3.018  0.00  0.00     0.252 C 
ATOM      2  O1  NON d   1     -39.520  17.730  -3.576  0.00  0.00    -0.271 OA
ATOM      3  N2  NON d   1     -40.299  19.764  -2.802  0.00  0.00    -0.320 N 
ATOM      4  C9  NON d   1     -40.312  20.188  -1.322  0.00  0.00     0.159 C 
ENDROOT
BRANCH   1   5
ATOM      5  C7  NON d   1     -41.630  17.706  -2.325  0.00  0.00     0.373 C 
BRANCH   5   6
ATOM      6  N1  NON d   1     -42.941  18.115  -2.859  0.00  0.00     0.106 N 
ATOM      7  H7  NON d   1     -43.675  17.910  -2.189  0.00  0.00     0.317 HD
BRANCH   6   8
ATOM      8  C6  NON d   1     -43.264  17.473  -4.156  0.00  0.00     0.293 C 
BRANCH   8   9
ATOM      9  C5  NON d   1     -42.511  18.156  -5.304  0.00  0.00    -0.020 A 
ATOM     10  C4  NON d   1     -42.742  19.506  -5.654  0.00  0.00     0.010 A 
ATOM     11  C3  NON d   1     -41.837  20.220  -6.445  0.00  0.00     0.007 A 
ATOM     12  C2  NON d   1     -40.700  19.583  -6.932  0.00  0.00    -0.062 A 
ATOM     13  C1  NON d   1     -39.672  20.327  -7.804  0.00  0.00     0.048 C 
ATOM     14  C27 NON d   1     -40.525  18.210  -6.693  0.00  0.00     0.007 A 
ATOM     15  C26 NON d   1     -41.402  17.514  -5.870  0.00  0.00     0.010 A 
ENDBRANCH   8   9
BRANCH   8  16
ATOM     16  C22 NON d   1     -44.778  17.246  -4.300  0.00  0.00     0.020 A 
ATOM     17  C23 NON d   1     -45.656  16.881  -3.284  0.00  0.00     0.017 A 
ATOM     18  C24 NON d   1     -46.957  16.543  -3.756  0.00  0.00     0.008 A 
ATOM     19  C25 NON d   1     -47.048  16.659  -5.122  0.00  0.00     0.050 A 
ATOM     20  S1  NON d   1     -45.604  17.255  -5.808  0.00  0.00    -0.104 SA
ENDBRANCH   8  16
ENDBRANCH   6   8
ENDBRANCH   5   6
ENDBRANCH   1   5
BRANCH   3  21
ATOM     21  C10 NON d   1     -39.496  20.594  -3.682  0.00  0.00     0.052 A 
ATOM     22  C11 NON d   1     -38.535  19.964  -4.499  0.00  0.00     0.031 A 
ATOM     23  C12 NON d   1     -37.709  20.690  -5.369  0.00  0.00     0.002 A 
ATOM     24  C13 NON d   1     -37.826  22.072  -5.456  0.00  0.00     0.001 A 
ATOM     25  C14 NON d   1     -38.789  22.725  -4.694  0.00  0.00     0.019 A 
ATOM     26  C15 NON d   1     -39.623  21.997  -3.827  0.00  0.00     0.058 A 
BRANCH  26  27
ATOM     27  C16 NON d   1     -40.688  22.794  -3.184  0.00  0.00     0.254 C 
ATOM     28  O2  NON d   1     -41.804  22.815  -3.685  0.00  0.00    -0.268 OA
ATOM     29  N3  NON d   1     -40.352  23.413  -1.998  0.00  0.00    -0.351 N 
ATOM     30  H17 NON d   1     -39.416  23.310  -1.627  0.00  0.00     0.163 HD
BRANCH  29  31
ATOM     31  C17 NON d   1     -41.394  23.894  -1.109  0.00  0.00     0.187 C 
BRANCH  31  32
ATOM     32  C18 NON d   1     -40.918  24.145   0.266  0.00  0.00     0.070 A 
ATOM     33  C19 NON d   1     -41.438  24.756   1.388  0.00  0.00     0.036 A 
ATOM     34  C20 NON d   1     -40.479  24.580   2.417  0.00  0.00     0.027 A 
ATOM     35  C21 NON d   1     -39.442  23.870   1.861  0.00  0.00     0.142 A 
ATOM     36  O3  NON d   1     -39.690  23.617   0.554  0.00  0.00    -0.325 OA
ENDBRANCH  31  32
ENDBRANCH  29  31
ENDBRANCH  26  27
ENDBRANCH   3  21
TORSDOF 9
ENDMDL
MODEL 3
REMARK VINA RESULT:   -12.748      1.578      2.469
REMARK INTER + INTRA:         -17.629
REMARK INTER:                 -15.433
REMARK INTRA:                  -2.196
REMARK CONF_INDEPENDENT:        2.685
REMARK UNBOUND:                -2.196
REMARK  9 active torsions:
REMARK  status: ('A' for Active; 'I' for Inactive)
REMARK    1  A    between atoms: C6_6  and  C5_5 
REMARK    2  A    between atoms: C6_6  and  N1_7 
REMARK    3  A    between atoms: C6_6  and  C22_28 
REMARK    4  A    between atoms: N1_7  and  C7_8 
REMARK    5  A    between atoms: C7_8  and  C8_9 
REMARK       I    between atoms: C8_9  and  N2_11 
REMARK    6  A    between atoms: N2_11  and  C10_13 
REMARK    7  A    between atoms: C15_18  and  C16_19 
REMARK       I    between atoms: C16_19  and  N3_21 
REMARK    8  A    between atoms: N3_21  and  C17_22 
REMARK    9  A    between atoms: C17_22  and  C18_23 
ROOT
ATOM      1  C8  NON d   1     -41.033  20.028  -7.428  0.00  0.00     0.252 C 
ATOM      2  O1  NON d   1     -41.434  19.881  -8.584  0.00  0.00    -0.271 OA
ATOM      3  N2  NON d   1     -39.677  19.857  -7.084  0.00  0.00    -0.320 N 
ATOM      4  C9  NON d   1     -39.406  18.727  -6.073  0.00  0.00     0.159 C 
ENDROOT
BRANCH   1   5
ATOM      5  C7  NON d   1     -41.993  20.208  -6.219  0.00  0.00     0.373 C 
BRANCH   5   6
ATOM      6  N1  NON d   1     -43.122  19.262  -6.183  0.00  0.00     0.106 N 
ATOM      7  H7  NON d   1     -43.880  19.593  -6.771  0.00  0.00     0.317 HD
BRANCH   6   8
ATOM      8  C6  NON d   1     -43.631  19.019  -4.811  0.00  0.00     0.293 C 
BRANCH   8   9
ATOM      9  C5  NON d   1     -42.483  18.655  -3.862  0.00  0.00    -0.020 A 
ATOM     10  C4  NON d   1     -42.268  17.331  -3.419  0.00  0.00     0.010 A 
ATOM     11  C3  NON d   1     -41.052  16.940  -2.851  0.00  0.00     0.007 A 
ATOM     12  C2  NON d   1     -40.041  17.880  -2.681  0.00  0.00    -0.062 A 
ATOM     13  C1  NON d   1     -38.683  17.497  -2.064  0.00  0.00     0.048 C 
ATOM     14  C27 NON d   1     -40.289  19.224  -3.003  0.00  0.00     0.007 A 
ATOM     15  C26 NON d   1     -41.482  19.601  -3.609  0.00  0.00     0.010 A 
ENDBRANCH   8   9
BRANCH   8  16
ATOM     16  C22 NON d   1     -44.881  18.125  -4.836  0.00  0.00     0.020 A 
ATOM     17  C23 NON d   1     -45.260  17.211  -3.857  0.00  0.00     0.017 A 
ATOM     18  C24 NON d   1     -46.350  16.382  -4.249  0.00  0.00     0.008 A 
ATOM     19  C25 NON d   1     -46.783  16.679  -5.518  0.00  0.00     0.050 A 
ATOM     20  S1  NON d   1     -45.940  18.005  -6.186  0.00  0.00    -0.104 SA
ENDBRANCH   8  16
ENDBRANCH   6   8
ENDBRANCH   5   6
ENDBRANCH   1   5
BRANCH   3  21
ATOM     21  C10 NON d   1     -38.625  20.090  -8.057  0.00  0.00     0.052 A 
ATOM     22  C11 NON d   1     -37.784  19.010  -8.399  0.00  0.00     0.031 A 
ATOM     23  C12 NON d   1     -36.735  19.149  -9.319  0.00  0.00     0.002 A 
ATOM     24  C13 NON d   1     -36.502  20.372  -9.936  0.00  0.00     0.001 A 
ATOM     25  C14 NON d   1     -37.333  21.450  -9.653  0.00  0.00     0.019 A 
ATOM     26  C15 NON d   1     -38.390  21.311  -8.735  0.00  0.00     0.058 A 
BRANCH  26  27
ATOM     27  C16 NON d   1     -39.276  22.489  -8.632  0.00  0.00     0.254 C 
ATOM     28  O2  NON d   1     -39.310  23.121  -7.585  0.00  0.00    -0.268 OA
ATOM     29  N3  NON d   1     -39.960  22.836  -9.779  0.00  0.00    -0.351 N 
ATOM     30  H17 NON d   1     -39.842  22.283 -10.619  0.00  0.00     0.163 HD
BRANCH  29  31
ATOM     31  C17 NON d   1     -40.547  24.157  -9.902  0.00  0.00     0.187 C 
BRANCH  31  32
ATOM     32  C18 NON d   1     -40.302  24.784 -11.216  0.00  0.00     0.070 A 
ATOM     33  C19 NON d   1     -40.319  26.072 -11.708  0.00  0.00     0.036 A 
ATOM     34  C20 NON d   1     -39.906  25.988 -13.061  0.00  0.00     0.027 A 
ATOM     35  C21 NON d   1     -39.658  24.659 -13.307  0.00  0.00     0.142 A 
ATOM     36  O3  NON d   1     -39.912  23.919 -12.201  0.00  0.00    -0.325 OA
ENDBRANCH  31  32
ENDBRANCH  29  31
ENDBRANCH  26  27
ENDBRANCH   3  21
TORSDOF 9
ENDMDL
MODEL 4
REMARK VINA RESULT:   -12.586      3.565      5.286
REMARK INTER + INTRA:         -18.273
REMARK INTER:                 -15.270
REMARK INTRA:                  -3.003
REMARK CONF_INDEPENDENT:        2.685
REMARK UNBOUND:                -3.003
REMARK  9 active torsions:
REMARK  status: ('A' for Active; 'I' for Inactive)
REMARK    1  A    between atoms: C6_6  and  C5_5 
REMARK    2  A    between atoms: C6_6  and  N1_7 
REMARK    3  A    between atoms: C6_6  and  C22_28 
REMARK    4  A    between atoms: N1_7  and  C7_8 
REMARK    5  A    between atoms: C7_8  and  C8_9 
REMARK       I    between atoms: C8_9  and  N2_11 
REMARK    6  A    between atoms: N2_11  and  C10_13 
REMARK    7  A    between atoms: C15_18  and  C16_19 
REMARK       I    between atoms: C16_19  and  N3_21 
REMARK    8  A    between atoms: N3_21  and  C17_22 
REMARK    9  A    between atoms: C17_22  and  C18_23 
ROOT
ATOM      1  C8  NON d   1     -41.062  19.183  -2.787  0.00  0.00     0.252 C 
ATOM      2  O1  NON d   1     -41.534  20.022  -3.557  0.00  0.00    -0.271 OA
ATOM      3  N2  NON d   1     -39.851  19.403  -2.099  0.00  0.00    -0.320 N 
ATOM      4  C9  NON d   1     -38.730  18.401  -2.435  0.00  0.00     0.159 C 
ENDROOT
BRANCH   1   5
ATOM      5  C7  NON d   1     -41.633  17.744  -2.655  0.00  0.00     0.373 C 
BRANCH   5   6
ATOM      6  N1  NON d   1     -43.096  17.647  -2.798  0.00  0.00     0.106 N 
ATOM      7  H7  NON d   1     -43.486  17.063  -2.065  0.00  0.00     0.317 HD
BRANCH   6   8
ATOM      8  C6  NON d   1     -43.516  17.124  -4.121  0.00  0.00     0.293 C 
BRANCH   8   9
ATOM      9  C5  NON d   1     -42.753  17.827  -5.250  0.00  0.00    -0.020 A 
ATOM     10  C4  NON d   1     -43.088  19.130  -5.683  0.00  0.00     0.010 A 
ATOM     11  C3  NON d   1     -42.202  19.894  -6.448  0.00  0.00     0.007 A 
ATOM     12  C2  NON d   1     -40.978  19.352  -6.828  0.00  0.00    -0.062 A 
ATOM     13  C1  NON d   1     -39.968  20.155  -7.668  0.00  0.00     0.048 C 
ATOM     14  C27 NON d   1     -40.690  18.015  -6.508  0.00  0.00     0.007 A 
ATOM     15  C26 NON d   1     -41.552  17.273  -5.710  0.00  0.00     0.010 A 
ENDBRANCH   8   9
BRANCH   8  16
ATOM     16  C22 NON d   1     -45.047  17.023  -4.216  0.00  0.00     0.020 A 
ATOM     17  C23 NON d   1     -45.954  17.249  -3.185  0.00  0.00     0.017 A 
ATOM     18  C24 NON d   1     -47.289  16.880  -3.516  0.00  0.00     0.008 A 
ATOM     19  C25 NON d   1     -47.377  16.380  -4.792  0.00  0.00     0.050 A 
ATOM     20  S1  NON d   1     -45.878  16.446  -5.607  0.00  0.00    -0.104 SA
ENDBRANCH   8  16
ENDBRANCH   6   8
ENDBRANCH   5   6
ENDBRANCH   1   5
BRANCH   3  21
ATOM     21  C10 NON d   1     -39.410  20.747  -1.774  0.00  0.00     0.052 A 
ATOM     22  C11 NON d   1     -39.377  21.127  -0.417  0.00  0.00     0.031 A 
ATOM     23  C12 NON d   1     -38.976  22.409  -0.014  0.00  0.00     0.002 A 
ATOM     24  C13 NON d   1     -38.585  23.350  -0.959  0.00  0.00     0.001 A 
ATOM     25  C14 NON d   1     -38.569  23.000  -2.305  0.00  0.00     0.019 A 
ATOM     26  C15 NON d   1     -38.964  21.712  -2.710  0.00  0.00     0.058 A 
BRANCH  26  27
ATOM     27  C16 NON d   1     -38.766  21.431  -4.146  0.00  0.00     0.254 C 
ATOM     28  O2  NON d   1     -39.742  21.364  -4.882  0.00  0.00    -0.268 OA
ATOM     29  N3  NON d   1     -37.457  21.333  -4.572  0.00  0.00    -0.351 N 
ATOM     30  H17 NON d   1     -36.704  21.445  -3.905  0.00  0.00     0.163 HD
BRANCH  29  31
ATOM     31  C17 NON d   1     -37.144  21.436  -5.985  0.00  0.00     0.187 C 
BRANCH  31  32
ATOM     32  C18 NON d   1     -36.873  20.131  -6.620  0.00  0.00     0.070 A 
ATOM     33  C19 NON d   1     -36.592  19.701  -7.900  0.00  0.00     0.036 A 
ATOM     34  C20 NON d   1     -36.356  18.306  -7.808  0.00  0.00     0.027 A 
ATOM     35  C21 NON d   1     -36.502  17.976  -6.483  0.00  0.00     0.142 A 
ATOM     36  O3  NON d   1     -36.832  19.071  -5.757  0.00  0.00    -0.325 OA
ENDBRANCH  31  32
ENDBRANCH  29  31
ENDBRANCH  26  27
ENDBRANCH   3  21
TORSDOF 9
ENDMDL
MODEL 5
REMARK VINA RESULT:   -12.441      1.859      4.682
REMARK INTER + INTRA:         -17.831
REMARK INTER:                 -15.125
REMARK INTRA:                  -2.706
REMARK CONF_INDEPENDENT:        2.685
REMARK UNBOUND:                -2.706
REMARK  9 active torsions:
REMARK  status: ('A' for Active; 'I' for Inactive)
REMARK    1  A    between atoms: C6_6  and  C5_5 
REMARK    2  A    between atoms: C6_6  and  N1_7 
REMARK    3  A    between atoms: C6_6  and  C22_28 
REMARK    4  A    between atoms: N1_7  and  C7_8 
REMARK    5  A    between atoms: C7_8  and  C8_9 
REMARK       I    between atoms: C8_9  and  N2_11 
REMARK    6  A    between atoms: N2_11  and  C10_13 
REMARK    7  A    between atoms: C15_18  and  C16_19 
REMARK       I    between atoms: C16_19  and  N3_21 
REMARK    8  A    between atoms: N3_21  and  C17_22 
REMARK    9  A    between atoms: C17_22  and  C18_23 
ROOT
ATOM      1  C8  NON d   1     -41.384  20.528  -7.418  0.00  0.00     0.252 C 
ATOM      2  O1  NON d   1     -41.769  19.986  -8.455  0.00  0.00    -0.271 OA
ATOM      3  N2  NON d   1     -40.203  21.298  -7.375  0.00  0.00    -0.320 N 
ATOM      4  C9  NON d   1     -39.117  20.759  -6.427  0.00  0.00     0.159 C 
ENDROOT
BRANCH   1   5
ATOM      5  C7  NON d   1     -42.032  20.255  -6.032  0.00  0.00     0.373 C 
BRANCH   5   6
ATOM      6  N1  NON d   1     -43.247  19.422  -6.075  0.00  0.00     0.106 N 
ATOM      7  H7  NON d   1     -44.037  19.967  -6.405  0.00  0.00     0.317 HD
BRANCH   6   8
ATOM      8  C6  NON d   1     -43.579  18.814  -4.764  0.00  0.00     0.293 C 
BRANCH   8   9
ATOM      9  C5  NON d   1     -42.327  18.222  -4.106  0.00  0.00    -0.020 A 
ATOM     10  C4  NON d   1     -41.148  17.960  -4.840  0.00  0.00     0.010 A 
ATOM     11  C3  NON d   1     -39.922  17.755  -4.200  0.00  0.00     0.007 A 
ATOM     12  C2  NON d   1     -39.861  17.772  -2.810  0.00  0.00    -0.062 A 
ATOM     13  C1  NON d   1     -38.534  17.554  -2.060  0.00  0.00     0.048 C 
ATOM     14  C27 NON d   1     -41.048  17.907  -2.071  0.00  0.00     0.007 A 
ATOM     15  C26 NON d   1     -42.258  18.155  -2.709  0.00  0.00     0.010 A 
ENDBRANCH   8   9
BRANCH   8  16
ATOM     16  C22 NON d   1     -44.843  17.944  -4.862  0.00  0.00     0.020 A 
ATOM     17  C23 NON d   1     -45.209  16.921  -3.993  0.00  0.00     0.017 A 
ATOM     18  C24 NON d   1     -46.321  16.160  -4.453  0.00  0.00     0.008 A 
ATOM     19  C25 NON d   1     -46.785  16.617  -5.662  0.00  0.00     0.050 A 
ATOM     20  S1  NON d   1     -45.940  18.005  -6.185  0.00  0.00    -0.104 SA
ENDBRANCH   8  16
ENDBRANCH   6   8
ENDBRANCH   5   6
ENDBRANCH   1   5
BRANCH   3  21
ATOM     21  C10 NON d   1     -39.715  21.982  -8.559  0.00  0.00     0.052 A 
ATOM     22  C11 NON d   1     -39.477  21.217  -9.719  0.00  0.00     0.031 A 
ATOM     23  C12 NON d   1     -38.992  21.793 -10.902  0.00  0.00     0.002 A 
ATOM     24  C13 NON d   1     -38.741  23.159 -10.965  0.00  0.00     0.001 A 
ATOM     25  C14 NON d   1     -39.000  23.952  -9.852  0.00  0.00     0.019 A 
ATOM     26  C15 NON d   1     -39.492  23.377  -8.667  0.00  0.00     0.058 A 
BRANCH  26  27
ATOM     27  C16 NON d   1     -39.853  24.348  -7.614  0.00  0.00     0.254 C 
ATOM     28  O2  NON d   1     -40.509  25.337  -7.912  0.00  0.00    -0.268 OA
ATOM     29  N3  NON d   1     -39.473  24.020  -6.329  0.00  0.00    -0.351 N 
ATOM     30  H17 NON d   1     -38.969  23.158  -6.160  0.00  0.00     0.163 HD
BRANCH  29  31
ATOM     31  C17 NON d   1     -40.086  24.689  -5.197  0.00  0.00     0.187 C 
BRANCH  31  32
ATOM     32  C18 NON d   1     -40.280  23.805  -4.030  0.00  0.00     0.070 A 
ATOM     33  C19 NON d   1     -40.452  23.992  -2.676  0.00  0.00     0.036 A 
ATOM     34  C20 NON d   1     -40.666  22.705  -2.120  0.00  0.00     0.027 A 
ATOM     35  C21 NON d   1     -40.617  21.819  -3.169  0.00  0.00     0.142 A 
ATOM     36  O3  NON d   1     -40.367  22.473  -4.329  0.00  0.00    -0.325 OA
ENDBRANCH  31  32
ENDBRANCH  29  31
ENDBRANCH  26  27
ENDBRANCH   3  21
TORSDOF 9
ENDMDL
MODEL 6
REMARK VINA RESULT:   -12.335      2.895      8.437
REMARK INTER + INTRA:         -17.542
REMARK INTER:                 -15.020
REMARK INTRA:                  -2.522
REMARK CONF_INDEPENDENT:        2.685
REMARK UNBOUND:                -2.522
REMARK  9 active torsions:
REMARK  status: ('A' for Active; 'I' for Inactive)
REMARK    1  A    between atoms: C6_6  and  C5_5 
REMARK    2  A    between atoms: C6_6  and  N1_7 
REMARK    3  A    between atoms: C6_6  and  C22_28 
REMARK    4  A    between atoms: N1_7  and  C7_8 
REMARK    5  A    between atoms: C7_8  and  C8_9 
REMARK       I    between atoms: C8_9  and  N2_11 
REMARK    6  A    between atoms: N2_11  and  C10_13 
REMARK    7  A    between atoms: C15_18  and  C16_19 
REMARK       I    between atoms: C16_19  and  N3_21 
REMARK    8  A    between atoms: N3_21  and  C17_22 
REMARK    9  A    between atoms: C17_22  and  C18_23 
ROOT
ATOM      1  C8  NON d   1     -41.056  20.378  -6.742  0.00  0.00     0.252 C 
ATOM      2  O1  NON d   1     -40.895  21.293  -5.933  0.00  0.00    -0.271 OA
ATOM      3  N2  NON d   1     -40.779  19.036  -6.411  0.00  0.00    -0.320 N 
ATOM      4  C9  NON d   1     -39.675  18.378  -7.260  0.00  0.00     0.159 C 
ENDROOT
BRANCH   1   5
ATOM      5  C7  NON d   1     -41.378  20.624  -8.242  0.00  0.00     0.373 C 
BRANCH   5   6
ATOM      6  N1  NON d   1     -40.500  21.604  -8.906  0.00  0.00     0.106 N 
ATOM      7  H7  NON d   1     -40.808  21.766  -9.859  0.00  0.00     0.317 HD
BRANCH   6   8
ATOM      8  C6  NON d   1     -39.074  21.196  -8.910  0.00  0.00     0.293 C 
BRANCH   8   9
ATOM      9  C5  NON d   1     -38.341  21.767  -7.691  0.00  0.00    -0.020 A 
ATOM     10  C4  NON d   1     -38.524  23.102  -7.265  0.00  0.00     0.010 A 
ATOM     11  C3  NON d   1     -38.141  23.518  -5.986  0.00  0.00     0.007 A 
ATOM     12  C2  NON d   1     -37.533  22.612  -5.123  0.00  0.00    -0.062 A 
ATOM     13  C1  NON d   1     -37.098  23.022  -3.703  0.00  0.00     0.048 C 
ATOM     14  C27 NON d   1     -37.235  21.318  -5.581  0.00  0.00     0.007 A 
ATOM     15  C26 NON d   1     -37.656  20.894  -6.836  0.00  0.00     0.010 A 
ENDBRANCH   8   9
BRANCH   8  16
ATOM     16  C22 NON d   1     -38.449  21.382 -10.302  0.00  0.00     0.020 A 
ATOM     17  C23 NON d   1     -37.175  20.983 -10.694  0.00  0.00     0.017 A 
ATOM     18  C24 NON d   1     -36.799  21.473 -11.978  0.00  0.00     0.008 A 
ATOM     19  C25 NON d   1     -37.793  22.236 -12.542  0.00  0.00     0.050 A 
ATOM     20  S1  NON d   1     -39.194  22.278 -11.567  0.00  0.00    -0.104 SA
ENDBRANCH   8  16
ENDBRANCH   6   8
ENDBRANCH   5   6
ENDBRANCH   1   5
BRANCH   3  21
ATOM     21  C10 NON d   1     -40.871  18.571  -5.039  0.00  0.00     0.052 A 
ATOM     22  C11 NON d   1     -39.680  18.459  -4.292  0.00  0.00     0.031 A 
ATOM     23  C12 NON d   1     -39.675  18.006  -2.965  0.00  0.00     0.002 A 
ATOM     24  C13 NON d   1     -40.866  17.661  -2.338  0.00  0.00     0.001 A 
ATOM     25  C14 NON d   1     -42.065  17.794  -3.030  0.00  0.00     0.019 A 
ATOM     26  C15 NON d   1     -42.073  18.255  -4.359  0.00  0.00     0.058 A 
BRANCH  26  27
ATOM     27  C16 NON d   1     -43.418  18.480  -4.925  0.00  0.00     0.254 C 
ATOM     28  O2  NON d   1     -43.608  19.448  -5.649  0.00  0.00    -0.268 OA
ATOM     29  N3  NON d   1     -44.365  17.516  -4.643  0.00  0.00    -0.351 N 
ATOM     30  H17 NON d   1     -44.114  16.720  -4.070  0.00  0.00     0.163 HD
BRANCH  29  31
ATOM     31  C17 NON d   1     -45.578  17.437  -5.435  0.00  0.00     0.187 C 
BRANCH  31  32
ATOM     32  C18 NON d   1     -46.605  16.555  -4.846  0.00  0.00     0.070 A 
ATOM     33  C19 NON d   1     -47.048  16.281  -3.569  0.00  0.00     0.036 A 
ATOM     34  C20 NON d   1     -48.134  15.381  -3.710  0.00  0.00     0.027 A 
ATOM     35  C21 NON d   1     -48.287  15.167  -5.058  0.00  0.00     0.142 A 
ATOM     36  O3  NON d   1     -47.354  15.860  -5.755  0.00  0.00    -0.325 OA
ENDBRANCH  31  32
ENDBRANCH  29  31
ENDBRANCH  26  27
ENDBRANCH   3  21
TORSDOF 9
ENDMDL
MODEL 7
REMARK VINA RESULT:   -12.089      2.827      4.599
REMARK INTER + INTRA:         -17.834
REMARK INTER:                 -14.774
REMARK INTRA:                  -3.061
REMARK CONF_INDEPENDENT:        2.685
REMARK UNBOUND:                -3.061
REMARK  9 active torsions:
REMARK  status: ('A' for Active; 'I' for Inactive)
REMARK    1  A    between atoms: C6_6  and  C5_5 
REMARK    2  A    between atoms: C6_6  and  N1_7 
REMARK    3  A    between atoms: C6_6  and  C22_28 
REMARK    4  A    between atoms: N1_7  and  C7_8 
REMARK    5  A    between atoms: C7_8  and  C8_9 
REMARK       I    between atoms: C8_9  and  N2_11 
REMARK    6  A    between atoms: N2_11  and  C10_13 
REMARK    7  A    between atoms: C15_18  and  C16_19 
REMARK       I    between atoms: C16_19  and  N3_21 
REMARK    8  A    between atoms: N3_21  and  C17_22 
REMARK    9  A    between atoms: C17_22  and  C18_23 
ROOT
ATOM      1  C8  NON d   1     -40.941  19.527  -2.777  0.00  0.00     0.252 C 
ATOM      2  O1  NON d   1     -41.419  20.397  -3.507  0.00  0.00    -0.271 OA
ATOM      3  N2  NON d   1     -39.763  19.746  -2.033  0.00  0.00    -0.320 N 
ATOM      4  C9  NON d   1     -38.593  18.811  -2.392  0.00  0.00     0.159 C 
ENDROOT
BRANCH   1   5
ATOM      5  C7  NON d   1     -41.459  18.062  -2.759  0.00  0.00     0.373 C 
BRANCH   5   6
ATOM      6  N1  NON d   1     -42.920  17.924  -2.891  0.00  0.00     0.106 N 
ATOM      7  H7  NON d   1     -43.288  17.335  -2.151  0.00  0.00     0.317 HD
BRANCH   6   8
ATOM      8  C6  NON d   1     -43.334  17.382  -4.207  0.00  0.00     0.293 C 
BRANCH   8   9
ATOM      9  C5  NON d   1     -42.552  18.053  -5.342  0.00  0.00    -0.020 A 
ATOM     10  C4  NON d   1     -42.834  19.369  -5.772  0.00  0.00     0.010 A 
ATOM     11  C3  NON d   1     -41.924  20.096  -6.545  0.00  0.00     0.007 A 
ATOM     12  C2  NON d   1     -40.727  19.502  -6.934  0.00  0.00    -0.062 A 
ATOM     13  C1  NON d   1     -39.691  20.262  -7.782  0.00  0.00     0.048 C 
ATOM     14  C27 NON d   1     -40.493  18.153  -6.617  0.00  0.00     0.007 A 
ATOM     15  C26 NON d   1     -41.379  17.448  -5.812  0.00  0.00     0.010 A 
ENDBRANCH   8   9
BRANCH   8  16
ATOM     16  C22 NON d   1     -44.865  17.300  -4.314  0.00  0.00     0.020 A 
ATOM     17  C23 NON d   1     -45.758  17.123  -3.261  0.00  0.00     0.017 A 
ATOM     18  C24 NON d   1     -47.095  16.880  -3.688  0.00  0.00     0.008 A 
ATOM     19  C25 NON d   1     -47.199  16.877  -5.057  0.00  0.00     0.050 A 
ATOM     20  S1  NON d   1     -45.714  17.255  -5.810  0.00  0.00    -0.104 SA
ENDBRANCH   8  16
ENDBRANCH   6   8
ENDBRANCH   5   6
ENDBRANCH   1   5
BRANCH   3  21
ATOM     21  C10 NON d   1     -39.387  21.081  -1.605  0.00  0.00     0.052 A 
ATOM     22  C11 NON d   1     -39.420  21.373  -0.226  0.00  0.00     0.031 A 
ATOM     23  C12 NON d   1     -39.085  22.640   0.273  0.00  0.00     0.002 A 
ATOM     24  C13 NON d   1     -38.694  23.653  -0.594  0.00  0.00     0.001 A 
ATOM     25  C14 NON d   1     -38.613  23.392  -1.957  0.00  0.00     0.019 A 
ATOM     26  C15 NON d   1     -38.942  22.120  -2.459  0.00  0.00     0.058 A 
BRANCH  26  27
ATOM     27  C16 NON d   1     -38.680  21.940  -3.901  0.00  0.00     0.254 C 
ATOM     28  O2  NON d   1     -38.118  20.923  -4.285  0.00  0.00    -0.268 OA
ATOM     29  N3  NON d   1     -39.165  22.928  -4.735  0.00  0.00    -0.351 N 
ATOM     30  H17 NON d   1     -39.659  23.718  -4.340  0.00  0.00     0.163 HD
BRANCH  29  31
ATOM     31  C17 NON d   1     -39.297  22.676  -6.158  0.00  0.00     0.187 C 
BRANCH  31  32
ATOM     32  C18 NON d   1     -39.663  23.878  -6.932  0.00  0.00     0.070 A 
ATOM     33  C19 NON d   1     -39.868  24.162  -8.266  0.00  0.00     0.036 A 
ATOM     34  C20 NON d   1     -40.283  25.517  -8.325  0.00  0.00     0.027 A 
ATOM     35  C21 NON d   1     -40.310  25.970  -7.028  0.00  0.00     0.142 A 
ATOM     36  O3  NON d   1     -39.920  24.990  -6.178  0.00  0.00    -0.325 OA
ENDBRANCH  31  32
ENDBRANCH  29  31
ENDBRANCH  26  27
ENDBRANCH   3  21
TORSDOF 9
ENDMDL
MODEL 8
REMARK VINA RESULT:   -12.074      2.092      4.516
REMARK INTER + INTRA:         -18.162
REMARK INTER:                 -14.759
REMARK INTRA:                  -3.403
REMARK CONF_INDEPENDENT:        2.685
REMARK UNBOUND:                -3.403
REMARK  9 active torsions:
REMARK  status: ('A' for Active; 'I' for Inactive)
REMARK    1  A    between atoms: C6_6  and  C5_5 
REMARK    2  A    between atoms: C6_6  and  N1_7 
REMARK    3  A    between atoms: C6_6  and  C22_28 
REMARK    4  A    between atoms: N1_7  and  C7_8 
REMARK    5  A    between atoms: C7_8  and  C8_9 
REMARK       I    between atoms: C8_9  and  N2_11 
REMARK    6  A    between atoms: N2_11  and  C10_13 
REMARK    7  A    between atoms: C15_18  and  C16_19 
REMARK       I    between atoms: C16_19  and  N3_21 
REMARK    8  A    between atoms: N3_21  and  C17_22 
REMARK    9  A    between atoms: C17_22  and  C18_23 
ROOT
ATOM      1  C8  NON d   1     -40.788  19.227  -6.955  0.00  0.00     0.252 C 
ATOM      2  O1  NON d   1     -41.828  19.811  -7.265  0.00  0.00    -0.271 OA
ATOM      3  N2  NON d   1     -39.550  19.547  -7.549  0.00  0.00    -0.320 N 
ATOM      4  C9  NON d   1     -38.896  18.394  -8.332  0.00  0.00     0.159 C 
ENDROOT
BRANCH   1   5
ATOM      5  C7  NON d   1     -40.767  17.966  -6.047  0.00  0.00     0.373 C 
BRANCH   5   6
ATOM      6  N1  NON d   1     -42.096  17.423  -5.717  0.00  0.00     0.106 N 
ATOM      7  H7  NON d   1     -42.571  17.115  -6.560  0.00  0.00     0.317 HD
BRANCH   6   8
ATOM      8  C6  NON d   1     -42.954  18.391  -4.993  0.00  0.00     0.293 C 
BRANCH   8   9
ATOM      9  C5  NON d   1     -42.169  19.081  -3.871  0.00  0.00    -0.020 A 
ATOM     10  C4  NON d   1     -41.753  18.388  -2.712  0.00  0.00     0.010 A 
ATOM     11  C3  NON d   1     -40.763  18.902  -1.870  0.00  0.00     0.007 A 
ATOM     12  C2  NON d   1     -40.197  20.141  -2.154  0.00  0.00    -0.062 A 
ATOM     13  C1  NON d   1     -39.101  20.749  -1.259  0.00  0.00     0.048 C 
ATOM     14  C27 NON d   1     -40.691  20.893  -3.233  0.00  0.00     0.007 A 
ATOM     15  C26 NON d   1     -41.643  20.360  -4.093  0.00  0.00     0.010 A 
ENDBRANCH   8   9
BRANCH   8  16
ATOM     16  C22 NON d   1     -44.325  17.778  -4.665  0.00  0.00     0.020 A 
ATOM     17  C23 NON d   1     -44.686  17.153  -3.475  0.00  0.00     0.017 A 
ATOM     18  C24 NON d   1     -45.952  16.504  -3.539  0.00  0.00     0.008 A 
ATOM     19  C25 NON d   1     -46.535  16.645  -4.774  0.00  0.00     0.050 A 
ATOM     20  S1  NON d   1     -45.600  17.630  -5.810  0.00  0.00    -0.104 SA
ENDBRANCH   8  16
ENDBRANCH   6   8
ENDBRANCH   5   6
ENDBRANCH   1   5
BRANCH   3  21
ATOM     21  C10 NON d   1     -39.293  20.878  -8.068  0.00  0.00     0.052 A 
ATOM     22  C11 NON d   1     -39.467  21.100  -9.449  0.00  0.00     0.031 A 
ATOM     23  C12 NON d   1     -39.228  22.351 -10.036  0.00  0.00     0.002 A 
ATOM     24  C13 NON d   1     -38.817  23.425  -9.255  0.00  0.00     0.001 A 
ATOM     25  C14 NON d   1     -38.671  23.254  -7.883  0.00  0.00     0.019 A 
ATOM     26  C15 NON d   1     -38.916  22.002  -7.291  0.00  0.00     0.058 A 
BRANCH  26  27
ATOM     27  C16 NON d   1     -38.858  21.995  -5.815  0.00  0.00     0.254 C 
ATOM     28  O2  NON d   1     -38.296  21.072  -5.243  0.00  0.00    -0.268 OA
ATOM     29  N3  NON d   1     -39.395  23.098  -5.182  0.00  0.00    -0.351 N 
ATOM     30  H17 NON d   1     -39.803  23.843  -5.733  0.00  0.00     0.163 HD
BRANCH  29  31
ATOM     31  C17 NON d   1     -39.063  23.372  -3.796  0.00  0.00     0.187 C 
BRANCH  31  32
ATOM     32  C18 NON d   1     -39.915  24.411  -3.185  0.00  0.00     0.070 A 
ATOM     33  C19 NON d   1     -40.141  24.867  -1.904  0.00  0.00     0.036 A 
ATOM     34  C20 NON d   1     -41.035  25.961  -2.023  0.00  0.00     0.027 A 
ATOM     35  C21 NON d   1     -41.292  26.106  -3.365  0.00  0.00     0.142 A 
ATOM     36  O3  NON d   1     -40.632  25.161  -4.076  0.00  0.00    -0.325 OA
ENDBRANCH  31  32
ENDBRANCH  29  31
ENDBRANCH  26  27
ENDBRANCH   3  21
TORSDOF 9
ENDMDL
MODEL 9
REMARK VINA RESULT:   -11.778      2.203      3.245
REMARK INTER + INTRA:         -17.783
REMARK INTER:                 -14.463
REMARK INTRA:                  -3.320
REMARK CONF_INDEPENDENT:        2.685
REMARK UNBOUND:                -3.320
REMARK  9 active torsions:
REMARK  status: ('A' for Active; 'I' for Inactive)
REMARK    1  A    between atoms: C6_6  and  C5_5 
REMARK    2  A    between atoms: C6_6  and  N1_7 
REMARK    3  A    between atoms: C6_6  and  C22_28 
REMARK    4  A    between atoms: N1_7  and  C7_8 
REMARK    5  A    between atoms: C7_8  and  C8_9 
REMARK       I    between atoms: C8_9  and  N2_11 
REMARK    6  A    between atoms: N2_11  and  C10_13 
REMARK    7  A    between atoms: C15_18  and  C16_19 
REMARK       I    between atoms: C16_19  and  N3_21 
REMARK    8  A    between atoms: N3_21  and  C17_22 
REMARK    9  A    between atoms: C17_22  and  C18_23 
ROOT
ATOM      1  C8  NON d   1     -41.205  20.560  -6.629  0.00  0.00     0.252 C 
ATOM      2  O1  NON d   1     -41.451  21.004  -7.752  0.00  0.00    -0.271 OA
ATOM      3  N2  NON d   1     -40.333  21.224  -5.742  0.00  0.00    -0.320 N 
ATOM      4  C9  NON d   1     -39.081  20.419  -5.347  0.00  0.00     0.159 C 
ENDROOT
BRANCH   1   5
ATOM      5  C7  NON d   1     -41.655  19.147  -6.162  0.00  0.00     0.373 C 
BRANCH   5   6
ATOM      6  N1  NON d   1     -43.111  18.984  -6.013  0.00  0.00     0.106 N 
ATOM      7  H7  NON d   1     -43.600  19.766  -6.437  0.00  0.00     0.317 HD
BRANCH   6   8
ATOM      8  C6  NON d   1     -43.537  18.844  -4.599  0.00  0.00     0.293 C 
BRANCH   8   9
ATOM      9  C5  NON d   1     -42.338  18.521  -3.700  0.00  0.00    -0.020 A 
ATOM     10  C4  NON d   1     -41.982  17.194  -3.372  0.00  0.00     0.010 A 
ATOM     11  C3  NON d   1     -40.721  16.882  -2.856  0.00  0.00     0.007 A 
ATOM     12  C2  NON d   1     -39.804  17.902  -2.624  0.00  0.00    -0.062 A 
ATOM     13  C1  NON d   1     -38.401  17.609  -2.060  0.00  0.00     0.048 C 
ATOM     14  C27 NON d   1     -40.191  19.237  -2.829  0.00  0.00     0.007 A 
ATOM     15  C26 NON d   1     -41.429  19.540  -3.384  0.00  0.00     0.010 A 
ENDBRANCH   8   9
BRANCH   8  16
ATOM     16  C22 NON d   1     -44.799  17.975  -4.485  0.00  0.00     0.020 A 
ATOM     17  C23 NON d   1     -45.207  17.255  -3.366  0.00  0.00     0.017 A 
ATOM     18  C24 NON d   1     -46.303  16.383  -3.623  0.00  0.00     0.008 A 
ATOM     19  C25 NON d   1     -46.713  16.454  -4.932  0.00  0.00     0.050 A 
ATOM     20  S1  NON d   1     -45.840  17.629  -5.810  0.00  0.00    -0.104 SA
ENDBRANCH   8  16
ENDBRANCH   6   8
ENDBRANCH   5   6
ENDBRANCH   1   5
BRANCH   3  21
ATOM     21  C10 NON d   1     -40.155  22.663  -5.808  0.00  0.00     0.052 A 
ATOM     22  C11 NON d   1     -40.689  23.449  -4.766  0.00  0.00     0.031 A 
ATOM     23  C12 NON d   1     -40.574  24.847  -4.757  0.00  0.00     0.002 A 
ATOM     24  C13 NON d   1     -39.909  25.502  -5.786  0.00  0.00     0.001 A 
ATOM     25  C14 NON d   1     -39.336  24.758  -6.812  0.00  0.00     0.019 A 
ATOM     26  C15 NON d   1     -39.445  23.356  -6.819  0.00  0.00     0.058 A 
BRANCH  26  27
ATOM     27  C16 NON d   1     -38.675  22.684  -7.887  0.00  0.00     0.254 C 
ATOM     28  O2  NON d   1     -37.476  22.499  -7.733  0.00  0.00    -0.268 OA
ATOM     29  N3  NON d   1     -39.402  22.242  -8.973  0.00  0.00    -0.351 N 
ATOM     30  H17 NON d   1     -40.402  22.397  -9.003  0.00  0.00     0.163 HD
BRANCH  29  31
ATOM     31  C17 NON d   1     -38.832  21.262  -9.878  0.00  0.00     0.187 C 
BRANCH  31  32
ATOM     32  C18 NON d   1     -38.405  20.021  -9.201  0.00  0.00     0.070 A 
ATOM     33  C19 NON d   1     -37.196  19.458  -8.853  0.00  0.00     0.036 A 
ATOM     34  C20 NON d   1     -37.499  18.271  -8.140  0.00  0.00     0.027 A 
ATOM     35  C21 NON d   1     -38.870  18.188  -8.094  0.00  0.00     0.142 A 
ATOM     36  O3  NON d   1     -39.428  19.234  -8.749  0.00  0.00    -0.325 OA
ENDBRANCH  31  32
ENDBRANCH  29  31
ENDBRANCH  26  27
ENDBRANCH   3  21
TORSDOF 9
ENDMDL
