MODEL 1
REMARK VINA RESULT:    -8.067      0.000      0.000
REMARK INTER + INTRA:         -14.655
REMARK INTER:                 -11.050
REMARK INTRA:                  -3.605
REMARK CONF_INDEPENDENT:        2.983
REMARK UNBOUND:                -3.605
REMARK  10 active torsions:
REMARK  status: ('A' for Active; 'I' for Inactive)
REMARK    1  A    between atoms: C2_2  and  O2_4 
REMARK    2  A    between atoms: C3_5  and  O2_4 
REMARK    3  A    between atoms: C3_5  and  C4_6 
REMARK    4  A    between atoms: C11_15  and  C3_5 
REMARK    5  A    between atoms: C5_7  and  C4_6 
REMARK    6  A    between atoms: C11_15  and  O5_17 
REMARK    7  A    between atoms: C11_15  and  C13_18 
REMARK    8  A    between atoms: C16_21  and  O6_22 
REMARK    9  A    between atoms: C22_29  and  O8_30 
REMARK   10  A    between atoms: C23_31  and  O9_32 
ROOT
ATOM      1  C13 NON d   1     -39.231  22.014  -4.015  0.00  0.00     0.034 C 
ATOM      2  C14 NON d   1     -40.719  22.520  -3.916  0.00  0.00     0.012 C 
ATOM      3  C15 NON d   1     -41.051  22.825  -2.456  0.00  0.00     0.044 C 
ATOM      4  C16 NON d   1     -39.928  23.715  -1.952  0.00  0.00     0.089 C 
ATOM      5  C17 NON d   1     -39.944  23.790  -0.397  0.00  0.00    -0.037 C 
ATOM      6  C18 NON d   1     -41.025  23.962   0.389  0.00  0.00     0.057 C 
ATOM      7  C19 NON d   1     -40.755  24.361   1.819  0.00  0.00     0.154 C 
ATOM      8  O7  NON d   1     -41.494  23.948   2.708  0.00  0.00    -0.293 OA
ATOM      9  C20 NON d   1     -39.603  25.401   2.067  0.00  0.00     0.071 C 
ATOM     10  C21 NON d   1     -39.477  25.777   3.553  0.00  0.00     0.047 C 
ATOM     11  C22 NON d   1     -38.632  27.034   3.693  0.00  0.00     0.147 C 
ATOM     12  C23 NON d   1     -37.332  26.878   2.896  0.00  0.00     0.147 C 
ATOM     13  C24 NON d   1     -37.287  25.513   2.181  0.00  0.00     0.044 C 
ATOM     14  C25 NON d   1     -38.481  25.449   1.014  0.00  0.00    -0.023 C 
ATOM     15  C26 NON d   1     -37.359  25.496  -0.040  0.00  0.00     0.016 C 
ATOM     16  C27 NON d   1     -38.673  23.780   0.402  0.00  0.00     0.027 C 
ATOM     17  C28 NON d   1     -37.698  22.799  -0.368  0.00  0.00     0.011 C 
ATOM     18  C29 NON d   1     -37.485  22.822  -1.918  0.00  0.00     0.014 C 
ATOM     19  C30 NON d   1     -38.652  23.230  -2.864  0.00  0.00    -0.002 C 
ATOM     20  C31 NON d   1     -38.129  24.378  -3.775  0.00  0.00     0.019 C 
ENDROOT
BRANCH   1  21
ATOM     21  C11 NON d   1     -38.405  21.753  -5.288  0.00  0.00     0.085 C 
ATOM     22  C12 NON d   1     -37.143  21.092  -4.542  0.00  0.00     0.049 C 
BRANCH  21  23
ATOM     23  C3  NON d   1     -39.527  20.667  -5.901  0.00  0.00     0.166 C 
BRANCH  23  24
ATOM     24  O2  NON d   1     -39.019  20.324  -7.276  0.00  0.00    -0.313 OA
BRANCH  24  25
ATOM     25  C2  NON d   1     -39.964  20.584  -8.264  0.00  0.00     0.255 C 
ATOM     26  C1  NON d   1     -40.096  22.046  -8.613  0.00  0.00     0.126 C 
ATOM     27  O1  NON d   1     -40.681  19.719  -8.729  0.00  0.00    -0.266 OA
ENDBRANCH  24  25
ENDBRANCH  23  24
BRANCH  23  28
ATOM     28  C4  NON d   1     -39.731  19.376  -5.036  0.00  0.00     0.043 C 
BRANCH  28  29
ATOM     29  C5  NON d   1     -40.897  19.301  -3.975  0.00  0.00     0.031 C 
ATOM     30  C6  NON d   1     -41.218  18.200  -2.910  0.00  0.00     0.133 C 
ATOM     31  C7  NON d   1     -40.323  17.264  -2.135  0.00  0.00     0.040 C 
ATOM     32  O3  NON d   1     -42.176  17.327  -3.506  0.00  0.00    -0.316 OA
ATOM     33  C8  NON d   1     -42.960  18.050  -4.325  0.00  0.00     0.263 C 
ATOM     34  O4  NON d   1     -44.041  17.662  -4.735  0.00  0.00    -0.265 OA
ATOM     35  C9  NON d   1     -42.297  19.365  -4.665  0.00  0.00     0.088 C 
ATOM     36  C10 NON d   1     -42.370  19.503  -6.180  0.00  0.00     0.021 C 
ENDBRANCH  28  29
ENDBRANCH  23  28
ENDBRANCH  21  23
BRANCH  21  37
ATOM     37  O5  NON d   1     -37.580  21.493  -6.562  0.00  0.00    -0.387 OA
ATOM     38  H19 NON d   1     -37.955  21.880  -7.372  0.00  0.00     0.210 HD
ENDBRANCH  21  37
ENDBRANCH   1  21
BRANCH   4  39
ATOM     39  O6  NON d   1     -40.242  25.061  -2.352  0.00  0.00    -0.384 OA
ATOM     40  H25 NON d   1     -39.457  25.618  -2.227  0.00  0.00     0.211 HD
ENDBRANCH   4  39
BRANCH  12  41
ATOM     41  O9  NON d   1     -36.194  27.003   3.745  0.00  0.00    -0.393 OA
ATOM     42  H33 NON d   1     -36.483  26.631   4.607  0.00  0.00     0.210 HD
ENDBRANCH  12  41
BRANCH  11  43
ATOM     43  O8  NON d   1     -38.338  27.301   5.066  0.00  0.00    -0.393 OA
ATOM     44  H31 NON d   1     -37.667  26.655   5.352  0.00  0.00     0.210 HD
ENDBRANCH  11  43
TORSDOF 10
ENDMDL
MODEL 2
REMARK VINA RESULT:    -7.612      2.397      3.552
REMARK INTER + INTRA:         -13.268
REMARK INTER:                 -10.595
REMARK INTRA:                  -2.673
REMARK CONF_INDEPENDENT:        2.983
REMARK UNBOUND:                -2.673
REMARK  10 active torsions:
REMARK  status: ('A' for Active; 'I' for Inactive)
REMARK    1  A    between atoms: C2_2  and  O2_4 
REMARK    2  A    between atoms: C3_5  and  O2_4 
REMARK    3  A    between atoms: C3_5  and  C4_6 
REMARK    4  A    between atoms: C11_15  and  C3_5 
REMARK    5  A    between atoms: C5_7  and  C4_6 
REMARK    6  A    between atoms: C11_15  and  O5_17 
REMARK    7  A    between atoms: C11_15  and  C13_18 
REMARK    8  A    between atoms: C16_21  and  O6_22 
REMARK    9  A    between atoms: C22_29  and  O8_30 
REMARK   10  A    between atoms: C23_31  and  O9_32 
ROOT
ATOM      1  C13 NON d   1     -37.598  21.533  -4.522  0.00  0.00     0.034 C 
ATOM      2  C14 NON d   1     -37.071  22.986  -4.824  0.00  0.00     0.012 C 
ATOM      3  C15 NON d   1     -38.010  24.005  -4.182  0.00  0.00     0.044 C 
ATOM      4  C16 NON d   1     -38.180  23.562  -2.739  0.00  0.00     0.089 C 
ATOM      5  C17 NON d   1     -39.391  24.286  -2.082  0.00  0.00    -0.037 C 
ATOM      6  C18 NON d   1     -39.692  25.597  -2.175  0.00  0.00     0.057 C 
ATOM      7  C19 NON d   1     -40.689  26.126  -1.174  0.00  0.00     0.154 C 
ATOM      8  O7  NON d   1     -41.468  27.011  -1.513  0.00  0.00    -0.293 OA
ATOM      9  C20 NON d   1     -40.577  25.591   0.300  0.00  0.00     0.071 C 
ATOM     10  C21 NON d   1     -41.600  26.260   1.234  0.00  0.00     0.047 C 
ATOM     11  C22 NON d   1     -41.214  26.004   2.683  0.00  0.00     0.147 C 
ATOM     12  C23 NON d   1     -40.944  24.509   2.892  0.00  0.00     0.147 C 
ATOM     13  C24 NON d   1     -41.123  23.729   1.574  0.00  0.00     0.044 C 
ATOM     14  C25 NON d   1     -39.950  24.197   0.480  0.00  0.00    -0.023 C 
ATOM     15  C26 NON d   1     -39.322  22.802   0.659  0.00  0.00     0.016 C 
ATOM     16  C27 NON d   1     -40.325  23.567  -1.151  0.00  0.00     0.027 C 
ATOM     17  C28 NON d   1     -40.455  22.101  -1.733  0.00  0.00     0.011 C 
ATOM     18  C29 NON d   1     -39.238  21.244  -2.214  0.00  0.00     0.014 C 
ATOM     19  C30 NON d   1     -37.992  21.934  -2.842  0.00  0.00    -0.002 C 
ATOM     20  C31 NON d   1     -36.746  21.449  -2.047  0.00  0.00     0.019 C 
ENDROOT
BRANCH   1  21
ATOM     21  C11 NON d   1     -36.896  20.194  -4.814  0.00  0.00     0.085 C 
ATOM     22  C12 NON d   1     -37.823  19.300  -3.850  0.00  0.00     0.049 C 
BRANCH  21  23
ATOM     23  C3  NON d   1     -37.345  20.208  -6.430  0.00  0.00     0.166 C 
BRANCH  23  24
ATOM     24  O2  NON d   1     -38.199  18.980  -6.603  0.00  0.00    -0.313 OA
BRANCH  24  25
ATOM     25  C2  NON d   1     -38.187  18.513  -7.914  0.00  0.00     0.255 C 
ATOM     26  C1  NON d   1     -36.914  18.823  -8.661  0.00  0.00     0.126 C 
ATOM     27  O1  NON d   1     -39.155  17.989  -8.432  0.00  0.00    -0.266 OA
ENDBRANCH  24  25
ENDBRANCH  23  24
BRANCH  23  28
ATOM     28  C4  NON d   1     -38.109  21.496  -6.889  0.00  0.00     0.043 C 
BRANCH  28  29
ATOM     29  C5  NON d   1     -39.683  21.568  -6.796  0.00  0.00     0.031 C 
ATOM     30  C6  NON d   1     -40.693  20.615  -6.075  0.00  0.00     0.133 C 
ATOM     31  C7  NON d   1     -40.562  19.774  -4.828  0.00  0.00     0.040 C 
ATOM     32  O3  NON d   1     -41.142  19.683  -7.057  0.00  0.00    -0.316 OA
ATOM     33  C8  NON d   1     -41.178  20.305  -8.250  0.00  0.00     0.263 C 
ATOM     34  O4  NON d   1     -41.798  19.880  -9.210  0.00  0.00    -0.265 OA
ATOM     35  C9  NON d   1     -40.336  21.560  -8.215  0.00  0.00     0.088 C 
ATOM     36  C10 NON d   1     -39.437  21.506  -9.443  0.00  0.00     0.021 C 
ENDBRANCH  28  29
ENDBRANCH  23  28
ENDBRANCH  21  23
BRANCH  21  37
ATOM     37  O5  NON d   1     -36.193  18.855  -5.107  0.00  0.00    -0.387 OA
ATOM     38  H19 NON d   1     -36.780  18.157  -5.445  0.00  0.00     0.210 HD
ENDBRANCH  21  37
ENDBRANCH   1  21
BRANCH   4  39
ATOM     39  O6  NON d   1     -37.052  24.068  -2.004  0.00  0.00    -0.384 OA
ATOM     40  H25 NON d   1     -37.283  24.933  -1.629  0.00  0.00     0.211 HD
ENDBRANCH   4  39
BRANCH  12  41
ATOM     41  O9  NON d   1     -41.815  23.966   3.882  0.00  0.00    -0.393 OA
ATOM     42  H33 NON d   1     -41.294  23.251   4.309  0.00  0.00     0.210 HD
ENDBRANCH  12  41
BRANCH  11  43
ATOM     43  O8  NON d   1     -42.242  26.446   3.572  0.00  0.00    -0.393 OA
ATOM     44  H31 NON d   1     -42.571  25.664   4.050  0.00  0.00     0.210 HD
ENDBRANCH  11  43
TORSDOF 10
ENDMDL
MODEL 3
REMARK VINA RESULT:    -7.034      2.651      5.819
REMARK INTER + INTRA:         -14.538
REMARK INTER:                 -10.017
REMARK INTRA:                  -4.521
REMARK CONF_INDEPENDENT:        2.983
REMARK UNBOUND:                -4.521
REMARK  10 active torsions:
REMARK  status: ('A' for Active; 'I' for Inactive)
REMARK    1  A    between atoms: C2_2  and  O2_4 
REMARK    2  A    between atoms: C3_5  and  O2_4 
REMARK    3  A    between atoms: C3_5  and  C4_6 
REMARK    4  A    between atoms: C11_15  and  C3_5 
REMARK    5  A    between atoms: C5_7  and  C4_6 
REMARK    6  A    between atoms: C11_15  and  O5_17 
REMARK    7  A    between atoms: C11_15  and  C13_18 
REMARK    8  A    between atoms: C16_21  and  O6_22 
REMARK    9  A    between atoms: C22_29  and  O8_30 
REMARK   10  A    between atoms: C23_31  and  O9_32 
ROOT
ATOM      1  C13 NON d   1     -39.580  21.647  -7.123  0.00  0.00     0.034 C 
ATOM      2  C14 NON d   1     -38.339  22.616  -7.096  0.00  0.00     0.012 C 
ATOM      3  C15 NON d   1     -38.525  23.640  -5.977  0.00  0.00     0.044 C 
ATOM      4  C16 NON d   1     -38.870  22.839  -4.734  0.00  0.00     0.089 C 
ATOM      5  C17 NON d   1     -39.447  23.767  -3.625  0.00  0.00    -0.037 C 
ATOM      6  C18 NON d   1     -38.964  24.969  -3.251  0.00  0.00     0.057 C 
ATOM      7  C19 NON d   1     -39.462  25.507  -1.933  0.00  0.00     0.154 C 
ATOM      8  O7  NON d   1     -39.621  26.717  -1.800  0.00  0.00    -0.293 OA
ATOM      9  C20 NON d   1     -39.624  24.481  -0.754  0.00  0.00     0.071 C 
ATOM     10  C21 NON d   1     -40.067  25.165   0.550  0.00  0.00     0.047 C 
ATOM     11  C22 NON d   1     -39.846  24.223   1.723  0.00  0.00     0.147 C 
ATOM     12  C23 NON d   1     -40.454  22.851   1.410  0.00  0.00     0.147 C 
ATOM     13  C24 NON d   1     -41.080  22.837   0.000  0.00  0.00     0.044 C 
ATOM     14  C25 NON d   1     -39.880  23.015  -1.150  0.00  0.00    -0.023 C 
ATOM     15  C26 NON d   1     -40.137  21.549  -1.546  0.00  0.00     0.016 C 
ATOM     16  C27 NON d   1     -40.593  23.335  -2.758  0.00  0.00     0.027 C 
ATOM     17  C28 NON d   1     -41.541  22.488  -3.701  0.00  0.00     0.011 C 
ATOM     18  C29 NON d   1     -41.029  21.387  -4.688  0.00  0.00     0.014 C 
ATOM     19  C30 NON d   1     -39.630  21.523  -5.357  0.00  0.00    -0.002 C 
ATOM     20  C31 NON d   1     -38.846  20.213  -5.059  0.00  0.00     0.019 C 
ENDROOT
BRANCH   1  21
ATOM     21  C11 NON d   1     -39.758  20.365  -7.957  0.00  0.00     0.085 C 
ATOM     22  C12 NON d   1     -41.292  20.634  -8.361  0.00  0.00     0.049 C 
BRANCH  21  23
ATOM     23  C3  NON d   1     -38.622  20.841  -9.096  0.00  0.00     0.166 C 
BRANCH  23  24
ATOM     24  O2  NON d   1     -37.876  19.580  -9.445  0.00  0.00    -0.313 OA
BRANCH  24  25
ATOM     25  C2  NON d   1     -37.167  19.072  -8.360  0.00  0.00     0.255 C 
ATOM     26  C1  NON d   1     -36.212  20.060  -7.738  0.00  0.00     0.126 C 
ATOM     27  O1  NON d   1     -37.245  17.909  -8.013  0.00  0.00    -0.266 OA
ENDBRANCH  24  25
ENDBRANCH  23  24
BRANCH  23  28
ATOM     28  C4  NON d   1     -39.219  21.517 -10.377  0.00  0.00     0.043 C 
BRANCH  28  29
ATOM     29  C5  NON d   1     -38.951  23.043 -10.673  0.00  0.00     0.031 C 
ATOM     30  C6  NON d   1     -39.709  24.315 -10.165  0.00  0.00     0.133 C 
ATOM     31  C7  NON d   1     -40.443  24.595  -8.876  0.00  0.00     0.040 C 
ATOM     32  O3  NON d   1     -40.664  24.647 -11.171  0.00  0.00    -0.316 OA
ATOM     33  C8  NON d   1     -40.152  24.318 -12.370  0.00  0.00     0.263 C 
ATOM     34  O4  NON d   1     -40.584  24.749 -13.426  0.00  0.00    -0.265 OA
ATOM     35  C9  NON d   1     -39.009  23.342 -12.206  0.00  0.00     0.088 C 
ATOM     36  C10 NON d   1     -39.280  22.198 -13.173  0.00  0.00     0.021 C 
ENDBRANCH  28  29
ENDBRANCH  23  28
ENDBRANCH  21  23
BRANCH  21  37
ATOM     37  O5  NON d   1     -39.935  19.082  -8.791  0.00  0.00    -0.387 OA
ATOM     38  H19 NON d   1     -39.223  18.428  -8.680  0.00  0.00     0.210 HD
ENDBRANCH  21  37
ENDBRANCH   1  21
BRANCH   4  39
ATOM     39  O6  NON d   1     -37.630  22.377  -4.168  0.00  0.00    -0.384 OA
ATOM     40  H25 NON d   1     -37.763  22.196  -3.224  0.00  0.00     0.211 HD
ENDBRANCH   4  39
BRANCH  12  41
ATOM     41  O9  NON d   1     -41.449  22.501   2.369  0.00  0.00    -0.393 OA
ATOM     42  H33 NON d   1     -41.084  22.804   3.229  0.00  0.00     0.210 HD
ENDBRANCH  12  41
BRANCH  11  43
ATOM     43  O8  NON d   1     -40.422  24.754   2.920  0.00  0.00    -0.393 OA
ATOM     44  H31 NON d   1     -40.467  24.028   3.569  0.00  0.00     0.210 HD
ENDBRANCH  11  43
TORSDOF 10
ENDMDL
MODEL 4
REMARK VINA RESULT:    -6.946      1.850      2.795
REMARK INTER + INTRA:         -13.967
REMARK INTER:                  -9.929
REMARK INTRA:                  -4.039
REMARK CONF_INDEPENDENT:        2.983
REMARK UNBOUND:                -4.039
REMARK  10 active torsions:
REMARK  status: ('A' for Active; 'I' for Inactive)
REMARK    1  A    between atoms: C2_2  and  O2_4 
REMARK    2  A    between atoms: C3_5  and  O2_4 
REMARK    3  A    between atoms: C3_5  and  C4_6 
REMARK    4  A    between atoms: C11_15  and  C3_5 
REMARK    5  A    between atoms: C5_7  and  C4_6 
REMARK    6  A    between atoms: C11_15  and  O5_17 
REMARK    7  A    between atoms: C11_15  and  C13_18 
REMARK    8  A    between atoms: C16_21  and  O6_22 
REMARK    9  A    between atoms: C22_29  and  O8_30 
REMARK   10  A    between atoms: C23_31  and  O9_32 
ROOT
ATOM      1  C13 NON d   1     -39.369  23.893  -4.889  0.00  0.00     0.034 C 
ATOM      2  C14 NON d   1     -40.911  23.705  -4.630  0.00  0.00     0.012 C 
ATOM      3  C15 NON d   1     -41.138  23.393  -3.152  0.00  0.00     0.044 C 
ATOM      4  C16 NON d   1     -40.380  24.459  -2.381  0.00  0.00     0.089 C 
ATOM      5  C17 NON d   1     -40.218  24.047  -0.888  0.00  0.00    -0.037 C 
ATOM      6  C18 NON d   1     -41.171  23.524  -0.090  0.00  0.00     0.057 C 
ATOM      7  C19 NON d   1     -40.885  23.544   1.391  0.00  0.00     0.154 C 
ATOM      8  O7  NON d   1     -41.289  22.622   2.093  0.00  0.00    -0.293 OA
ATOM      9  C20 NON d   1     -40.190  24.829   1.970  0.00  0.00     0.071 C 
ATOM     10  C21 NON d   1     -40.022  24.755   3.497  0.00  0.00     0.047 C 
ATOM     11  C22 NON d   1     -39.705  26.137   4.045  0.00  0.00     0.147 C 
ATOM     12  C23 NON d   1     -38.559  26.765   3.243  0.00  0.00     0.147 C 
ATOM     13  C24 NON d   1     -38.096  25.818   2.117  0.00  0.00     0.044 C 
ATOM     14  C25 NON d   1     -39.319  25.639   0.993  0.00  0.00    -0.023 C 
ATOM     15  C26 NON d   1     -38.448  26.449   0.015  0.00  0.00     0.016 C 
ATOM     16  C27 NON d   1     -38.944  24.304  -0.137  0.00  0.00     0.027 C 
ATOM     17  C28 NON d   1     -37.782  24.080  -1.186  0.00  0.00     0.011 C 
ATOM     18  C29 NON d   1     -37.799  24.655  -2.641  0.00  0.00     0.014 C 
ATOM     19  C30 NON d   1     -39.147  24.828  -3.401  0.00  0.00    -0.002 C 
ATOM     20  C31 NON d   1     -39.221  26.305  -3.880  0.00  0.00     0.019 C 
ENDROOT
BRANCH   1  21
ATOM     21  C11 NON d   1     -38.682  24.384  -6.176  0.00  0.00     0.085 C 
ATOM     22  C12 NON d   1     -37.199  23.908  -5.771  0.00  0.00     0.049 C 
BRANCH  21  23
ATOM     23  C3  NON d   1     -39.537  23.317  -7.147  0.00  0.00     0.166 C 
BRANCH  23  24
ATOM     24  O2  NON d   1     -39.009  23.554  -8.538  0.00  0.00    -0.313 OA
BRANCH  24  25
ATOM     25  C2  NON d   1     -39.961  24.139  -9.368  0.00  0.00     0.255 C 
ATOM     26  C1  NON d   1     -39.940  23.619 -10.783  0.00  0.00     0.126 C 
ATOM     27  O1  NON d   1     -40.675  25.053  -9.003  0.00  0.00    -0.266 OA
ENDBRANCH  24  25
ENDBRANCH  23  24
BRANCH  23  28
ATOM     28  C4  NON d   1     -39.406  21.810  -6.742  0.00  0.00     0.043 C 
BRANCH  28  29
ATOM     29  C5  NON d   1     -40.474  20.755  -7.228  0.00  0.00     0.031 C 
ATOM     30  C6  NON d   1     -41.092  19.529  -6.476  0.00  0.00     0.133 C 
ATOM     31  C7  NON d   1     -41.383  19.293  -5.013  0.00  0.00     0.040 C 
ATOM     32  O3  NON d   1     -40.315  18.393  -6.848  0.00  0.00    -0.316 OA
ATOM     33  C8  NON d   1     -39.895  18.558  -8.114  0.00  0.00     0.263 C 
ATOM     34  O4  NON d   1     -39.479  17.647  -8.809  0.00  0.00    -0.265 OA
ATOM     35  C9  NON d   1     -39.994  20.013  -8.516  0.00  0.00     0.088 C 
ATOM     36  C10 NON d   1     -38.648  20.382  -9.125  0.00  0.00     0.021 C 
ENDBRANCH  28  29
ENDBRANCH  23  28
ENDBRANCH  21  23
BRANCH  21  37
ATOM     37  O5  NON d   1     -37.994  24.875  -7.464  0.00  0.00    -0.387 OA
ATOM     38  H19 NON d   1     -38.607  25.130  -8.176  0.00  0.00     0.210 HD
ENDBRANCH  21  37
ENDBRANCH   1  21
BRANCH   4  39
ATOM     39  O6  NON d   1     -41.229  25.619  -2.314  0.00  0.00    -0.384 OA
ATOM     40  H25 NON d   1     -41.812  25.539  -1.542  0.00  0.00     0.211 HD
ENDBRANCH   4  39
BRANCH  12  41
ATOM     41  O9  NON d   1     -37.452  27.070   4.086  0.00  0.00    -0.393 OA
ATOM     42  H33 NON d   1     -37.584  26.514   4.885  0.00  0.00     0.210 HD
ENDBRANCH  12  41
BRANCH  11  43
ATOM     43  O8  NON d   1     -39.355  26.070   5.430  0.00  0.00    -0.393 OA
ATOM     44  H31 NON d   1     -38.441  25.736   5.484  0.00  0.00     0.210 HD
ENDBRANCH  11  43
TORSDOF 10
ENDMDL
MODEL 5
REMARK VINA RESULT:    -6.769      2.104      4.486
REMARK INTER + INTRA:         -14.036
REMARK INTER:                  -9.752
REMARK INTRA:                  -4.284
REMARK CONF_INDEPENDENT:        2.983
REMARK UNBOUND:                -4.284
REMARK  10 active torsions:
REMARK  status: ('A' for Active; 'I' for Inactive)
REMARK    1  A    between atoms: C2_2  and  O2_4 
REMARK    2  A    between atoms: C3_5  and  O2_4 
REMARK    3  A    between atoms: C3_5  and  C4_6 
REMARK    4  A    between atoms: C11_15  and  C3_5 
REMARK    5  A    between atoms: C5_7  and  C4_6 
REMARK    6  A    between atoms: C11_15  and  O5_17 
REMARK    7  A    between atoms: C11_15  and  C13_18 
REMARK    8  A    between atoms: C16_21  and  O6_22 
REMARK    9  A    between atoms: C22_29  and  O8_30 
REMARK   10  A    between atoms: C23_31  and  O9_32 
ROOT
ATOM      1  C13 NON d   1     -38.920  20.709  -4.100  0.00  0.00     0.034 C 
ATOM      2  C14 NON d   1     -37.457  20.503  -3.553  0.00  0.00     0.012 C 
ATOM      3  C15 NON d   1     -37.132  21.615  -2.557  0.00  0.00     0.044 C 
ATOM      4  C16 NON d   1     -38.292  21.648  -1.579  0.00  0.00     0.089 C 
ATOM      5  C17 NON d   1     -38.271  22.965  -0.747  0.00  0.00    -0.037 C 
ATOM      6  C18 NON d   1     -37.194  23.533  -0.169  0.00  0.00     0.057 C 
ATOM      7  C19 NON d   1     -37.475  24.590   0.871  0.00  0.00     0.154 C 
ATOM      8  O7  NON d   1     -36.712  25.545   0.978  0.00  0.00    -0.293 OA
ATOM      9  C20 NON d   1     -38.673  24.328   1.853  0.00  0.00     0.071 C 
ATOM     10  C21 NON d   1     -38.808  25.441   2.907  0.00  0.00     0.047 C 
ATOM     11  C22 NON d   1     -39.711  24.969   4.036  0.00  0.00     0.147 C 
ATOM     12  C23 NON d   1     -41.007  24.390   3.458  0.00  0.00     0.147 C 
ATOM     13  C24 NON d   1     -40.991  24.440   1.917  0.00  0.00     0.044 C 
ATOM     14  C25 NON d   1     -39.803  23.420   1.333  0.00  0.00    -0.023 C 
ATOM     15  C26 NON d   1     -40.932  22.512   0.812  0.00  0.00     0.016 C 
ATOM     16  C27 NON d   1     -39.535  23.702  -0.412  0.00  0.00     0.027 C 
ATOM     17  C28 NON d   1     -40.466  23.542  -1.681  0.00  0.00     0.011 C 
ATOM     18  C29 NON d   1     -40.690  22.188  -2.432  0.00  0.00     0.014 C 
ATOM     19  C30 NON d   1     -39.550  21.130  -2.498  0.00  0.00    -0.002 C 
ATOM     20  C31 NON d   1     -40.133  19.788  -1.969  0.00  0.00     0.019 C 
ENDROOT
BRANCH   1  21
ATOM     21  C11 NON d   1     -39.740  19.752  -4.985  0.00  0.00     0.085 C 
ATOM     22  C12 NON d   1     -41.062  20.667  -5.047  0.00  0.00     0.049 C 
BRANCH  21  23
ATOM     23  C3  NON d   1     -38.694  19.915  -6.286  0.00  0.00     0.166 C 
BRANCH  23  24
ATOM     24  O2  NON d   1     -38.414  18.505  -6.734  0.00  0.00    -0.313 OA
BRANCH  24  25
ATOM     25  C2  NON d   1     -38.492  18.369  -8.117  0.00  0.00     0.255 C 
ATOM     26  C1  NON d   1     -37.232  18.771  -8.843  0.00  0.00     0.126 C 
ATOM     27  O1  NON d   1     -39.518  18.049  -8.687  0.00  0.00    -0.266 OA
ENDBRANCH  24  25
ENDBRANCH  23  24
BRANCH  23  28
ATOM     28  C4  NON d   1     -39.244  20.785  -7.467  0.00  0.00     0.043 C 
BRANCH  28  29
ATOM     29  C5  NON d   1     -38.799  22.290  -7.627  0.00  0.00     0.031 C 
ATOM     30  C6  NON d   1     -39.342  23.580  -6.927  0.00  0.00     0.133 C 
ATOM     31  C7  NON d   1     -39.939  23.801  -5.558  0.00  0.00     0.040 C 
ATOM     32  O3  NON d   1     -40.315  24.139  -7.807  0.00  0.00    -0.316 OA
ATOM     33  C8  NON d   1     -39.939  23.888  -9.074  0.00  0.00     0.263 C 
ATOM     34  O4  NON d   1     -40.385  24.485 -10.039  0.00  0.00    -0.265 OA
ATOM     35  C9  NON d   1     -38.926  22.765  -9.110  0.00  0.00     0.088 C 
ATOM     36  C10 NON d   1     -39.415  21.781 -10.163  0.00  0.00     0.021 C 
ENDBRANCH  28  29
ENDBRANCH  23  28
ENDBRANCH  21  23
BRANCH  21  37
ATOM     37  O5  NON d   1     -40.560  18.795  -5.871  0.00  0.00    -0.387 OA
ATOM     38  H19 NON d   1     -40.056  18.386  -6.596  0.00  0.00     0.210 HD
ENDBRANCH  21  37
ENDBRANCH   1  21
BRANCH   4  39
ATOM     39  O6  NON d   1     -38.046  20.630  -0.593  0.00  0.00    -0.384 OA
ATOM     40  H25 NON d   1     -38.897  20.300  -0.261  0.00  0.00     0.211 HD
ENDBRANCH   4  39
BRANCH  12  41
ATOM     41  O9  NON d   1     -42.145  25.101   3.940  0.00  0.00    -0.393 OA
ATOM     42  H33 NON d   1     -41.801  25.988   4.184  0.00  0.00     0.210 HD
ENDBRANCH  12  41
BRANCH  11  43
ATOM     43  O8  NON d   1     -40.010  26.042   4.933  0.00  0.00    -0.393 OA
ATOM     44  H31 NON d   1     -40.769  25.765   5.477  0.00  0.00     0.210 HD
ENDBRANCH  11  43
TORSDOF 10
ENDMDL
MODEL 6
REMARK VINA RESULT:    -6.458      1.922      4.161
REMARK INTER + INTRA:         -14.101
REMARK INTER:                  -9.441
REMARK INTRA:                  -4.660
REMARK CONF_INDEPENDENT:        2.983
REMARK UNBOUND:                -4.660
REMARK  10 active torsions:
REMARK  status: ('A' for Active; 'I' for Inactive)
REMARK    1  A    between atoms: C2_2  and  O2_4 
REMARK    2  A    between atoms: C3_5  and  O2_4 
REMARK    3  A    between atoms: C3_5  and  C4_6 
REMARK    4  A    between atoms: C11_15  and  C3_5 
REMARK    5  A    between atoms: C5_7  and  C4_6 
REMARK    6  A    between atoms: C11_15  and  O5_17 
REMARK    7  A    between atoms: C11_15  and  C13_18 
REMARK    8  A    between atoms: C16_21  and  O6_22 
REMARK    9  A    between atoms: C22_29  and  O8_30 
REMARK   10  A    between atoms: C23_31  and  O9_32 
ROOT
ATOM      1  C13 NON d   1     -38.848  22.187  -3.903  0.00  0.00     0.034 C 
ATOM      2  C14 NON d   1     -37.461  21.734  -3.311  0.00  0.00     0.012 C 
ATOM      3  C15 NON d   1     -37.136  22.583  -2.084  0.00  0.00     0.044 C 
ATOM      4  C16 NON d   1     -38.373  22.530  -1.203  0.00  0.00     0.089 C 
ATOM      5  C17 NON d   1     -38.319  23.641  -0.115  0.00  0.00    -0.037 C 
ATOM      6  C18 NON d   1     -37.255  23.973   0.645  0.00  0.00     0.057 C 
ATOM      7  C19 NON d   1     -37.541  24.818   1.861  0.00  0.00     0.154 C 
ATOM      8  O7  NON d   1     -36.716  25.653   2.220  0.00  0.00    -0.293 OA
ATOM      9  C20 NON d   1     -38.839  24.481   2.680  0.00  0.00     0.071 C 
ATOM     10  C21 NON d   1     -38.977  25.363   3.932  0.00  0.00     0.047 C 
ATOM     11  C22 NON d   1     -40.012  24.763   4.871  0.00  0.00     0.147 C 
ATOM     12  C23 NON d   1     -41.294  24.442   4.095  0.00  0.00     0.147 C 
ATOM     13  C24 NON d   1     -41.137  24.802   2.603  0.00  0.00     0.044 C 
ATOM     14  C25 NON d   1     -39.988  23.812   1.903  0.00  0.00    -0.023 C 
ATOM     15  C26 NON d   1     -41.136  23.142   1.125  0.00  0.00     0.016 C 
ATOM     16  C27 NON d   1     -39.544  24.415   0.279  0.00  0.00     0.027 C 
ATOM     17  C28 NON d   1     -40.369  24.607  -1.058  0.00  0.00     0.011 C 
ATOM     18  C29 NON d   1     -40.634  23.462  -2.090  0.00  0.00     0.014 C 
ATOM     19  C30 NON d   1     -39.581  22.333  -2.297  0.00  0.00    -0.002 C 
ATOM     20  C31 NON d   1     -40.315  20.976  -2.104  0.00  0.00     0.019 C 
ENDROOT
BRANCH   1  21
ATOM     21  C11 NON d   1     -39.661  21.515  -5.025  0.00  0.00     0.085 C 
ATOM     22  C12 NON d   1     -39.854  22.841  -5.915  0.00  0.00     0.049 C 
BRANCH  21  23
ATOM     23  C3  NON d   1     -38.384  20.526  -5.479  0.00  0.00     0.166 C 
BRANCH  23  24
ATOM     24  O2  NON d   1     -38.998  19.163  -5.659  0.00  0.00    -0.313 OA
BRANCH  24  25
ATOM     25  C2  NON d   1     -39.695  18.749  -4.527  0.00  0.00     0.255 C 
ATOM     26  C1  NON d   1     -38.809  18.272  -3.404  0.00  0.00     0.126 C 
ATOM     27  O1  NON d   1     -40.910  18.688  -4.491  0.00  0.00    -0.266 OA
ENDBRANCH  24  25
ENDBRANCH  23  24
BRANCH  23  28
ATOM     28  C4  NON d   1     -37.630  20.980  -6.775  0.00  0.00     0.043 C 
BRANCH  28  29
ATOM     29  C5  NON d   1     -38.153  20.546  -8.199  0.00  0.00     0.031 C 
ATOM     30  C6  NON d   1     -39.584  20.659  -8.822  0.00  0.00     0.133 C 
ATOM     31  C7  NON d   1     -40.690  21.666  -8.616  0.00  0.00     0.040 C 
ATOM     32  O3  NON d   1     -40.227  19.407  -8.590  0.00  0.00    -0.316 OA
ATOM     33  C8  NON d   1     -39.298  18.436  -8.630  0.00  0.00     0.263 C 
ATOM     34  O4  NON d   1     -39.565  17.255  -8.771  0.00  0.00    -0.265 OA
ATOM     35  C9  NON d   1     -37.915  19.022  -8.451  0.00  0.00     0.088 C 
ATOM     36  C10 NON d   1     -37.234  18.192  -7.372  0.00  0.00     0.021 C 
ENDBRANCH  28  29
ENDBRANCH  23  28
ENDBRANCH  21  23
BRANCH  21  37
ATOM     37  O5  NON d   1     -40.473  20.842  -6.147  0.00  0.00    -0.387 OA
ATOM     38  H19 NON d   1     -40.340  19.881  -6.221  0.00  0.00     0.210 HD
ENDBRANCH  21  37
ENDBRANCH   1  21
BRANCH   4  39
ATOM     39  O6  NON d   1     -38.298  21.313  -0.439  0.00  0.00    -0.384 OA
ATOM     40  H25 NON d   1     -37.653  21.430   0.277  0.00  0.00     0.211 HD
ENDBRANCH   4  39
BRANCH  12  41
ATOM     41  O9  NON d   1     -42.408  25.147   4.634  0.00  0.00    -0.393 OA
ATOM     42  H33 NON d   1     -42.371  24.974   5.600  0.00  0.00     0.210 HD
ENDBRANCH  12  41
BRANCH  11  43
ATOM     43  O8  NON d   1     -40.301  25.655   5.950  0.00  0.00    -0.393 OA
ATOM     44  H31 NON d   1     -41.015  26.248   5.654  0.00  0.00     0.210 HD
ENDBRANCH  11  43
TORSDOF 10
ENDMDL
MODEL 7
REMARK VINA RESULT:    -6.105      2.899      9.651
REMARK INTER + INTRA:         -13.466
REMARK INTER:                  -9.088
REMARK INTRA:                  -4.378
REMARK CONF_INDEPENDENT:        2.983
REMARK UNBOUND:                -4.378
REMARK  10 active torsions:
REMARK  status: ('A' for Active; 'I' for Inactive)
REMARK    1  A    between atoms: C2_2  and  O2_4 
REMARK    2  A    between atoms: C3_5  and  O2_4 
REMARK    3  A    between atoms: C3_5  and  C4_6 
REMARK    4  A    between atoms: C11_15  and  C3_5 
REMARK    5  A    between atoms: C5_7  and  C4_6 
REMARK    6  A    between atoms: C11_15  and  O5_17 
REMARK    7  A    between atoms: C11_15  and  C13_18 
REMARK    8  A    between atoms: C16_21  and  O6_22 
REMARK    9  A    between atoms: C22_29  and  O8_30 
REMARK   10  A    between atoms: C23_31  and  O9_32 
ROOT
ATOM      1  C13 NON d   1     -39.202  20.800  -4.206  0.00  0.00     0.034 C 
ATOM      2  C14 NON d   1     -40.682  21.221  -4.539  0.00  0.00     0.012 C 
ATOM      3  C15 NON d   1     -40.690  22.074  -5.806  0.00  0.00     0.044 C 
ATOM      4  C16 NON d   1     -39.890  21.296  -6.836  0.00  0.00     0.089 C 
ATOM      5  C17 NON d   1     -39.505  22.209  -8.036  0.00  0.00    -0.037 C 
ATOM      6  C18 NON d   1     -40.312  23.079  -8.676  0.00  0.00     0.057 C 
ATOM      7  C19 NON d   1     -39.829  23.577 -10.016  0.00  0.00     0.154 C 
ATOM      8  O7  NON d   1     -40.085  24.727 -10.358  0.00  0.00    -0.293 OA
ATOM      9  C20 NON d   1     -39.128  22.532 -10.958  0.00  0.00     0.071 C 
ATOM     10  C21 NON d   1     -38.750  23.144 -12.317  0.00  0.00     0.047 C 
ATOM     11  C22 NON d   1     -38.433  22.035 -13.308  0.00  0.00     0.147 C 
ATOM     12  C23 NON d   1     -37.441  21.048 -12.683  0.00  0.00     0.147 C 
ATOM     13  C24 NON d   1     -37.087  21.464 -11.241  0.00  0.00     0.044 C 
ATOM     14  C25 NON d   1     -38.441  21.338 -10.270  0.00  0.00    -0.023 C 
ATOM     15  C26 NON d   1     -37.754  20.144  -9.582  0.00  0.00     0.016 C 
ATOM     16  C27 NON d   1     -38.155  22.121  -8.688  0.00  0.00     0.027 C 
ATOM     17  C28 NON d   1     -37.137  21.829  -7.514  0.00  0.00     0.011 C 
ATOM     18  C29 NON d   1     -37.382  20.765  -6.393  0.00  0.00     0.014 C 
ATOM     19  C30 NON d   1     -38.828  20.459  -5.904  0.00  0.00    -0.002 C 
ATOM     20  C31 NON d   1     -39.042  18.924  -6.026  0.00  0.00     0.019 C 
ENDROOT
BRANCH   1  21
ATOM     21  C11 NON d   1     -38.723  19.805  -3.132  0.00  0.00     0.085 C 
ATOM     22  C12 NON d   1     -37.296  20.504  -2.877  0.00  0.00     0.049 C 
BRANCH  21  23
ATOM     23  C3  NON d   1     -39.937  20.240  -2.060  0.00  0.00     0.166 C 
BRANCH  23  24
ATOM     24  O2  NON d   1     -40.606  18.942  -1.690  0.00  0.00    -0.313 OA
BRANCH  24  25
ATOM     25  C2  NON d   1     -40.839  18.137  -2.802  0.00  0.00     0.255 C 
ATOM     26  C1  NON d   1     -42.174  18.379  -3.462  0.00  0.00     0.126 C 
ATOM     27  O1  NON d   1     -40.075  17.255  -3.144  0.00  0.00    -0.266 OA
ENDBRANCH  24  25
ENDBRANCH  23  24
BRANCH  23  28
ATOM     28  C4  NON d   1     -39.444  21.004  -0.784  0.00  0.00     0.043 C 
BRANCH  28  29
ATOM     29  C5  NON d   1     -40.314  22.164  -0.162  0.00  0.00     0.031 C 
ATOM     30  C6  NON d   1     -40.783  23.519  -0.791  0.00  0.00     0.133 C 
ATOM     31  C7  NON d   1     -41.117  23.901  -2.213  0.00  0.00     0.040 C 
ATOM     32  O3  NON d   1     -39.826  24.500  -0.399  0.00  0.00    -0.316 OA
ATOM     33  C8  NON d   1     -39.364  24.182   0.824  0.00  0.00     0.263 C 
ATOM     34  O4  NON d   1     -38.779  24.970   1.547  0.00  0.00    -0.265 OA
ATOM     35  C9  NON d   1     -39.657  22.732   1.137  0.00  0.00     0.088 C 
ATOM     36  C10 NON d   1     -38.350  22.128   1.630  0.00  0.00     0.021 C 
ENDBRANCH  28  29
ENDBRANCH  23  28
ENDBRANCH  21  23
BRANCH  21  37
ATOM     37  O5  NON d   1     -38.243  18.811  -2.059  0.00  0.00    -0.387 OA
ATOM     38  H19 NON d   1     -38.959  18.337  -1.599  0.00  0.00     0.210 HD
ENDBRANCH  21  37
ENDBRANCH   1  21
BRANCH   4  39
ATOM     39  O6  NON d   1     -40.780  20.331  -7.425  0.00  0.00    -0.384 OA
ATOM     40  H25 NON d   1     -41.429  20.797  -7.976  0.00  0.00     0.211 HD
ENDBRANCH   4  39
BRANCH  12  41
ATOM     41  O9  NON d   1     -36.246  20.965 -13.456  0.00  0.00    -0.393 OA
ATOM     42  H33 NON d   1     -36.382  21.596 -14.196  0.00  0.00     0.210 HD
ENDBRANCH  12  41
BRANCH  11  43
ATOM     43  O8  NON d   1     -37.895  22.571 -14.520  0.00  0.00    -0.393 OA
ATOM     44  H31 NON d   1     -37.503  21.831 -15.018  0.00  0.00     0.210 HD
ENDBRANCH  11  43
TORSDOF 10
ENDMDL
MODEL 8
REMARK VINA RESULT:    -6.096      3.115      6.263
REMARK INTER + INTRA:         -13.403
REMARK INTER:                  -9.079
REMARK INTRA:                  -4.324
REMARK CONF_INDEPENDENT:        2.983
REMARK UNBOUND:                -4.324
REMARK  10 active torsions:
REMARK  status: ('A' for Active; 'I' for Inactive)
REMARK    1  A    between atoms: C2_2  and  O2_4 
REMARK    2  A    between atoms: C3_5  and  O2_4 
REMARK    3  A    between atoms: C3_5  and  C4_6 
REMARK    4  A    between atoms: C11_15  and  C3_5 
REMARK    5  A    between atoms: C5_7  and  C4_6 
REMARK    6  A    between atoms: C11_15  and  O5_17 
REMARK    7  A    between atoms: C11_15  and  C13_18 
REMARK    8  A    between atoms: C16_21  and  O6_22 
REMARK    9  A    between atoms: C22_29  and  O8_30 
REMARK   10  A    between atoms: C23_31  and  O9_32 
ROOT
ATOM      1  C13 NON d   1     -39.540  23.036  -7.196  0.00  0.00     0.034 C 
ATOM      2  C14 NON d   1     -38.779  24.411  -7.094  0.00  0.00     0.012 C 
ATOM      3  C15 NON d   1     -39.334  25.207  -5.915  0.00  0.00     0.044 C 
ATOM      4  C16 NON d   1     -39.317  24.258  -4.729  0.00  0.00     0.089 C 
ATOM      5  C17 NON d   1     -40.195  24.814  -3.569  0.00  0.00    -0.037 C 
ATOM      6  C18 NON d   1     -40.216  26.083  -3.115  0.00  0.00     0.057 C 
ATOM      7  C19 NON d   1     -40.865  26.299  -1.770  0.00  0.00     0.154 C 
ATOM      8  O7  NON d   1     -41.484  27.339  -1.561  0.00  0.00    -0.293 OA
ATOM      9  C20 NON d   1     -40.593  25.220  -0.661  0.00  0.00     0.071 C 
ATOM     10  C21 NON d   1     -41.248  25.592   0.680  0.00  0.00     0.047 C 
ATOM     11  C22 NON d   1     -40.657  24.741   1.793  0.00  0.00     0.147 C 
ATOM     12  C23 NON d   1     -40.683  23.263   1.387  0.00  0.00     0.147 C 
ATOM     13  C24 NON d   1     -41.275  23.093  -0.027  0.00  0.00     0.044 C 
ATOM     14  C25 NON d   1     -40.259  23.799  -1.151  0.00  0.00    -0.023 C 
ATOM     15  C26 NON d   1     -39.926  22.378  -1.643  0.00  0.00     0.016 C 
ATOM     16  C27 NON d   1     -41.066  23.914  -2.743  0.00  0.00     0.027 C 
ATOM     17  C28 NON d   1     -41.619  22.823  -3.747  0.00  0.00     0.011 C 
ATOM     18  C29 NON d   1     -40.732  22.076  -4.797  0.00  0.00     0.014 C 
ATOM     19  C30 NON d   1     -39.509  22.792  -5.442  0.00  0.00    -0.002 C 
ATOM     20  C31 NON d   1     -38.269  21.879  -5.220  0.00  0.00     0.019 C 
ENDROOT
BRANCH   1  21
ATOM     21  C11 NON d   1     -39.213  21.841  -8.112  0.00  0.00     0.085 C 
ATOM     22  C12 NON d   1     -40.629  21.099  -7.938  0.00  0.00     0.049 C 
BRANCH  21  23
ATOM     23  C3  NON d   1     -39.073  22.809  -9.475  0.00  0.00     0.166 C 
BRANCH  23  24
ATOM     24  O2  NON d   1     -38.864  21.844 -10.612  0.00  0.00    -0.313 OA
BRANCH  24  25
ATOM     25  C2  NON d   1     -37.544  21.831 -11.054  0.00  0.00     0.255 C 
ATOM     26  C1  NON d   1     -37.401  21.671 -12.547  0.00  0.00     0.126 C 
ATOM     27  O1  NON d   1     -36.598  21.850 -10.290  0.00  0.00    -0.266 OA
ENDBRANCH  24  25
ENDBRANCH  23  24
BRANCH  23  28
ATOM     28  C4  NON d   1     -40.299  23.745  -9.745  0.00  0.00     0.043 C 
BRANCH  28  29
ATOM     29  C5  NON d   1     -40.371  24.607 -11.065  0.00  0.00     0.031 C 
ATOM     30  C6  NON d   1     -40.136  24.189 -12.555  0.00  0.00     0.133 C 
ATOM     31  C7  NON d   1     -40.373  22.886 -13.279  0.00  0.00     0.040 C 
ATOM     32  O3  NON d   1     -38.773  24.489 -12.849  0.00  0.00    -0.316 OA
ATOM     33  C8  NON d   1     -38.415  25.581 -12.148  0.00  0.00     0.263 C 
ATOM     34  O4  NON d   1     -37.433  26.254 -12.409  0.00  0.00    -0.265 OA
ATOM     35  C9  NON d   1     -39.381  25.815 -11.008  0.00  0.00     0.088 C 
ATOM     36  C10 NON d   1     -38.531  26.017  -9.762  0.00  0.00     0.021 C 
ENDBRANCH  28  29
ENDBRANCH  23  28
ENDBRANCH  21  23
BRANCH  21  37
ATOM     37  O5  NON d   1     -38.885  20.647  -9.027  0.00  0.00    -0.387 OA
ATOM     38  H19 NON d   1     -37.937  20.527  -9.210  0.00  0.00     0.210 HD
ENDBRANCH  21  37
ENDBRANCH   1  21
BRANCH   4  39
ATOM     39  O6  NON d   1     -37.987  24.287  -4.181  0.00  0.00    -0.384 OA
ATOM     40  H25 NON d   1     -37.350  24.102  -4.890  0.00  0.00     0.211 HD
ENDBRANCH   4  39
BRANCH  12  41
ATOM     41  O9  NON d   1     -41.445  22.492   2.311  0.00  0.00    -0.393 OA
ATOM     42  H33 NON d   1     -41.129  22.778   3.196  0.00  0.00     0.210 HD
ENDBRANCH  12  41
BRANCH  11  43
ATOM     43  O8  NON d   1     -41.377  24.927   3.015  0.00  0.00    -0.393 OA
ATOM     44  H31 NON d   1     -41.141  24.190   3.607  0.00  0.00     0.210 HD
ENDBRANCH  11  43
TORSDOF 10
ENDMDL
MODEL 9
REMARK VINA RESULT:    -5.074      3.095      9.419
REMARK INTER + INTRA:         -13.247
REMARK INTER:                  -8.057
REMARK INTRA:                  -5.190
REMARK CONF_INDEPENDENT:        2.983
REMARK UNBOUND:                -5.190
REMARK  10 active torsions:
REMARK  status: ('A' for Active; 'I' for Inactive)
REMARK    1  A    between atoms: C2_2  and  O2_4 
REMARK    2  A    between atoms: C3_5  and  O2_4 
REMARK    3  A    between atoms: C3_5  and  C4_6 
REMARK    4  A    between atoms: C11_15  and  C3_5 
REMARK    5  A    between atoms: C5_7  and  C4_6 
REMARK    6  A    between atoms: C11_15  and  O5_17 
REMARK    7  A    between atoms: C11_15  and  C13_18 
REMARK    8  A    between atoms: C16_21  and  O6_22 
REMARK    9  A    between atoms: C22_29  and  O8_30 
REMARK   10  A    between atoms: C23_31  and  O9_32 
ROOT
ATOM      1  C13 NON d   1     -39.020  21.517  -4.153  0.00  0.00     0.034 C 
ATOM      2  C14 NON d   1     -37.449  21.416  -4.208  0.00  0.00     0.012 C 
ATOM      3  C15 NON d   1     -37.025  20.924  -5.590  0.00  0.00     0.044 C 
ATOM      4  C16 NON d   1     -37.748  21.812  -6.588  0.00  0.00     0.089 C 
ATOM      5  C17 NON d   1     -37.702  21.188  -8.013  0.00  0.00    -0.037 C 
ATOM      6  C18 NON d   1     -36.629  20.637  -8.615  0.00  0.00     0.057 C 
ATOM      7  C19 NON d   1     -36.732  20.431 -10.106  0.00  0.00     0.154 C 
ATOM      8  O7  NON d   1     -36.190  19.456 -10.617  0.00  0.00    -0.293 OA
ATOM      9  C20 NON d   1     -37.430  21.567 -10.939  0.00  0.00     0.071 C 
ATOM     10  C21 NON d   1     -37.406  21.271 -12.449  0.00  0.00     0.047 C 
ATOM     11  C22 NON d   1     -37.739  22.537 -13.224  0.00  0.00     0.147 C 
ATOM     12  C23 NON d   1     -39.010  23.177 -12.654  0.00  0.00     0.147 C 
ATOM     13  C24 NON d   1     -39.548  22.360 -11.461  0.00  0.00     0.044 C 
ATOM     14  C25 NON d   1     -38.462  22.432 -10.194  0.00  0.00    -0.023 C 
ATOM     15  C26 NON d   1     -39.494  23.298  -9.447  0.00  0.00     0.016 C 
ATOM     16  C27 NON d   1     -38.888  21.240  -8.932  0.00  0.00     0.027 C 
ATOM     17  C28 NON d   1     -40.154  21.071  -7.997  0.00  0.00     0.011 C 
ATOM     18  C29 NON d   1     -40.349  21.839  -6.648  0.00  0.00     0.014 C 
ATOM     19  C30 NON d   1     -39.116  22.219  -5.776  0.00  0.00    -0.002 C 
ATOM     20  C31 NON d   1     -39.192  23.750  -5.510  0.00  0.00     0.019 C 
ENDROOT
BRANCH   1  21
ATOM     21  C11 NON d   1     -39.888  22.124  -3.035  0.00  0.00     0.085 C 
ATOM     22  C12 NON d   1     -41.266  22.114  -3.864  0.00  0.00     0.049 C 
BRANCH  21  23
ATOM     23  C3  NON d   1     -39.653  20.812  -2.017  0.00  0.00     0.166 C 
BRANCH  23  24
ATOM     24  O2  NON d   1     -39.799  21.373  -0.627  0.00  0.00    -0.313 OA
BRANCH  24  25
ATOM     25  C2  NON d   1     -38.623  21.966  -0.174  0.00  0.00     0.255 C 
ATOM     26  C1  NON d   1     -37.444  21.027  -0.125  0.00  0.00     0.126 C 
ATOM     27  O1  NON d   1     -38.582  23.111   0.234  0.00  0.00    -0.266 OA
ENDBRANCH  24  25
ENDBRANCH  23  24
BRANCH  23  28
ATOM     28  C4  NON d   1     -40.637  19.616  -2.249  0.00  0.00     0.043 C 
BRANCH  28  29
ATOM     29  C5  NON d   1     -40.190  18.367  -3.103  0.00  0.00     0.031 C 
ATOM     30  C6  NON d   1     -38.790  18.008  -3.705  0.00  0.00     0.133 C 
ATOM     31  C7  NON d   1     -37.389  18.305  -3.228  0.00  0.00     0.040 C 
ATOM     32  O3  NON d   1     -38.793  18.487  -5.048  0.00  0.00    -0.316 OA
ATOM     33  C8  NON d   1     -40.041  18.382  -5.537  0.00  0.00     0.263 C 
ATOM     34  O4  NON d   1     -40.302  18.419  -6.728  0.00  0.00    -0.265 OA
ATOM     35  C9  NON d   1     -41.038  18.240  -4.409  0.00  0.00     0.088 C 
ATOM     36  C10 NON d   1     -42.138  19.258  -4.679  0.00  0.00     0.021 C 
ENDBRANCH  28  29
ENDBRANCH  23  28
ENDBRANCH  21  23
BRANCH  21  37
ATOM     37  O5  NON d   1     -40.756  22.732  -1.917  0.00  0.00    -0.387 OA
ATOM     38  H19 NON d   1     -40.252  23.080  -1.160  0.00  0.00     0.210 HD
ENDBRANCH  21  37
ENDBRANCH   1  21
BRANCH   4  39
ATOM     39  O6  NON d   1     -36.971  23.015  -6.727  0.00  0.00    -0.384 OA
ATOM     40  H25 NON d   1     -36.593  23.247  -5.863  0.00  0.00     0.211 HD
ENDBRANCH   4  39
BRANCH  12  41
ATOM     41  O9  NON d   1     -40.023  23.276 -13.651  0.00  0.00    -0.393 OA
ATOM     42  H33 NON d   1     -39.726  22.679 -14.371  0.00  0.00     0.210 HD
ENDBRANCH  12  41
BRANCH  11  43
ATOM     43  O8  NON d   1     -37.912  22.254 -14.614  0.00  0.00    -0.393 OA
ATOM     44  H31 NON d   1     -38.365  23.018 -15.014  0.00  0.00     0.210 HD
ENDBRANCH  11  43
TORSDOF 10
ENDMDL
