MODEL 1
REMARK VINA RESULT:   -24.014      0.000      0.000
REMARK INTER + INTRA:         -27.997
REMARK INTER:                 -26.997
REMARK INTRA:                  -1.000
REMARK CONF_INDEPENDENT:        2.983
REMARK UNBOUND:                -1.000
REMARK  10 active torsions:
REMARK  status: ('A' for Active; 'I' for Inactive)
REMARK    1  A    between atoms: C2_2  and  O1_3 
REMARK    2  A    between atoms: O1_3  and  C3_4 
REMARK    3  A    between atoms: C3_4  and  C4_5 
REMARK    4  A    between atoms: C4_5  and  C5_6 
REMARK    5  A    between atoms: C5_6  and  N1_7 
REMARK       I    between atoms: N1_7  and  C6_8 
REMARK    6  A    between atoms: C6_8  and  C7_10 
REMARK    7  A    between atoms: C14_19  and  C15_20 
REMARK    8  A    between atoms: C15_20  and  S1_21 
REMARK    9  A    between atoms: S1_21  and  C16_22 
REMARK   10  A    between atoms: C16_22  and  C17_23 
ROOT
ATOM      1  C7  NON d   1     -43.691  18.423  -4.417  0.00  0.00     0.034 A 
ATOM      2  C8  NON d   1     -44.379  18.776  -5.596  0.00  0.00     0.019 A 
ATOM      3  C9  NON d   1     -45.584  18.154  -5.965  0.00  0.00     0.027 A 
ATOM      4  C10 NON d   1     -46.160  17.189  -5.141  0.00  0.00     0.036 A 
ATOM      5  C11 NON d   1     -45.453  16.803  -3.980  0.00  0.00     0.057 A 
ATOM      6  C12 NON d   1     -44.234  17.413  -3.613  0.00  0.00     0.048 A 
ATOM      7  N2  NON d   1     -45.968  15.763  -3.187  0.00  0.00    -0.324 N 
ATOM      8  C13 NON d   1     -47.197  15.190  -3.425  0.00  0.00     0.241 C 
ATOM      9  O3  NON d   1     -47.548  14.185  -2.810  0.00  0.00    -0.271 OA
ATOM     10  C14 NON d   1     -48.100  15.977  -4.391  0.00  0.00     0.162 C 
ATOM     11  N3  NON d   1     -47.334  16.505  -5.556  0.00  0.00    -0.277 NA
ATOM     12  H16 NON d   1     -45.411  15.346  -2.450  0.00  0.00     0.169 HD
ATOM     13  H31 NON d   1     -47.908  17.101  -6.150  0.00  0.00     0.128 HD
ENDROOT
BRANCH  10  14
ATOM     14  C15 NON d   1     -49.320  15.149  -4.831  0.00  0.00     0.103 C 
BRANCH  14  15
ATOM     15  S1  NON d   1     -50.517  14.800  -3.475  0.00  0.00    -0.162 SA
BRANCH  15  16
ATOM     16  C16 NON d   1     -50.327  16.246  -2.379  0.00  0.00     0.112 C 
BRANCH  16  17
ATOM     17  C17 NON d   1     -51.528  16.916  -1.723  0.00  0.00    -0.043 C 
ATOM     18  C18 NON d   1     -52.756  16.813  -2.461  0.00  0.00     0.015 C 
ATOM     19  C19 NON d   1     -53.946  17.385  -2.001  0.00  0.00    -0.061 C 
ATOM     20  C20 NON d   1     -55.246  17.647  -2.785  0.00  0.00     0.048 C 
ATOM     21  C21 NON d   1     -53.942  17.977  -0.732  0.00  0.00     0.007 C 
ATOM     22  C22 NON d   1     -52.757  18.140  -0.026  0.00  0.00     0.008 C 
ATOM     23  C23 NON d   1     -51.528  17.716  -0.558  0.00  0.00    -0.055 C 
ATOM     24  C24 NON d   1     -50.321  18.243   0.174  0.00  0.00     0.049 C 
ENDBRANCH  16  17
ENDBRANCH  15  16
ENDBRANCH  14  15
ENDBRANCH  10  14
BRANCH   1  25
ATOM     25  C6  NON d   1     -42.432  19.189  -4.091  0.00  0.00     0.251 C 
ATOM     26  N1  NON d   1     -41.465  18.616  -3.269  0.00  0.00    -0.357 N 
ATOM     27  H12 NON d   1     -41.505  17.624  -3.090  0.00  0.00     0.162 HD
ATOM     28  O2  NON d   1     -42.278  20.308  -4.580  0.00  0.00    -0.268 OA
BRANCH  26  29
ATOM     29  C5  NON d   1     -40.172  19.302  -3.081  0.00  0.00     0.125 C 
BRANCH  29  30
ATOM     30  C4  NON d   1     -38.999  18.640  -3.825  0.00  0.00     0.046 C 
BRANCH  30  31
ATOM     31  C3  NON d   1     -38.742  19.209  -5.243  0.00  0.00     0.169 C 
BRANCH  31  32
ATOM     32  O1  NON d   1     -39.942  19.250  -6.026  0.00  0.00    -0.391 OA
BRANCH  32  33
ATOM     33  C2  NON d   1     -39.741  19.593  -7.420  0.00  0.00     0.163 C 
ATOM     34  C1  NON d   1     -40.891  20.433  -8.005  0.00  0.00     0.033 C 
ENDBRANCH  32  33
ENDBRANCH  31  32
ENDBRANCH  30  31
ENDBRANCH  29  30
ENDBRANCH  26  29
ENDBRANCH   1  25
TORSDOF 10
ENDMDL
MODEL 2
REMARK VINA RESULT:   -23.839      1.771      2.719
REMARK INTER + INTRA:         -27.499
REMARK INTER:                 -26.822
REMARK INTRA:                  -0.677
REMARK CONF_INDEPENDENT:        2.983
REMARK UNBOUND:                -0.677
REMARK  10 active torsions:
REMARK  status: ('A' for Active; 'I' for Inactive)
REMARK    1  A    between atoms: C2_2  and  O1_3 
REMARK    2  A    between atoms: O1_3  and  C3_4 
REMARK    3  A    between atoms: C3_4  and  C4_5 
REMARK    4  A    between atoms: C4_5  and  C5_6 
REMARK    5  A    between atoms: C5_6  and  N1_7 
REMARK       I    between atoms: N1_7  and  C6_8 
REMARK    6  A    between atoms: C6_8  and  C7_10 
REMARK    7  A    between atoms: C14_19  and  C15_20 
REMARK    8  A    between atoms: C15_20  and  S1_21 
REMARK    9  A    between atoms: S1_21  and  C16_22 
REMARK   10  A    between atoms: C16_22  and  C17_23 
ROOT
ATOM      1  C7  NON d   1     -43.774  18.494  -4.655  0.00  0.00     0.034 A 
ATOM      2  C8  NON d   1     -44.530  18.825  -5.798  0.00  0.00     0.019 A 
ATOM      3  C9  NON d   1     -45.742  18.180  -6.097  0.00  0.00     0.027 A 
ATOM      4  C10 NON d   1     -46.257  17.212  -5.236  0.00  0.00     0.036 A 
ATOM      5  C11 NON d   1     -45.483  16.848  -4.112  0.00  0.00     0.057 A 
ATOM      6  C12 NON d   1     -44.256  17.482  -3.815  0.00  0.00     0.048 A 
ATOM      7  N2  NON d   1     -45.936  15.807  -3.284  0.00  0.00    -0.324 N 
ATOM      8  C13 NON d   1     -47.166  15.212  -3.451  0.00  0.00     0.241 C 
ATOM      9  O3  NON d   1     -47.467  14.207  -2.811  0.00  0.00    -0.271 OA
ATOM     10  C14 NON d   1     -48.133  15.975  -4.374  0.00  0.00     0.162 C 
ATOM     11  N3  NON d   1     -47.440  16.506  -5.582  0.00  0.00    -0.277 NA
ATOM     12  H16 NON d   1     -45.334  15.406  -2.575  0.00  0.00     0.169 HD
ATOM     13  H31 NON d   1     -48.055  17.087  -6.149  0.00  0.00     0.128 HD
ENDROOT
BRANCH  10  14
ATOM     14  C15 NON d   1     -49.360  15.123  -4.741  0.00  0.00     0.103 C 
BRANCH  14  15
ATOM     15  S1  NON d   1     -50.504  14.810  -3.332  0.00  0.00    -0.162 SA
BRANCH  15  16
ATOM     16  C16 NON d   1     -50.371  16.341  -2.349  0.00  0.00     0.112 C 
BRANCH  16  17
ATOM     17  C17 NON d   1     -51.592  16.990  -1.710  0.00  0.00    -0.043 C 
ATOM     18  C18 NON d   1     -52.810  16.856  -2.459  0.00  0.00     0.015 C 
ATOM     19  C19 NON d   1     -54.016  17.407  -2.016  0.00  0.00    -0.061 C 
ATOM     20  C20 NON d   1     -55.313  17.636  -2.815  0.00  0.00     0.048 C 
ATOM     21  C21 NON d   1     -54.037  18.009  -0.751  0.00  0.00     0.007 C 
ATOM     22  C22 NON d   1     -52.864  18.201  -0.035  0.00  0.00     0.008 C 
ATOM     23  C23 NON d   1     -51.621  17.799  -0.551  0.00  0.00    -0.055 C 
ATOM     24  C24 NON d   1     -50.433  18.357   0.189  0.00  0.00     0.049 C 
ENDBRANCH  16  17
ENDBRANCH  15  16
ENDBRANCH  14  15
ENDBRANCH  10  14
BRANCH   1  25
ATOM     25  C6  NON d   1     -42.513  19.283  -4.403  0.00  0.00     0.251 C 
ATOM     26  N1  NON d   1     -41.752  19.030  -3.264  0.00  0.00    -0.357 N 
ATOM     27  H12 NON d   1     -41.921  18.181  -2.746  0.00  0.00     0.162 HD
ATOM     28  O2  NON d   1     -42.171  20.130  -5.228  0.00  0.00    -0.268 OA
BRANCH  26  29
ATOM     29  C5  NON d   1     -40.443  19.692  -3.102  0.00  0.00     0.125 C 
BRANCH  29  30
ATOM     30  C4  NON d   1     -40.522  21.228  -3.054  0.00  0.00     0.046 C 
BRANCH  30  31
ATOM     31  C3  NON d   1     -39.698  21.873  -1.910  0.00  0.00     0.169 C 
BRANCH  31  32
ATOM     32  O1  NON d   1     -40.449  22.874  -1.211  0.00  0.00    -0.391 OA
BRANCH  32  33
ATOM     33  C2  NON d   1     -40.386  22.775   0.234  0.00  0.00     0.163 C 
ATOM     34  C1  NON d   1     -40.855  24.058   0.945  0.00  0.00     0.033 C 
ENDBRANCH  32  33
ENDBRANCH  31  32
ENDBRANCH  30  31
ENDBRANCH  29  30
ENDBRANCH  26  29
ENDBRANCH   1  25
TORSDOF 10
ENDMDL
MODEL 3
REMARK VINA RESULT:   -23.323      1.072      1.878
REMARK INTER + INTRA:         -27.129
REMARK INTER:                 -26.306
REMARK INTRA:                  -0.823
REMARK CONF_INDEPENDENT:        2.983
REMARK UNBOUND:                -0.823
REMARK  10 active torsions:
REMARK  status: ('A' for Active; 'I' for Inactive)
REMARK    1  A    between atoms: C2_2  and  O1_3 
REMARK    2  A    between atoms: O1_3  and  C3_4 
REMARK    3  A    between atoms: C3_4  and  C4_5 
REMARK    4  A    between atoms: C4_5  and  C5_6 
REMARK    5  A    between atoms: C5_6  and  N1_7 
REMARK       I    between atoms: N1_7  and  C6_8 
REMARK    6  A    between atoms: C6_8  and  C7_10 
REMARK    7  A    between atoms: C14_19  and  C15_20 
REMARK    8  A    between atoms: C15_20  and  S1_21 
REMARK    9  A    between atoms: S1_21  and  C16_22 
REMARK   10  A    between atoms: C16_22  and  C17_23 
ROOT
ATOM      1  C7  NON d   1     -43.734  18.463  -4.642  0.00  0.00     0.034 A 
ATOM      2  C8  NON d   1     -44.485  18.801  -5.787  0.00  0.00     0.019 A 
ATOM      3  C9  NON d   1     -45.701  18.166  -6.089  0.00  0.00     0.027 A 
ATOM      4  C10 NON d   1     -46.226  17.202  -5.230  0.00  0.00     0.036 A 
ATOM      5  C11 NON d   1     -45.457  16.830  -4.105  0.00  0.00     0.057 A 
ATOM      6  C12 NON d   1     -44.226  17.454  -3.805  0.00  0.00     0.048 A 
ATOM      7  N2  NON d   1     -45.920  15.792  -3.279  0.00  0.00    -0.324 N 
ATOM      8  C13 NON d   1     -47.155  15.207  -3.449  0.00  0.00     0.241 C 
ATOM      9  O3  NON d   1     -47.465  14.204  -2.811  0.00  0.00    -0.271 OA
ATOM     10  C14 NON d   1     -48.113  15.979  -4.373  0.00  0.00     0.162 C 
ATOM     11  N3  NON d   1     -47.413  16.505  -5.580  0.00  0.00    -0.277 NA
ATOM     12  H16 NON d   1     -45.323  15.385  -2.569  0.00  0.00     0.169 HD
ATOM     13  H31 NON d   1     -48.023  17.091  -6.147  0.00  0.00     0.128 HD
ENDROOT
BRANCH  10  14
ATOM     14  C15 NON d   1     -49.347  15.137  -4.744  0.00  0.00     0.103 C 
BRANCH  14  15
ATOM     15  S1  NON d   1     -50.528  14.885  -3.353  0.00  0.00    -0.162 SA
BRANCH  15  16
ATOM     16  C16 NON d   1     -50.371  16.432  -2.398  0.00  0.00     0.112 C 
BRANCH  16  17
ATOM     17  C17 NON d   1     -51.570  17.069  -1.707  0.00  0.00    -0.043 C 
ATOM     18  C18 NON d   1     -52.810  16.961  -2.422  0.00  0.00     0.015 C 
ATOM     19  C19 NON d   1     -54.000  17.506  -1.929  0.00  0.00    -0.061 C 
ATOM     20  C20 NON d   1     -55.318  17.762  -2.683  0.00  0.00     0.048 C 
ATOM     21  C21 NON d   1     -53.980  18.073  -0.649  0.00  0.00     0.007 C 
ATOM     22  C22 NON d   1     -52.785  18.241   0.037  0.00  0.00     0.008 C 
ATOM     23  C23 NON d   1     -51.560  17.847  -0.526  0.00  0.00    -0.055 C 
ATOM     24  C24 NON d   1     -50.347  18.379   0.193  0.00  0.00     0.049 C 
ENDBRANCH  16  17
ENDBRANCH  15  16
ENDBRANCH  14  15
ENDBRANCH  10  14
BRANCH   1  25
ATOM     25  C6  NON d   1     -42.467  19.242  -4.387  0.00  0.00     0.251 C 
ATOM     26  N1  NON d   1     -41.895  19.992  -5.411  0.00  0.00    -0.357 N 
ATOM     27  H12 NON d   1     -42.445  20.192  -6.233  0.00  0.00     0.162 HD
ATOM     28  O2  NON d   1     -41.972  19.211  -3.260  0.00  0.00    -0.268 OA
BRANCH  26  29
ATOM     29  C5  NON d   1     -40.748  20.872  -5.115  0.00  0.00     0.125 C 
BRANCH  29  30
ATOM     30  C4  NON d   1     -39.377  20.204  -5.323  0.00  0.00     0.046 C 
BRANCH  30  31
ATOM     31  C3  NON d   1     -38.834  19.464  -4.074  0.00  0.00     0.169 C 
BRANCH  31  32
ATOM     32  O1  NON d   1     -39.704  18.400  -3.665  0.00  0.00    -0.391 OA
BRANCH  32  33
ATOM     33  C2  NON d   1     -39.242  17.653  -2.512  0.00  0.00     0.163 C 
ATOM     34  C1  NON d   1     -40.381  16.940  -1.761  0.00  0.00     0.033 C 
ENDBRANCH  32  33
ENDBRANCH  31  32
ENDBRANCH  30  31
ENDBRANCH  29  30
ENDBRANCH  26  29
ENDBRANCH   1  25
TORSDOF 10
ENDMDL
