MODEL 1
REMARK VINA RESULT:   -11.190      0.000      0.000
REMARK INTER + INTRA:         -15.643
REMARK INTER:                 -13.577
REMARK INTRA:                  -2.066
REMARK CONF_INDEPENDENT:        2.386
REMARK UNBOUND:                -2.066
REMARK  8 active torsions:
REMARK  status: ('A' for Active; 'I' for Inactive)
REMARK    1  A    between atoms: C2_2  and  O1_3 
REMARK    2  A    between atoms: O1_3  and  C3_4 
REMARK    3  A    between atoms: C7_8  and  C8_9 
REMARK       I    between atoms: C8_9  and  N1_11 
REMARK    4  A    between atoms: N1_11  and  C9_12 
REMARK    5  A    between atoms: C14_17  and  C15_18 
REMARK       I    between atoms: C15_18  and  N2_20 
REMARK    6  A    between atoms: N2_20  and  C16_21 
REMARK    7  A    between atoms: C19_24  and  N3_25 
REMARK    8  A    between atoms: N3_25  and  C20_26 
ROOT
ATOM      1  C9  NON d   1     -40.549  20.934  -6.725  0.00  0.00     0.050 A 
ATOM      2  C10 NON d   1     -39.989  20.556  -7.957  0.00  0.00     0.030 A 
ATOM      3  C11 NON d   1     -39.007  21.325  -8.587  0.00  0.00     0.002 A 
ATOM      4  C12 NON d   1     -38.574  22.507  -8.009  0.00  0.00     0.001 A 
ATOM      5  C13 NON d   1     -39.109  22.909  -6.785  0.00  0.00     0.019 A 
ATOM      6  C14 NON d   1     -40.069  22.120  -6.114  0.00  0.00     0.059 A 
ENDROOT
BRANCH   6   7
ATOM      7  C15 NON d   1     -40.584  22.563  -4.769  0.00  0.00     0.258 C 
ATOM      8  O3  NON d   1     -41.438  23.444  -4.734  0.00  0.00    -0.267 OA
ATOM      9  N2  NON d   1     -40.055  21.898  -3.671  0.00  0.00    -0.323 N 
ATOM     10  H14 NON d   1     -39.451  21.108  -3.847  0.00  0.00     0.169 HD
BRANCH   9  11
ATOM     11  C16 NON d   1     -40.282  22.164  -2.303  0.00  0.00     0.035 A 
ATOM     12  C17 NON d   1     -39.673  21.321  -1.366  0.00  0.00     0.032 A 
ATOM     13  C18 NON d   1     -39.838  21.524   0.016  0.00  0.00     0.031 A 
ATOM     14  C19 NON d   1     -40.617  22.575   0.498  0.00  0.00     0.032 A 
ATOM     15  C26 NON d   1     -41.223  23.410  -0.454  0.00  0.00     0.031 A 
ATOM     16  C27 NON d   1     -41.062  23.213  -1.833  0.00  0.00     0.032 A 
BRANCH  14  17
ATOM     17  N3  NON d   1     -40.826  22.872   1.857  0.00  0.00    -0.356 N 
ATOM     18  H17 NON d   1     -40.778  22.038   2.434  0.00  0.00     0.166 HD
BRANCH  17  19
ATOM     19  C20 NON d   1     -41.093  24.020   2.626  0.00  0.00     0.032 A 
ATOM     20  C21 NON d   1     -41.553  24.011   3.944  0.00  0.00     0.029 A 
ATOM     21  C22 NON d   1     -41.821  25.207   4.626  0.00  0.00     0.002 A 
ATOM     22  C23 NON d   1     -41.619  26.434   4.001  0.00  0.00     0.000 A 
ATOM     23  C24 NON d   1     -41.151  26.468   2.694  0.00  0.00     0.002 A 
ATOM     24  C25 NON d   1     -40.900  25.273   2.015  0.00  0.00     0.029 A 
ENDBRANCH  17  19
ENDBRANCH  14  17
ENDBRANCH   9  11
ENDBRANCH   6   7
BRANCH   1  25
ATOM     25  N1  NON d   1     -41.599  20.181  -6.114  0.00  0.00    -0.322 N 
ATOM     26  C8  NON d   1     -41.493  19.353  -5.011  0.00  0.00     0.256 C 
ATOM     27  O2  NON d   1     -40.484  19.236  -4.316  0.00  0.00    -0.267 OA
ATOM     28  H9  NON d   1     -42.493  20.241  -6.600  0.00  0.00     0.169 HD
BRANCH  26  29
ATOM     29  C7  NON d   1     -42.679  18.521  -4.622  0.00  0.00     0.035 A 
ATOM     30  C6  NON d   1     -42.652  18.010  -3.310  0.00  0.00     0.017 A 
ATOM     31  C5  NON d   1     -43.705  17.255  -2.813  0.00  0.00     0.004 A 
ATOM     32  C4  NON d   1     -44.807  17.002  -3.620  0.00  0.00     0.037 A 
ATOM     33  C3  NON d   1     -44.869  17.494  -4.933  0.00  0.00     0.069 A 
ATOM     34  C28 NON d   1     -43.794  18.250  -5.435  0.00  0.00     0.053 A 
BRANCH  33  35
ATOM     35  O1  NON d   1     -45.939  17.293  -5.790  0.00  0.00    -0.351 OA
BRANCH  35  36
ATOM     36  C2  NON d   1     -46.710  16.122  -5.497  0.00  0.00     0.171 C 
ATOM     37  C1  NON d   1     -47.819  16.322  -4.447  0.00  0.00     0.034 C 
ENDBRANCH  35  36
ENDBRANCH  33  35
ENDBRANCH  26  29
ENDBRANCH   1  25
TORSDOF 8
ENDMDL
MODEL 2
REMARK VINA RESULT:   -10.558      1.312      1.731
REMARK INTER + INTRA:         -15.092
REMARK INTER:                 -12.945
REMARK INTRA:                  -2.147
REMARK CONF_INDEPENDENT:        2.386
REMARK UNBOUND:                -2.147
REMARK  8 active torsions:
REMARK  status: ('A' for Active; 'I' for Inactive)
REMARK    1  A    between atoms: C2_2  and  O1_3 
REMARK    2  A    between atoms: O1_3  and  C3_4 
REMARK    3  A    between atoms: C7_8  and  C8_9 
REMARK       I    between atoms: C8_9  and  N1_11 
REMARK    4  A    between atoms: N1_11  and  C9_12 
REMARK    5  A    between atoms: C14_17  and  C15_18 
REMARK       I    between atoms: C15_18  and  N2_20 
REMARK    6  A    between atoms: N2_20  and  C16_21 
REMARK    7  A    between atoms: C19_24  and  N3_25 
REMARK    8  A    between atoms: N3_25  and  C20_26 
ROOT
ATOM      1  C9  NON d   1     -39.692  19.190  -6.896  0.00  0.00     0.050 A 
ATOM      2  C10 NON d   1     -39.118  18.389  -7.897  0.00  0.00     0.030 A 
ATOM      3  C11 NON d   1     -37.960  18.777  -8.577  0.00  0.00     0.002 A 
ATOM      4  C12 NON d   1     -37.357  19.990  -8.286  0.00  0.00     0.001 A 
ATOM      5  C13 NON d   1     -37.902  20.807  -7.296  0.00  0.00     0.019 A 
ATOM      6  C14 NON d   1     -39.046  20.409  -6.568  0.00  0.00     0.059 A 
ENDROOT
BRANCH   6   7
ATOM      7  C15 NON d   1     -39.573  21.296  -5.472  0.00  0.00     0.258 C 
ATOM      8  O3  NON d   1     -39.948  22.427  -5.767  0.00  0.00    -0.267 OA
ATOM      9  N2  NON d   1     -39.615  20.730  -4.204  0.00  0.00    -0.323 N 
ATOM     10  H14 NON d   1     -39.392  19.749  -4.122  0.00  0.00     0.169 HD
BRANCH   9  11
ATOM     11  C16 NON d   1     -39.971  21.351  -2.987  0.00  0.00     0.035 A 
ATOM     12  C17 NON d   1     -39.581  20.724  -1.798  0.00  0.00     0.032 A 
ATOM     13  C18 NON d   1     -39.886  21.282  -0.543  0.00  0.00     0.031 A 
ATOM     14  C19 NON d   1     -40.587  22.483  -0.444  0.00  0.00     0.032 A 
ATOM     15  C26 NON d   1     -40.973  23.098  -1.646  0.00  0.00     0.031 A 
ATOM     16  C27 NON d   1     -40.672  22.547  -2.899  0.00  0.00     0.032 A 
BRANCH  14  17
ATOM     17  N3  NON d   1     -40.920  23.130   0.760  0.00  0.00    -0.356 N 
ATOM     18  H17 NON d   1     -41.164  22.465   1.487  0.00  0.00     0.166 HD
BRANCH  17  19
ATOM     19  C20 NON d   1     -41.014  24.457   1.218  0.00  0.00     0.032 A 
ATOM     20  C21 NON d   1     -41.044  25.587   0.397  0.00  0.00     0.029 A 
ATOM     21  C22 NON d   1     -41.110  26.877   0.944  0.00  0.00     0.002 A 
ATOM     22  C23 NON d   1     -41.161  27.056   2.323  0.00  0.00     0.000 A 
ATOM     23  C24 NON d   1     -41.145  25.946   3.158  0.00  0.00     0.002 A 
ATOM     24  C25 NON d   1     -41.064  24.665   2.609  0.00  0.00     0.029 A 
ENDBRANCH  17  19
ENDBRANCH  14  17
ENDBRANCH   9  11
ENDBRANCH   6   7
BRANCH   1  25
ATOM     25  N1  NON d   1     -40.912  18.822  -6.247  0.00  0.00    -0.322 N 
ATOM     26  C8  NON d   1     -41.043  18.165  -5.037  0.00  0.00     0.256 C 
ATOM     27  O2  NON d   1     -40.111  17.901  -4.278  0.00  0.00    -0.267 OA
ATOM     28  H9  NON d   1     -41.751  19.034  -6.786  0.00  0.00     0.169 HD
BRANCH  26  29
ATOM     29  C7  NON d   1     -42.410  17.724  -4.605  0.00  0.00     0.035 A 
ATOM     30  C6  NON d   1     -42.719  17.957  -3.252  0.00  0.00     0.017 A 
ATOM     31  C5  NON d   1     -43.963  17.630  -2.733  0.00  0.00     0.004 A 
ATOM     32  C4  NON d   1     -44.924  17.065  -3.562  0.00  0.00     0.037 A 
ATOM     33  C3  NON d   1     -44.653  16.817  -4.918  0.00  0.00     0.069 A 
ATOM     34  C28 NON d   1     -43.385  17.142  -5.435  0.00  0.00     0.053 A 
BRANCH  33  35
ATOM     35  O1  NON d   1     -45.564  16.271  -5.806  0.00  0.00    -0.351 OA
BRANCH  35  36
ATOM     36  C2  NON d   1     -46.932  16.483  -5.443  0.00  0.00     0.171 C 
ATOM     37  C1  NON d   1     -47.468  15.540  -4.350  0.00  0.00     0.034 C 
ENDBRANCH  35  36
ENDBRANCH  33  35
ENDBRANCH  26  29
ENDBRANCH   1  25
TORSDOF 8
ENDMDL
MODEL 3
REMARK VINA RESULT:    -9.458      3.002      9.013
REMARK INTER + INTRA:         -13.350
REMARK INTER:                 -11.844
REMARK INTRA:                  -1.506
REMARK CONF_INDEPENDENT:        2.386
REMARK UNBOUND:                -1.506
REMARK  8 active torsions:
REMARK  status: ('A' for Active; 'I' for Inactive)
REMARK    1  A    between atoms: C2_2  and  O1_3 
REMARK    2  A    between atoms: O1_3  and  C3_4 
REMARK    3  A    between atoms: C7_8  and  C8_9 
REMARK       I    between atoms: C8_9  and  N1_11 
REMARK    4  A    between atoms: N1_11  and  C9_12 
REMARK    5  A    between atoms: C14_17  and  C15_18 
REMARK       I    between atoms: C15_18  and  N2_20 
REMARK    6  A    between atoms: N2_20  and  C16_21 
REMARK    7  A    between atoms: C19_24  and  N3_25 
REMARK    8  A    between atoms: N3_25  and  C20_26 
ROOT
ATOM      1  C9  NON d   1     -38.369  19.949  -2.518  0.00  0.00     0.050 A 
ATOM      2  C10 NON d   1     -36.990  20.169  -2.681  0.00  0.00     0.030 A 
ATOM      3  C11 NON d   1     -36.205  19.348  -3.494  0.00  0.00     0.002 A 
ATOM      4  C12 NON d   1     -36.775  18.269  -4.150  0.00  0.00     0.001 A 
ATOM      5  C13 NON d   1     -38.141  18.026  -4.010  0.00  0.00     0.019 A 
ATOM      6  C14 NON d   1     -38.958  18.873  -3.229  0.00  0.00     0.059 A 
ENDROOT
BRANCH   6   7
ATOM      7  C15 NON d   1     -40.438  18.606  -3.145  0.00  0.00     0.258 C 
ATOM      8  O3  NON d   1     -40.947  18.490  -2.034  0.00  0.00    -0.267 OA
ATOM      9  N2  NON d   1     -41.110  18.543  -4.359  0.00  0.00    -0.323 N 
ATOM     10  H14 NON d   1     -40.593  18.778  -5.193  0.00  0.00     0.169 HD
BRANCH   9  11
ATOM     11  C16 NON d   1     -42.465  18.218  -4.585  0.00  0.00     0.035 A 
ATOM     12  C17 NON d   1     -42.876  16.910  -4.303  0.00  0.00     0.032 A 
ATOM     13  C18 NON d   1     -44.211  16.507  -4.489  0.00  0.00     0.031 A 
ATOM     14  C19 NON d   1     -45.170  17.400  -4.963  0.00  0.00     0.032 A 
ATOM     15  C26 NON d   1     -44.741  18.708  -5.244  0.00  0.00     0.031 A 
ATOM     16  C27 NON d   1     -43.412  19.115  -5.060  0.00  0.00     0.032 A 
BRANCH  14  17
ATOM     17  N3  NON d   1     -46.529  17.100  -5.163  0.00  0.00    -0.356 N 
ATOM     18  H17 NON d   1     -46.842  17.377  -6.088  0.00  0.00     0.166 HD
BRANCH  17  19
ATOM     19  C20 NON d   1     -47.573  16.525  -4.414  0.00  0.00     0.032 A 
ATOM     20  C21 NON d   1     -47.909  16.881  -3.106  0.00  0.00     0.029 A 
ATOM     21  C22 NON d   1     -48.949  16.233  -2.424  0.00  0.00     0.002 A 
ATOM     22  C23 NON d   1     -49.680  15.225  -3.048  0.00  0.00     0.000 A 
ATOM     23  C24 NON d   1     -49.371  14.862  -4.352  0.00  0.00     0.002 A 
ATOM     24  C25 NON d   1     -48.324  15.501  -5.021  0.00  0.00     0.029 A 
ENDBRANCH  17  19
ENDBRANCH  14  17
ENDBRANCH   9  11
ENDBRANCH   6   7
BRANCH   1  25
ATOM     25  N1  NON d   1     -39.158  20.751  -1.636  0.00  0.00    -0.322 N 
ATOM     26  C8  NON d   1     -39.416  22.105  -1.752  0.00  0.00     0.256 C 
ATOM     27  O2  NON d   1     -39.091  22.801  -2.713  0.00  0.00    -0.267 OA
ATOM     28  H9  NON d   1     -39.508  20.251  -0.819  0.00  0.00     0.169 HD
BRANCH  26  29
ATOM     29  C7  NON d   1     -40.135  22.797  -0.632  0.00  0.00     0.035 A 
ATOM     30  C6  NON d   1     -40.213  22.073   0.573  0.00  0.00     0.017 A 
ATOM     31  C5  NON d   1     -40.819  22.615   1.697  0.00  0.00     0.004 A 
ATOM     32  C4  NON d   1     -41.355  23.895   1.637  0.00  0.00     0.037 A 
ATOM     33  C3  NON d   1     -41.296  24.647   0.453  0.00  0.00     0.069 A 
ATOM     34  C28 NON d   1     -40.690  24.088  -0.687  0.00  0.00     0.053 A 
BRANCH  33  35
ATOM     35  O1  NON d   1     -41.796  25.933   0.322  0.00  0.00    -0.351 OA
BRANCH  35  36
ATOM     36  C2  NON d   1     -40.799  26.922   0.044  0.00  0.00     0.171 C 
ATOM     37  C1  NON d   1     -40.515  27.154  -1.452  0.00  0.00     0.034 C 
ENDBRANCH  35  36
ENDBRANCH  33  35
ENDBRANCH  26  29
ENDBRANCH   1  25
TORSDOF 8
ENDMDL
MODEL 4
REMARK VINA RESULT:    -9.438      3.560      8.187
REMARK INTER + INTRA:         -13.543
REMARK INTER:                 -11.824
REMARK INTRA:                  -1.719
REMARK CONF_INDEPENDENT:        2.386
REMARK UNBOUND:                -1.719
REMARK  8 active torsions:
REMARK  status: ('A' for Active; 'I' for Inactive)
REMARK    1  A    between atoms: C2_2  and  O1_3 
REMARK    2  A    between atoms: O1_3  and  C3_4 
REMARK    3  A    between atoms: C7_8  and  C8_9 
REMARK       I    between atoms: C8_9  and  N1_11 
REMARK    4  A    between atoms: N1_11  and  C9_12 
REMARK    5  A    between atoms: C14_17  and  C15_18 
REMARK       I    between atoms: C15_18  and  N2_20 
REMARK    6  A    between atoms: N2_20  and  C16_21 
REMARK    7  A    between atoms: C19_24  and  N3_25 
REMARK    8  A    between atoms: N3_25  and  C20_26 
ROOT
ATOM      1  C9  NON d   1     -37.422  20.275  -2.271  0.00  0.00     0.050 A 
ATOM      2  C10 NON d   1     -36.222  20.394  -1.549  0.00  0.00     0.030 A 
ATOM      3  C11 NON d   1     -36.191  20.920  -0.255  0.00  0.00     0.002 A 
ATOM      4  C12 NON d   1     -37.360  21.360   0.345  0.00  0.00     0.001 A 
ATOM      5  C13 NON d   1     -38.567  21.253  -0.346  0.00  0.00     0.019 A 
ATOM      6  C14 NON d   1     -38.622  20.683  -1.637  0.00  0.00     0.059 A 
ENDROOT
BRANCH   6   7
ATOM      7  C15 NON d   1     -39.953  20.538  -2.328  0.00  0.00     0.258 C 
ATOM      8  O3  NON d   1     -40.660  21.534  -2.446  0.00  0.00    -0.267 OA
ATOM      9  N2  NON d   1     -40.250  19.268  -2.805  0.00  0.00    -0.323 N 
ATOM     10  H14 NON d   1     -39.527  18.565  -2.751  0.00  0.00     0.169 HD
BRANCH   9  11
ATOM     11  C16 NON d   1     -41.450  18.825  -3.403  0.00  0.00     0.035 A 
ATOM     12  C17 NON d   1     -42.103  17.733  -2.819  0.00  0.00     0.032 A 
ATOM     13  C18 NON d   1     -43.309  17.236  -3.346  0.00  0.00     0.031 A 
ATOM     14  C19 NON d   1     -43.894  17.817  -4.470  0.00  0.00     0.032 A 
ATOM     15  C26 NON d   1     -43.224  18.908  -5.047  0.00  0.00     0.031 A 
ATOM     16  C27 NON d   1     -42.022  19.408  -4.526  0.00  0.00     0.032 A 
BRANCH  14  17
ATOM     17  N3  NON d   1     -45.104  17.406  -5.058  0.00  0.00    -0.356 N 
ATOM     18  H17 NON d   1     -45.152  17.669  -6.038  0.00  0.00     0.166 HD
BRANCH  17  19
ATOM     19  C20 NON d   1     -46.270  16.736  -4.643  0.00  0.00     0.032 A 
ATOM     20  C21 NON d   1     -47.079  15.953  -5.468  0.00  0.00     0.029 A 
ATOM     21  C22 NON d   1     -48.242  15.344  -4.974  0.00  0.00     0.002 A 
ATOM     22  C23 NON d   1     -48.605  15.498  -3.639  0.00  0.00     0.000 A 
ATOM     23  C24 NON d   1     -47.809  16.264  -2.797  0.00  0.00     0.002 A 
ATOM     24  C25 NON d   1     -46.660  16.880  -3.299  0.00  0.00     0.029 A 
ENDBRANCH  17  19
ENDBRANCH  14  17
ENDBRANCH   9  11
ENDBRANCH   6   7
BRANCH   1  25
ATOM     25  N1  NON d   1     -37.443  19.796  -3.618  0.00  0.00    -0.322 N 
ATOM     26  C8  NON d   1     -37.700  20.536  -4.758  0.00  0.00     0.256 C 
ATOM     27  O2  NON d   1     -37.836  21.760  -4.784  0.00  0.00    -0.267 OA
ATOM     28  H9  NON d   1     -37.303  18.790  -3.706  0.00  0.00     0.169 HD
BRANCH  26  29
ATOM     29  C7  NON d   1     -37.838  19.816  -6.066  0.00  0.00     0.035 A 
ATOM     30  C6  NON d   1     -36.703  19.092  -6.478  0.00  0.00     0.017 A 
ATOM     31  C5  NON d   1     -36.711  18.352  -7.651  0.00  0.00     0.004 A 
ATOM     32  C4  NON d   1     -37.859  18.319  -8.433  0.00  0.00     0.037 A 
ATOM     33  C3  NON d   1     -39.010  19.028  -8.054  0.00  0.00     0.069 A 
ATOM     34  C28 NON d   1     -38.992  19.786  -6.869  0.00  0.00     0.053 A 
BRANCH  33  35
ATOM     35  O1  NON d   1     -40.193  19.032  -8.775  0.00  0.00    -0.351 OA
BRANCH  35  36
ATOM     36  C2  NON d   1     -40.873  20.291  -8.777  0.00  0.00     0.171 C 
ATOM     37  C1  NON d   1     -39.973  21.513  -9.041  0.00  0.00     0.034 C 
ENDBRANCH  35  36
ENDBRANCH  33  35
ENDBRANCH  26  29
ENDBRANCH   1  25
TORSDOF 8
ENDMDL
MODEL 5
REMARK VINA RESULT:    -9.387      1.453      2.223
REMARK INTER + INTRA:         -13.545
REMARK INTER:                 -11.774
REMARK INTRA:                  -1.771
REMARK CONF_INDEPENDENT:        2.386
REMARK UNBOUND:                -1.771
REMARK  8 active torsions:
REMARK  status: ('A' for Active; 'I' for Inactive)
REMARK    1  A    between atoms: C2_2  and  O1_3 
REMARK    2  A    between atoms: O1_3  and  C3_4 
REMARK    3  A    between atoms: C7_8  and  C8_9 
REMARK       I    between atoms: C8_9  and  N1_11 
REMARK    4  A    between atoms: N1_11  and  C9_12 
REMARK    5  A    between atoms: C14_17  and  C15_18 
REMARK       I    between atoms: C15_18  and  N2_20 
REMARK    6  A    between atoms: N2_20  and  C16_21 
REMARK    7  A    between atoms: C19_24  and  N3_25 
REMARK    8  A    between atoms: N3_25  and  C20_26 
ROOT
ATOM      1  C9  NON d   1     -40.349  22.009  -5.128  0.00  0.00     0.050 A 
ATOM      2  C10 NON d   1     -39.918  22.114  -6.461  0.00  0.00     0.030 A 
ATOM      3  C11 NON d   1     -39.083  23.150  -6.886  0.00  0.00     0.002 A 
ATOM      4  C12 NON d   1     -38.673  24.124  -5.989  0.00  0.00     0.001 A 
ATOM      5  C13 NON d   1     -39.082  24.047  -4.659  0.00  0.00     0.019 A 
ATOM      6  C14 NON d   1     -39.889  22.980  -4.203  0.00  0.00     0.059 A 
ENDROOT
BRANCH   6   7
ATOM      7  C15 NON d   1     -40.267  22.905  -2.747  0.00  0.00     0.258 C 
ATOM      8  O3  NON d   1     -41.164  22.135  -2.416  0.00  0.00    -0.267 OA
ATOM      9  N2  NON d   1     -39.529  23.711  -1.889  0.00  0.00    -0.323 N 
ATOM     10  H14 NON d   1     -38.738  24.204  -2.275  0.00  0.00     0.169 HD
BRANCH   9  11
ATOM     11  C16 NON d   1     -39.723  23.911  -0.506  0.00  0.00     0.035 A 
ATOM     12  C17 NON d   1     -41.025  24.169  -0.062  0.00  0.00     0.032 A 
ATOM     13  C18 NON d   1     -41.306  24.370   1.302  0.00  0.00     0.031 A 
ATOM     14  C19 NON d   1     -40.293  24.317   2.258  0.00  0.00     0.032 A 
ATOM     15  C26 NON d   1     -38.992  24.061   1.796  0.00  0.00     0.031 A 
ATOM     16  C27 NON d   1     -38.705  23.860   0.439  0.00  0.00     0.032 A 
BRANCH  14  17
ATOM     17  N3  NON d   1     -40.475  24.484   3.643  0.00  0.00    -0.356 N 
ATOM     18  H17 NON d   1     -40.135  23.682   4.164  0.00  0.00     0.166 HD
BRANCH  17  19
ATOM     19  C20 NON d   1     -41.015  25.465   4.495  0.00  0.00     0.032 A 
ATOM     20  C21 NON d   1     -40.264  26.346   5.276  0.00  0.00     0.029 A 
ATOM     21  C22 NON d   1     -40.889  27.276   6.121  0.00  0.00     0.002 A 
ATOM     22  C23 NON d   1     -42.278  27.347   6.186  0.00  0.00     0.000 A 
ATOM     23  C24 NON d   1     -43.044  26.488   5.409  0.00  0.00     0.002 A 
ATOM     24  C25 NON d   1     -42.417  25.554   4.581  0.00  0.00     0.029 A 
ENDBRANCH  17  19
ENDBRANCH  14  17
ENDBRANCH   9  11
ENDBRANCH   6   7
BRANCH   1  25
ATOM     25  N1  NON d   1     -41.255  20.985  -4.709  0.00  0.00    -0.322 N 
ATOM     26  C8  NON d   1     -41.209  19.646  -5.051  0.00  0.00     0.256 C 
ATOM     27  O2  NON d   1     -40.297  19.114  -5.684  0.00  0.00    -0.267 OA
ATOM     28  H9  NON d   1     -42.033  21.323  -4.145  0.00  0.00     0.169 HD
BRANCH  26  29
ATOM     29  C7  NON d   1     -42.348  18.761  -4.640  0.00  0.00     0.035 A 
ATOM     30  C6  NON d   1     -42.277  18.257  -3.328  0.00  0.00     0.017 A 
ATOM     31  C5  NON d   1     -43.286  17.456  -2.811  0.00  0.00     0.004 A 
ATOM     32  C4  NON d   1     -44.387  17.148  -3.599  0.00  0.00     0.037 A 
ATOM     33  C3  NON d   1     -44.493  17.632  -4.913  0.00  0.00     0.069 A 
ATOM     34  C28 NON d   1     -43.462  18.435  -5.435  0.00  0.00     0.053 A 
BRANCH  33  35
ATOM     35  O1  NON d   1     -45.566  17.377  -5.752  0.00  0.00    -0.351 OA
BRANCH  35  36
ATOM     36  C2  NON d   1     -46.294  16.189  -5.424  0.00  0.00     0.171 C 
ATOM     37  C1  NON d   1     -47.746  16.424  -4.966  0.00  0.00     0.034 C 
ENDBRANCH  35  36
ENDBRANCH  33  35
ENDBRANCH  26  29
ENDBRANCH   1  25
TORSDOF 8
ENDMDL
MODEL 6
REMARK VINA RESULT:    -9.257      1.917      8.139
REMARK INTER + INTRA:         -13.872
REMARK INTER:                 -11.643
REMARK INTRA:                  -2.229
REMARK CONF_INDEPENDENT:        2.386
REMARK UNBOUND:                -2.229
REMARK  8 active torsions:
REMARK  status: ('A' for Active; 'I' for Inactive)
REMARK    1  A    between atoms: C2_2  and  O1_3 
REMARK    2  A    between atoms: O1_3  and  C3_4 
REMARK    3  A    between atoms: C7_8  and  C8_9 
REMARK       I    between atoms: C8_9  and  N1_11 
REMARK    4  A    between atoms: N1_11  and  C9_12 
REMARK    5  A    between atoms: C14_17  and  C15_18 
REMARK       I    between atoms: C15_18  and  N2_20 
REMARK    6  A    between atoms: N2_20  and  C16_21 
REMARK    7  A    between atoms: C19_24  and  N3_25 
REMARK    8  A    between atoms: N3_25  and  C20_26 
ROOT
ATOM      1  C9  NON d   1     -39.133  21.757  -6.182  0.00  0.00     0.050 A 
ATOM      2  C10 NON d   1     -38.465  22.803  -6.842  0.00  0.00     0.030 A 
ATOM      3  C11 NON d   1     -38.224  22.769  -8.218  0.00  0.00     0.002 A 
ATOM      4  C12 NON d   1     -38.628  21.677  -8.968  0.00  0.00     0.001 A 
ATOM      5  C13 NON d   1     -39.295  20.624  -8.342  0.00  0.00     0.019 A 
ATOM      6  C14 NON d   1     -39.586  20.663  -6.960  0.00  0.00     0.059 A 
ENDROOT
BRANCH   6   7
ATOM      7  C15 NON d   1     -40.354  19.529  -6.332  0.00  0.00     0.258 C 
ATOM      8  O3  NON d   1     -39.902  18.393  -6.432  0.00  0.00    -0.267 OA
ATOM      9  N2  NON d   1     -41.514  19.886  -5.657  0.00  0.00    -0.323 N 
ATOM     10  H14 NON d   1     -41.707  20.871  -5.546  0.00  0.00     0.169 HD
BRANCH   9  11
ATOM     11  C16 NON d   1     -42.468  19.034  -5.061  0.00  0.00     0.035 A 
ATOM     12  C17 NON d   1     -43.808  19.194  -5.435  0.00  0.00     0.032 A 
ATOM     13  C18 NON d   1     -44.820  18.378  -4.896  0.00  0.00     0.031 A 
ATOM     14  C19 NON d   1     -44.519  17.382  -3.969  0.00  0.00     0.032 A 
ATOM     15  C26 NON d   1     -43.172  17.236  -3.602  0.00  0.00     0.031 A 
ATOM     16  C27 NON d   1     -42.159  18.046  -4.135  0.00  0.00     0.032 A 
BRANCH  14  17
ATOM     17  N3  NON d   1     -45.454  16.504  -3.391  0.00  0.00    -0.356 N 
ATOM     18  H17 NON d   1     -45.002  15.805  -2.810  0.00  0.00     0.166 HD
BRANCH  17  19
ATOM     19  C20 NON d   1     -46.851  16.335  -3.413  0.00  0.00     0.032 A 
ATOM     20  C21 NON d   1     -47.731  16.817  -2.441  0.00  0.00     0.029 A 
ATOM     21  C22 NON d   1     -49.110  16.576  -2.530  0.00  0.00     0.002 A 
ATOM     22  C23 NON d   1     -49.632  15.859  -3.603  0.00  0.00     0.000 A 
ATOM     23  C24 NON d   1     -48.777  15.380  -4.587  0.00  0.00     0.002 A 
ATOM     24  C25 NON d   1     -47.403  15.611  -4.485  0.00  0.00     0.029 A 
ENDBRANCH  17  19
ENDBRANCH  14  17
ENDBRANCH   9  11
ENDBRANCH   6   7
BRANCH   1  25
ATOM     25  N1  NON d   1     -39.322  21.763  -4.765  0.00  0.00    -0.322 N 
ATOM     26  C8  NON d   1     -40.390  22.303  -4.071  0.00  0.00     0.256 C 
ATOM     27  O2  NON d   1     -41.405  22.763  -4.594  0.00  0.00    -0.267 OA
ATOM     28  H9  NON d   1     -38.543  21.367  -4.239  0.00  0.00     0.169 HD
BRANCH  26  29
ATOM     29  C7  NON d   1     -40.323  22.352  -2.574  0.00  0.00     0.035 A 
ATOM     30  C6  NON d   1     -39.457  21.415  -1.978  0.00  0.00     0.017 A 
ATOM     31  C5  NON d   1     -39.276  21.379  -0.603  0.00  0.00     0.004 A 
ATOM     32  C4  NON d   1     -39.955  22.285   0.201  0.00  0.00     0.037 A 
ATOM     33  C3  NON d   1     -40.828  23.234  -0.357  0.00  0.00     0.069 A 
ATOM     34  C28 NON d   1     -41.015  23.258  -1.751  0.00  0.00     0.053 A 
BRANCH  33  35
ATOM     35  O1  NON d   1     -41.527  24.175   0.380  0.00  0.00    -0.351 OA
BRANCH  35  36
ATOM     36  C2  NON d   1     -40.750  24.818   1.396  0.00  0.00     0.171 C 
ATOM     37  C1  NON d   1     -41.063  24.368   2.835  0.00  0.00     0.034 C 
ENDBRANCH  35  36
ENDBRANCH  33  35
ENDBRANCH  26  29
ENDBRANCH   1  25
TORSDOF 8
ENDMDL
MODEL 7
REMARK VINA RESULT:    -9.138      2.932      9.329
REMARK INTER + INTRA:         -13.273
REMARK INTER:                 -11.524
REMARK INTRA:                  -1.749
REMARK CONF_INDEPENDENT:        2.386
REMARK UNBOUND:                -1.749
REMARK  8 active torsions:
REMARK  status: ('A' for Active; 'I' for Inactive)
REMARK    1  A    between atoms: C2_2  and  O1_3 
REMARK    2  A    between atoms: O1_3  and  C3_4 
REMARK    3  A    between atoms: C7_8  and  C8_9 
REMARK       I    between atoms: C8_9  and  N1_11 
REMARK    4  A    between atoms: N1_11  and  C9_12 
REMARK    5  A    between atoms: C14_17  and  C15_18 
REMARK       I    between atoms: C15_18  and  N2_20 
REMARK    6  A    between atoms: N2_20  and  C16_21 
REMARK    7  A    between atoms: C19_24  and  N3_25 
REMARK    8  A    between atoms: N3_25  and  C20_26 
ROOT
ATOM      1  C9  NON d   1     -38.367  20.154  -1.997  0.00  0.00     0.050 A 
ATOM      2  C10 NON d   1     -36.995  20.027  -1.721  0.00  0.00     0.030 A 
ATOM      3  C11 NON d   1     -36.245  18.949  -2.198  0.00  0.00     0.002 A 
ATOM      4  C12 NON d   1     -36.853  17.956  -2.948  0.00  0.00     0.001 A 
ATOM      5  C13 NON d   1     -38.213  18.054  -3.240  0.00  0.00     0.019 A 
ATOM      6  C14 NON d   1     -38.977  19.160  -2.804  0.00  0.00     0.059 A 
ENDROOT
BRANCH   6   7
ATOM      7  C15 NON d   1     -40.431  19.254  -3.185  0.00  0.00     0.258 C 
ATOM      8  O3  NON d   1     -40.967  20.358  -3.169  0.00  0.00    -0.267 OA
ATOM      9  N2  NON d   1     -41.037  18.060  -3.556  0.00  0.00    -0.323 N 
ATOM     10  H14 NON d   1     -40.449  17.244  -3.643  0.00  0.00     0.169 HD
BRANCH   9  11
ATOM     11  C16 NON d   1     -42.395  17.837  -3.867  0.00  0.00     0.035 A 
ATOM     12  C17 NON d   1     -42.995  18.682  -4.808  0.00  0.00     0.032 A 
ATOM     13  C18 NON d   1     -44.341  18.521  -5.182  0.00  0.00     0.031 A 
ATOM     14  C19 NON d   1     -45.123  17.509  -4.627  0.00  0.00     0.032 A 
ATOM     15  C26 NON d   1     -44.508  16.672  -3.683  0.00  0.00     0.031 A 
ATOM     16  C27 NON d   1     -43.167  16.828  -3.305  0.00  0.00     0.032 A 
BRANCH  14  17
ATOM     17  N3  NON d   1     -46.468  17.254  -4.951  0.00  0.00    -0.356 N 
ATOM     18  H17 NON d   1     -46.750  17.746  -5.793  0.00  0.00     0.166 HD
BRANCH  17  19
ATOM     19  C20 NON d   1     -47.529  16.505  -4.408  0.00  0.00     0.032 A 
ATOM     20  C21 NON d   1     -48.181  15.455  -5.058  0.00  0.00     0.029 A 
ATOM     21  C22 NON d   1     -49.250  14.781  -4.451  0.00  0.00     0.002 A 
ATOM     22  C23 NON d   1     -49.675  15.138  -3.174  0.00  0.00     0.000 A 
ATOM     23  C24 NON d   1     -49.033  16.171  -2.504  0.00  0.00     0.002 A 
ATOM     24  C25 NON d   1     -47.978  16.849  -3.120  0.00  0.00     0.029 A 
ENDBRANCH  17  19
ENDBRANCH  14  17
ENDBRANCH   9  11
ENDBRANCH   6   7
BRANCH   1  25
ATOM     25  N1  NON d   1     -39.147  21.223  -1.455  0.00  0.00    -0.322 N 
ATOM     26  C8  NON d   1     -38.703  22.490  -1.124  0.00  0.00     0.256 C 
ATOM     27  O2  NON d   1     -37.575  22.922  -1.362  0.00  0.00    -0.267 OA
ATOM     28  H9  NON d   1     -40.115  20.972  -1.255  0.00  0.00     0.169 HD
BRANCH  26  29
ATOM     29  C7  NON d   1     -39.644  23.417  -0.414  0.00  0.00     0.035 A 
ATOM     30  C6  NON d   1     -40.156  24.470  -1.195  0.00  0.00     0.017 A 
ATOM     31  C5  NON d   1     -41.065  25.377  -0.670  0.00  0.00     0.004 A 
ATOM     32  C4  NON d   1     -41.481  25.244   0.649  0.00  0.00     0.037 A 
ATOM     33  C3  NON d   1     -40.992  24.206   1.459  0.00  0.00     0.069 A 
ATOM     34  C28 NON d   1     -40.062  23.296   0.923  0.00  0.00     0.053 A 
BRANCH  33  35
ATOM     35  O1  NON d   1     -41.371  24.003   2.776  0.00  0.00    -0.351 OA
BRANCH  35  36
ATOM     36  C2  NON d   1     -40.981  25.055   3.665  0.00  0.00     0.171 C 
ATOM     37  C1  NON d   1     -41.201  24.756   5.160  0.00  0.00     0.034 C 
ENDBRANCH  35  36
ENDBRANCH  33  35
ENDBRANCH  26  29
ENDBRANCH   1  25
TORSDOF 8
ENDMDL
MODEL 8
REMARK VINA RESULT:    -9.019      2.527      7.945
REMARK INTER + INTRA:         -13.771
REMARK INTER:                 -11.405
REMARK INTRA:                  -2.366
REMARK CONF_INDEPENDENT:        2.386
REMARK UNBOUND:                -2.366
REMARK  8 active torsions:
REMARK  status: ('A' for Active; 'I' for Inactive)
REMARK    1  A    between atoms: C2_2  and  O1_3 
REMARK    2  A    between atoms: O1_3  and  C3_4 
REMARK    3  A    between atoms: C7_8  and  C8_9 
REMARK       I    between atoms: C8_9  and  N1_11 
REMARK    4  A    between atoms: N1_11  and  C9_12 
REMARK    5  A    between atoms: C14_17  and  C15_18 
REMARK       I    between atoms: C15_18  and  N2_20 
REMARK    6  A    between atoms: N2_20  and  C16_21 
REMARK    7  A    between atoms: C19_24  and  N3_25 
REMARK    8  A    between atoms: N3_25  and  C20_26 
ROOT
ATOM      1  C9  NON d   1     -38.028  21.016  -6.938  0.00  0.00     0.050 A 
ATOM      2  C10 NON d   1     -36.755  21.367  -7.421  0.00  0.00     0.030 A 
ATOM      3  C11 NON d   1     -36.190  20.736  -8.532  0.00  0.00     0.002 A 
ATOM      4  C12 NON d   1     -36.876  19.721  -9.179  0.00  0.00     0.001 A 
ATOM      5  C13 NON d   1     -38.142  19.352  -8.725  0.00  0.00     0.019 A 
ATOM      6  C14 NON d   1     -38.747  20.010  -7.630  0.00  0.00     0.059 A 
ENDROOT
BRANCH   6   7
ATOM      7  C15 NON d   1     -40.136  19.616  -7.204  0.00  0.00     0.258 C 
ATOM      8  O3  NON d   1     -41.071  19.870  -7.956  0.00  0.00    -0.267 OA
ATOM      9  N2  NON d   1     -40.230  18.960  -5.983  0.00  0.00    -0.323 N 
ATOM     10  H14 NON d   1     -39.369  18.704  -5.521  0.00  0.00     0.169 HD
BRANCH   9  11
ATOM     11  C16 NON d   1     -41.399  18.563  -5.299  0.00  0.00     0.035 A 
ATOM     12  C17 NON d   1     -42.611  19.142  -5.691  0.00  0.00     0.032 A 
ATOM     13  C18 NON d   1     -43.823  18.793  -5.068  0.00  0.00     0.031 A 
ATOM     14  C19 NON d   1     -43.856  17.856  -4.037  0.00  0.00     0.032 A 
ATOM     15  C26 NON d   1     -42.631  17.287  -3.653  0.00  0.00     0.031 A 
ATOM     16  C27 NON d   1     -41.420  17.630  -4.270  0.00  0.00     0.032 A 
BRANCH  14  17
ATOM     17  N3  NON d   1     -45.016  17.427  -3.367  0.00  0.00    -0.356 N 
ATOM     18  H17 NON d   1     -44.962  17.609  -2.370  0.00  0.00     0.166 HD
BRANCH  17  19
ATOM     19  C20 NON d   1     -46.229  16.803  -3.715  0.00  0.00     0.032 A 
ATOM     20  C21 NON d   1     -47.294  16.581  -2.841  0.00  0.00     0.029 A 
ATOM     21  C22 NON d   1     -48.457  15.923  -3.268  0.00  0.00     0.002 A 
ATOM     22  C23 NON d   1     -48.577  15.490  -4.586  0.00  0.00     0.000 A 
ATOM     23  C24 NON d   1     -47.534  15.711  -5.477  0.00  0.00     0.002 A 
ATOM     24  C25 NON d   1     -46.373  16.353  -5.041  0.00  0.00     0.029 A 
ENDBRANCH  17  19
ENDBRANCH  14  17
ENDBRANCH   9  11
ENDBRANCH   6   7
BRANCH   1  25
ATOM     25  N1  NON d   1     -38.577  21.618  -5.763  0.00  0.00    -0.322 N 
ATOM     26  C8  NON d   1     -38.715  21.032  -4.518  0.00  0.00     0.256 C 
ATOM     27  O2  NON d   1     -38.270  19.927  -4.210  0.00  0.00    -0.267 OA
ATOM     28  H9  NON d   1     -38.944  22.558  -5.909  0.00  0.00     0.169 HD
BRANCH  26  29
ATOM     29  C7  NON d   1     -39.468  21.776  -3.455  0.00  0.00     0.035 A 
ATOM     30  C6  NON d   1     -40.409  22.711  -3.924  0.00  0.00     0.017 A 
ATOM     31  C5  NON d   1     -41.197  23.439  -3.044  0.00  0.00     0.004 A 
ATOM     32  C4  NON d   1     -41.060  23.240  -1.676  0.00  0.00     0.037 A 
ATOM     33  C3  NON d   1     -40.131  22.315  -1.170  0.00  0.00     0.069 A 
ATOM     34  C28 NON d   1     -39.328  21.588  -2.067  0.00  0.00     0.053 A 
BRANCH  33  35
ATOM     35  O1  NON d   1     -39.949  22.055   0.178  0.00  0.00    -0.351 OA
BRANCH  35  36
ATOM     36  C2  NON d   1     -40.951  22.628   1.024  0.00  0.00     0.171 C 
ATOM     37  C1  NON d   1     -40.601  24.014   1.597  0.00  0.00     0.034 C 
ENDBRANCH  35  36
ENDBRANCH  33  35
ENDBRANCH  26  29
ENDBRANCH   1  25
TORSDOF 8
ENDMDL
MODEL 9
REMARK VINA RESULT:    -8.909      3.017      8.081
REMARK INTER + INTRA:         -13.465
REMARK INTER:                 -11.295
REMARK INTRA:                  -2.170
REMARK CONF_INDEPENDENT:        2.386
REMARK UNBOUND:                -2.170
REMARK  8 active torsions:
REMARK  status: ('A' for Active; 'I' for Inactive)
REMARK    1  A    between atoms: C2_2  and  O1_3 
REMARK    2  A    between atoms: O1_3  and  C3_4 
REMARK    3  A    between atoms: C7_8  and  C8_9 
REMARK       I    between atoms: C8_9  and  N1_11 
REMARK    4  A    between atoms: N1_11  and  C9_12 
REMARK    5  A    between atoms: C14_17  and  C15_18 
REMARK       I    between atoms: C15_18  and  N2_20 
REMARK    6  A    between atoms: N2_20  and  C16_21 
REMARK    7  A    between atoms: C19_24  and  N3_25 
REMARK    8  A    between atoms: N3_25  and  C20_26 
ROOT
ATOM      1  C9  NON d   1     -38.330  20.293  -6.478  0.00  0.00     0.050 A 
ATOM      2  C10 NON d   1     -37.025  20.454  -6.972  0.00  0.00     0.030 A 
ATOM      3  C11 NON d   1     -36.587  19.796  -8.125  0.00  0.00     0.002 A 
ATOM      4  C12 NON d   1     -37.441  18.941  -8.803  0.00  0.00     0.001 A 
ATOM      5  C13 NON d   1     -38.743  18.762  -8.339  0.00  0.00     0.019 A 
ATOM      6  C14 NON d   1     -39.216  19.454  -7.201  0.00  0.00     0.059 A 
ENDROOT
BRANCH   6   7
ATOM      7  C15 NON d   1     -40.645  19.272  -6.762  0.00  0.00     0.258 C 
ATOM      8  O3  NON d   1     -41.520  19.898  -7.352  0.00  0.00    -0.267 OA
ATOM      9  N2  NON d   1     -40.848  18.369  -5.727  0.00  0.00    -0.323 N 
ATOM     10  H14 NON d   1     -40.055  17.829  -5.413  0.00  0.00     0.169 HD
BRANCH   9  11
ATOM     11  C16 NON d   1     -42.056  18.073  -5.058  0.00  0.00     0.035 A 
ATOM     12  C17 NON d   1     -43.200  18.785  -5.437  0.00  0.00     0.032 A 
ATOM     13  C18 NON d   1     -44.445  18.543  -4.828  0.00  0.00     0.031 A 
ATOM     14  C19 NON d   1     -44.579  17.584  -3.826  0.00  0.00     0.032 A 
ATOM     15  C26 NON d   1     -43.422  16.881  -3.455  0.00  0.00     0.031 A 
ATOM     16  C27 NON d   1     -42.178  17.117  -4.058  0.00  0.00     0.032 A 
BRANCH  14  17
ATOM     17  N3  NON d   1     -45.782  17.256  -3.173  0.00  0.00    -0.356 N 
ATOM     18  H17 NON d   1     -45.787  17.584  -2.212  0.00  0.00     0.166 HD
BRANCH  17  19
ATOM     19  C20 NON d   1     -46.974  16.584  -3.499  0.00  0.00     0.032 A 
ATOM     20  C21 NON d   1     -47.212  15.912  -4.699  0.00  0.00     0.029 A 
ATOM     21  C22 NON d   1     -48.445  15.292  -4.950  0.00  0.00     0.002 A 
ATOM     22  C23 NON d   1     -49.457  15.324  -3.995  0.00  0.00     0.000 A 
ATOM     23  C24 NON d   1     -49.239  15.978  -2.789  0.00  0.00     0.002 A 
ATOM     24  C25 NON d   1     -48.014  16.605  -2.550  0.00  0.00     0.029 A 
ENDBRANCH  17  19
ENDBRANCH  14  17
ENDBRANCH   9  11
ENDBRANCH   6   7
BRANCH   1  25
ATOM     25  N1  NON d   1     -38.756  20.915  -5.264  0.00  0.00    -0.322 N 
ATOM     26  C8  NON d   1     -39.153  20.282  -4.101  0.00  0.00     0.256 C 
ATOM     27  O2  NON d   1     -39.084  19.069  -3.904  0.00  0.00    -0.267 OA
ATOM     28  H9  NON d   1     -38.813  21.932  -5.315  0.00  0.00     0.169 HD
BRANCH  26  29
ATOM     29  C7  NON d   1     -39.721  21.112  -2.988  0.00  0.00     0.035 A 
ATOM     30  C6  NON d   1     -39.535  20.595  -1.693  0.00  0.00     0.017 A 
ATOM     31  C5  NON d   1     -39.979  21.284  -0.574  0.00  0.00     0.004 A 
ATOM     32  C4  NON d   1     -40.617  22.508  -0.732  0.00  0.00     0.037 A 
ATOM     33  C3  NON d   1     -40.822  23.056  -2.008  0.00  0.00     0.069 A 
ATOM     34  C28 NON d   1     -40.378  22.347  -3.140  0.00  0.00     0.053 A 
BRANCH  33  35
ATOM     35  O1  NON d   1     -41.437  24.275  -2.241  0.00  0.00    -0.351 OA
BRANCH  35  36
ATOM     36  C2  NON d   1     -40.556  25.400  -2.155  0.00  0.00     0.171 C 
ATOM     37  C1  NON d   1     -41.203  26.758  -2.483  0.00  0.00     0.034 C 
ENDBRANCH  35  36
ENDBRANCH  33  35
ENDBRANCH  26  29
ENDBRANCH   1  25
TORSDOF 8
ENDMDL
