MODEL 1
REMARK VINA RESULT:   -12.930      0.000      0.000
REMARK INTER + INTRA:         -17.725
REMARK INTER:                 -16.510
REMARK INTRA:                  -1.215
REMARK CONF_INDEPENDENT:        3.580
REMARK UNBOUND:                -1.215
REMARK  12 active torsions:
REMARK  status: ('A' for Active; 'I' for Inactive)
REMARK    1  A    between atoms: C2_2  and  C4_4 
REMARK    2  A    between atoms: C4_4  and  O1_5 
REMARK    3  A    between atoms: O1_5  and  C5_6 
REMARK    4  A    between atoms: C8_9  and  N1_10 
REMARK       I    between atoms: N1_10  and  C9_11 
REMARK    5  A    between atoms: C9_11  and  C10_13 
REMARK    6  A    between atoms: C10_13  and  N2_14 
REMARK    7  A    between atoms: N2_14  and  C11_15 
REMARK    8  A    between atoms: C15_19  and  N3_20 
REMARK       I    between atoms: N3_20  and  C16_21 
REMARK    9  A    between atoms: C16_21  and  C17_23 
REMARK   10  A    between atoms: C17_23  and  C18_24 
REMARK   11  A    between atoms: C18_24  and  C19_25 
REMARK   12  A    between atoms: C19_25  and  C20_26 
ROOT
ATOM      1  N2  NON d   1     -43.268  18.340  -5.006  0.00  0.00    -0.381 N 
ATOM      2  H13 NON d   1     -43.677  18.692  -5.871  0.00  0.00     0.160 HD
ENDROOT
BRANCH   1   3
ATOM      3  C10 NON d   1     -43.840  17.035  -4.589  0.00  0.00     0.223 C 
BRANCH   3   4
ATOM      4  C9  NON d   1     -45.403  16.966  -4.743  0.00  0.00     0.239 C 
ATOM      5  N1  NON d   1     -46.061  16.515  -3.586  0.00  0.00    -0.326 N 
ATOM      6  H10 NON d   1     -45.472  16.277  -2.799  0.00  0.00     0.169 HD
ATOM      7  O2  NON d   1     -45.946  17.241  -5.810  0.00  0.00    -0.271 OA
BRANCH   5   8
ATOM      8  C8  NON d   1     -47.467  16.335  -3.370  0.00  0.00     0.034 A 
ATOM      9  C7  NON d   1     -48.065  17.000  -2.288  0.00  0.00     0.032 A 
ATOM     10  C6  NON d   1     -49.452  16.880  -2.007  0.00  0.00     0.039 A 
ATOM     11  C5  NON d   1     -50.295  16.096  -2.802  0.00  0.00     0.069 A 
ATOM     12  C24 NON d   1     -49.698  15.433  -3.881  0.00  0.00     0.039 A 
ATOM     13  C23 NON d   1     -48.305  15.548  -4.159  0.00  0.00     0.032 A 
BRANCH  11  14
ATOM     14  O1  NON d   1     -51.639  16.063  -2.435  0.00  0.00    -0.347 OA
BRANCH  14  15
ATOM     15  C4  NON d   1     -52.143  17.227  -1.757  0.00  0.00     0.208 C 
BRANCH  15  16
ATOM     16  C2  NON d   1     -53.681  17.447  -1.684  0.00  0.00    -0.069 C 
ATOM     17  C1  NON d   1     -54.416  16.880  -2.665  0.00  0.00     0.016 C 
ATOM     18  C3  NON d   1     -54.409  18.293  -0.624  0.00  0.00     0.044 C 
ENDBRANCH  15  16
ENDBRANCH  14  15
ENDBRANCH  11  14
ENDBRANCH   5   8
ENDBRANCH   3   4
ENDBRANCH   1   3
BRANCH   1  19
ATOM     19  C11 NON d   1     -41.922  18.675  -4.804  0.00  0.00     0.030 A 
ATOM     20  C12 NON d   1     -40.939  18.472  -5.772  0.00  0.00     0.029 A 
ATOM     21  C13 NON d   1     -39.589  18.729  -5.507  0.00  0.00     0.004 A 
ATOM     22  C14 NON d   1     -39.173  19.170  -4.247  0.00  0.00     0.029 A 
ATOM     23  C15 NON d   1     -40.098  19.365  -3.231  0.00  0.00     0.036 A 
ATOM     24  C22 NON d   1     -41.467  19.105  -3.528  0.00  0.00     0.058 A 
BRANCH  23  25
ATOM     25  N3  NON d   1     -39.778  19.803  -1.921  0.00  0.00    -0.327 N 
ATOM     26  C16 NON d   1     -39.726  21.019  -1.274  0.00  0.00     0.222 C 
ATOM     27  O3  NON d   1     -39.422  21.007  -0.077  0.00  0.00    -0.273 OA
ATOM     28  H17 NON d   1     -39.536  19.066  -1.266  0.00  0.00     0.169 HD
BRANCH  26  29
ATOM     29  C17 NON d   1     -40.030  22.321  -1.992  0.00  0.00     0.103 C 
BRANCH  29  30
ATOM     30  C18 NON d   1     -40.368  23.537  -1.110  0.00  0.00     0.009 C 
BRANCH  30  31
ATOM     31  C19 NON d   1     -41.300  23.273   0.082  0.00  0.00     0.000 C 
BRANCH  31  32
ATOM     32  C20 NON d   1     -41.065  24.213   1.264  0.00  0.00    -0.005 C 
ATOM     33  C21 NON d   1     -41.515  25.635   0.950  0.00  0.00     0.005 C 
ENDBRANCH  31  32
ENDBRANCH  30  31
ENDBRANCH  29  30
ENDBRANCH  26  29
ENDBRANCH  23  25
ENDBRANCH   1  19
TORSDOF 12
ENDMDL
MODEL 2
REMARK VINA RESULT:   -12.798      3.058      4.538
REMARK INTER + INTRA:         -17.913
REMARK INTER:                 -16.378
REMARK INTRA:                  -1.535
REMARK CONF_INDEPENDENT:        3.580
REMARK UNBOUND:                -1.535
REMARK  12 active torsions:
REMARK  status: ('A' for Active; 'I' for Inactive)
REMARK    1  A    between atoms: C2_2  and  C4_4 
REMARK    2  A    between atoms: C4_4  and  O1_5 
REMARK    3  A    between atoms: O1_5  and  C5_6 
REMARK    4  A    between atoms: C8_9  and  N1_10 
REMARK       I    between atoms: N1_10  and  C9_11 
REMARK    5  A    between atoms: C9_11  and  C10_13 
REMARK    6  A    between atoms: C10_13  and  N2_14 
REMARK    7  A    between atoms: N2_14  and  C11_15 
REMARK    8  A    between atoms: C15_19  and  N3_20 
REMARK       I    between atoms: N3_20  and  C16_21 
REMARK    9  A    between atoms: C16_21  and  C17_23 
REMARK   10  A    between atoms: C17_23  and  C18_24 
REMARK   11  A    between atoms: C18_24  and  C19_25 
REMARK   12  A    between atoms: C19_25  and  C20_26 
ROOT
ATOM      1  N2  NON d   1     -43.399  18.285  -4.502  0.00  0.00    -0.381 N 
ATOM      2  H13 NON d   1     -43.938  18.898  -5.114  0.00  0.00     0.160 HD
ENDROOT
BRANCH   1   3
ATOM      3  C10 NON d   1     -43.879  16.880  -4.531  0.00  0.00     0.223 C 
BRANCH   3   4
ATOM      4  C9  NON d   1     -45.434  16.760  -4.718  0.00  0.00     0.239 C 
ATOM      5  N1  NON d   1     -46.122  16.478  -3.525  0.00  0.00    -0.326 N 
ATOM      6  H10 NON d   1     -45.555  16.374  -2.694  0.00  0.00     0.169 HD
ATOM      7  O2  NON d   1     -45.948  16.858  -5.829  0.00  0.00    -0.271 OA
BRANCH   5   8
ATOM      8  C8  NON d   1     -47.531  16.307  -3.324  0.00  0.00     0.034 A 
ATOM      9  C7  NON d   1     -48.137  16.976  -2.248  0.00  0.00     0.032 A 
ATOM     10  C6  NON d   1     -49.528  16.865  -1.983  0.00  0.00     0.039 A 
ATOM     11  C5  NON d   1     -50.368  16.087  -2.788  0.00  0.00     0.069 A 
ATOM     12  C24 NON d   1     -49.763  15.420  -3.860  0.00  0.00     0.039 A 
ATOM     13  C23 NON d   1     -48.366  15.527  -4.123  0.00  0.00     0.032 A 
BRANCH  11  14
ATOM     14  O1  NON d   1     -51.715  16.063  -2.435  0.00  0.00    -0.347 OA
BRANCH  14  15
ATOM     15  C4  NON d   1     -52.233  17.253  -1.816  0.00  0.00     0.208 C 
BRANCH  15  16
ATOM     16  C2  NON d   1     -53.774  17.424  -1.687  0.00  0.00    -0.069 C 
ATOM     17  C1  NON d   1     -54.220  18.012  -0.557  0.00  0.00     0.016 C 
ATOM     18  C3  NON d   1     -54.812  16.930  -2.711  0.00  0.00     0.044 C 
ENDBRANCH  15  16
ENDBRANCH  14  15
ENDBRANCH  11  14
ENDBRANCH   5   8
ENDBRANCH   3   4
ENDBRANCH   1   3
BRANCH   1  19
ATOM     19  C11 NON d   1     -42.044  18.619  -4.367  0.00  0.00     0.030 A 
ATOM     20  C12 NON d   1     -41.198  17.990  -3.455  0.00  0.00     0.029 A 
ATOM     21  C13 NON d   1     -39.875  18.410  -3.278  0.00  0.00     0.004 A 
ATOM     22  C14 NON d   1     -39.362  19.500  -3.988  0.00  0.00     0.029 A 
ATOM     23  C15 NON d   1     -40.162  20.188  -4.890  0.00  0.00     0.036 A 
ATOM     24  C22 NON d   1     -41.503  19.735  -5.060  0.00  0.00     0.058 A 
BRANCH  23  25
ATOM     25  N3  NON d   1     -39.742  21.307  -5.653  0.00  0.00    -0.327 N 
ATOM     26  C16 NON d   1     -39.911  21.732  -6.953  0.00  0.00     0.222 C 
ATOM     27  O3  NON d   1     -39.401  22.813  -7.263  0.00  0.00    -0.273 OA
ATOM     28  H17 NON d   1     -39.188  21.991  -5.148  0.00  0.00     0.169 HD
BRANCH  26  29
ATOM     29  C17 NON d   1     -40.691  20.915  -7.968  0.00  0.00     0.103 C 
BRANCH  29  30
ATOM     30  C18 NON d   1     -39.895  19.885  -8.790  0.00  0.00     0.009 C 
BRANCH  30  31
ATOM     31  C19 NON d   1     -39.563  18.562  -8.082  0.00  0.00     0.000 C 
BRANCH  31  32
ATOM     32  C20 NON d   1     -38.073  18.381  -7.791  0.00  0.00    -0.005 C 
ATOM     33  C21 NON d   1     -37.208  19.111  -8.811  0.00  0.00     0.005 C 
ENDBRANCH  31  32
ENDBRANCH  30  31
ENDBRANCH  29  30
ENDBRANCH  26  29
ENDBRANCH  23  25
ENDBRANCH   1  19
TORSDOF 12
ENDMDL
MODEL 3
REMARK VINA RESULT:   -12.686      2.505     10.486
REMARK INTER + INTRA:         -17.574
REMARK INTER:                 -16.266
REMARK INTRA:                  -1.308
REMARK CONF_INDEPENDENT:        3.580
REMARK UNBOUND:                -1.308
REMARK  12 active torsions:
REMARK  status: ('A' for Active; 'I' for Inactive)
REMARK    1  A    between atoms: C2_2  and  C4_4 
REMARK    2  A    between atoms: C4_4  and  O1_5 
REMARK    3  A    between atoms: O1_5  and  C5_6 
REMARK    4  A    between atoms: C8_9  and  N1_10 
REMARK       I    between atoms: N1_10  and  C9_11 
REMARK    5  A    between atoms: C9_11  and  C10_13 
REMARK    6  A    between atoms: C10_13  and  N2_14 
REMARK    7  A    between atoms: N2_14  and  C11_15 
REMARK    8  A    between atoms: C15_19  and  N3_20 
REMARK       I    between atoms: N3_20  and  C16_21 
REMARK    9  A    between atoms: C16_21  and  C17_23 
REMARK   10  A    between atoms: C17_23  and  C18_24 
REMARK   11  A    between atoms: C18_24  and  C19_25 
REMARK   12  A    between atoms: C19_25  and  C20_26 
ROOT
ATOM      1  N2  NON d   1     -41.011  20.696  -4.992  0.00  0.00    -0.381 N 
ATOM      2  H13 NON d   1     -41.663  21.201  -5.592  0.00  0.00     0.160 HD
ENDROOT
BRANCH   1   3
ATOM      3  C10 NON d   1     -40.006  21.588  -4.361  0.00  0.00     0.223 C 
BRANCH   3   4
ATOM      4  C9  NON d   1     -40.613  22.520  -3.251  0.00  0.00     0.239 C 
ATOM      5  N1  NON d   1     -40.073  22.297  -1.973  0.00  0.00    -0.326 N 
ATOM      6  H10 NON d   1     -39.374  21.569  -1.902  0.00  0.00     0.169 HD
ATOM      7  O2  NON d   1     -41.511  23.316  -3.515  0.00  0.00    -0.271 OA
BRANCH   5   8
ATOM      8  C8  NON d   1     -40.387  22.960  -0.741  0.00  0.00     0.034 A 
ATOM      9  C7  NON d   1     -40.810  24.298  -0.794  0.00  0.00     0.032 A 
ATOM     10  C6  NON d   1     -41.145  25.026   0.379  0.00  0.00     0.039 A 
ATOM     11  C5  NON d   1     -41.077  24.442   1.648  0.00  0.00     0.069 A 
ATOM     12  C24 NON d   1     -40.655  23.108   1.700  0.00  0.00     0.039 A 
ATOM     13  C23 NON d   1     -40.313  22.379   0.524  0.00  0.00     0.032 A 
BRANCH  11  14
ATOM     14  O1  NON d   1     -41.440  25.251   2.723  0.00  0.00    -0.347 OA
BRANCH  14  15
ATOM     15  C4  NON d   1     -40.463  25.396   3.769  0.00  0.00     0.208 C 
BRANCH  15  16
ATOM     16  C2  NON d   1     -40.922  25.260   5.249  0.00  0.00    -0.069 C 
ATOM     17  C1  NON d   1     -40.147  24.497   6.049  0.00  0.00     0.016 C 
ATOM     18  C3  NON d   1     -42.201  25.876   5.844  0.00  0.00     0.044 C 
ENDBRANCH  15  16
ENDBRANCH  14  15
ENDBRANCH  11  14
ENDBRANCH   5   8
ENDBRANCH   3   4
ENDBRANCH   1   3
BRANCH   1  19
ATOM     19  C11 NON d   1     -41.545  19.576  -4.339  0.00  0.00     0.030 A 
ATOM     20  C12 NON d   1     -41.043  19.095  -3.131  0.00  0.00     0.029 A 
ATOM     21  C13 NON d   1     -41.537  17.920  -2.552  0.00  0.00     0.004 A 
ATOM     22  C14 NON d   1     -42.534  17.169  -3.183  0.00  0.00     0.029 A 
ATOM     23  C15 NON d   1     -43.056  17.579  -4.402  0.00  0.00     0.036 A 
ATOM     24  C22 NON d   1     -42.543  18.783  -4.967  0.00  0.00     0.058 A 
BRANCH  23  25
ATOM     25  N3  NON d   1     -44.060  16.886  -5.124  0.00  0.00    -0.327 N 
ATOM     26  C16 NON d   1     -45.384  16.568  -4.910  0.00  0.00     0.222 C 
ATOM     27  O3  NON d   1     -45.969  15.956  -5.809  0.00  0.00    -0.273 OA
ATOM     28  H17 NON d   1     -43.776  16.536  -6.033  0.00  0.00     0.169 HD
BRANCH  26  29
ATOM     29  C17 NON d   1     -46.102  16.949  -3.628  0.00  0.00     0.103 C 
BRANCH  29  30
ATOM     30  C18 NON d   1     -47.580  16.531  -3.509  0.00  0.00     0.009 C 
BRANCH  30  31
ATOM     31  C19 NON d   1     -47.896  15.060  -3.823  0.00  0.00     0.000 C 
BRANCH  31  32
ATOM     32  C20 NON d   1     -49.355  14.680  -3.571  0.00  0.00    -0.005 C 
ATOM     33  C21 NON d   1     -50.103  15.782  -2.830  0.00  0.00     0.005 C 
ENDBRANCH  31  32
ENDBRANCH  30  31
ENDBRANCH  29  30
ENDBRANCH  26  29
ENDBRANCH  23  25
ENDBRANCH   1  19
TORSDOF 12
ENDMDL
MODEL 4
REMARK VINA RESULT:   -12.679      2.855      5.546
REMARK INTER + INTRA:         -17.664
REMARK INTER:                 -16.258
REMARK INTRA:                  -1.405
REMARK CONF_INDEPENDENT:        3.580
REMARK UNBOUND:                -1.405
REMARK  12 active torsions:
REMARK  status: ('A' for Active; 'I' for Inactive)
REMARK    1  A    between atoms: C2_2  and  C4_4 
REMARK    2  A    between atoms: C4_4  and  O1_5 
REMARK    3  A    between atoms: O1_5  and  C5_6 
REMARK    4  A    between atoms: C8_9  and  N1_10 
REMARK       I    between atoms: N1_10  and  C9_11 
REMARK    5  A    between atoms: C9_11  and  C10_13 
REMARK    6  A    between atoms: C10_13  and  N2_14 
REMARK    7  A    between atoms: N2_14  and  C11_15 
REMARK    8  A    between atoms: C15_19  and  N3_20 
REMARK       I    between atoms: N3_20  and  C16_21 
REMARK    9  A    between atoms: C16_21  and  C17_23 
REMARK   10  A    between atoms: C17_23  and  C18_24 
REMARK   11  A    between atoms: C18_24  and  C19_25 
REMARK   12  A    between atoms: C19_25  and  C20_26 
ROOT
ATOM      1  N2  NON d   1     -39.038  20.247  -1.706  0.00  0.00    -0.381 N 
ATOM      2  H13 NON d   1     -38.821  19.641  -0.915  0.00  0.00     0.160 HD
ENDROOT
BRANCH   1   3
ATOM      3  C10 NON d   1     -39.150  19.502  -2.986  0.00  0.00     0.223 C 
BRANCH   3   4
ATOM      4  C9  NON d   1     -40.411  18.567  -3.050  0.00  0.00     0.239 C 
ATOM      5  N1  NON d   1     -41.373  18.987  -3.984  0.00  0.00    -0.326 N 
ATOM      6  H10 NON d   1     -41.163  19.833  -4.495  0.00  0.00     0.169 HD
ATOM      7  O2  NON d   1     -40.521  17.601  -2.299  0.00  0.00    -0.271 OA
BRANCH   5   8
ATOM      8  C8  NON d   1     -42.631  18.378  -4.307  0.00  0.00     0.034 A 
ATOM      9  C7  NON d   1     -43.554  19.117  -5.064  0.00  0.00     0.032 A 
ATOM     10  C6  NON d   1     -44.819  18.586  -5.432  0.00  0.00     0.039 A 
ATOM     11  C5  NON d   1     -45.207  17.293  -5.062  0.00  0.00     0.069 A 
ATOM     12  C24 NON d   1     -44.286  16.557  -4.307  0.00  0.00     0.039 A 
ATOM     13  C23 NON d   1     -43.019  17.092  -3.933  0.00  0.00     0.032 A 
BRANCH  11  14
ATOM     14  O1  NON d   1     -46.466  16.878  -5.489  0.00  0.00    -0.347 OA
BRANCH  14  15
ATOM     15  C4  NON d   1     -46.984  15.684  -4.878  0.00  0.00     0.208 C 
BRANCH  15  16
ATOM     16  C2  NON d   1     -48.142  15.808  -3.847  0.00  0.00    -0.069 C 
ATOM     17  C1  NON d   1     -49.247  15.073  -4.094  0.00  0.00     0.016 C 
ATOM     18  C3  NON d   1     -48.141  16.733  -2.616  0.00  0.00     0.044 C 
ENDBRANCH  15  16
ENDBRANCH  14  15
ENDBRANCH  11  14
ENDBRANCH   5   8
ENDBRANCH   3   4
ENDBRANCH   1   3
BRANCH   1  19
ATOM     19  C11 NON d   1     -39.839  21.358  -1.404  0.00  0.00     0.030 A 
ATOM     20  C12 NON d   1     -40.325  22.226  -2.380  0.00  0.00     0.029 A 
ATOM     21  C13 NON d   1     -41.043  23.378  -2.039  0.00  0.00     0.004 A 
ATOM     22  C14 NON d   1     -41.273  23.716  -0.702  0.00  0.00     0.029 A 
ATOM     23  C15 NON d   1     -40.790  22.908   0.318  0.00  0.00     0.036 A 
ATOM     24  C22 NON d   1     -40.070  21.736  -0.054  0.00  0.00     0.058 A 
BRANCH  23  25
ATOM     25  N3  NON d   1     -40.963  23.165   1.702  0.00  0.00    -0.327 N 
ATOM     26  C16 NON d   1     -41.065  24.291   2.489  0.00  0.00     0.222 C 
ATOM     27  O3  NON d   1     -41.244  24.119   3.699  0.00  0.00    -0.273 OA
ATOM     28  H17 NON d   1     -41.049  22.340   2.288  0.00  0.00     0.169 HD
BRANCH  26  29
ATOM     29  C17 NON d   1     -40.966  25.689   1.904  0.00  0.00     0.103 C 
BRANCH  29  30
ATOM     30  C18 NON d   1     -41.885  26.763   2.513  0.00  0.00     0.009 C 
BRANCH  30  31
ATOM     31  C19 NON d   1     -41.429  27.367   3.851  0.00  0.00     0.000 C 
BRANCH  31  32
ATOM     32  C20 NON d   1     -42.176  26.806   5.061  0.00  0.00    -0.005 C 
ATOM     33  C21 NON d   1     -43.687  26.917   4.891  0.00  0.00     0.005 C 
ENDBRANCH  31  32
ENDBRANCH  30  31
ENDBRANCH  29  30
ENDBRANCH  26  29
ENDBRANCH  23  25
ENDBRANCH   1  19
TORSDOF 12
ENDMDL
MODEL 5
REMARK VINA RESULT:   -12.607      1.400      1.627
REMARK INTER + INTRA:         -17.395
REMARK INTER:                 -16.186
REMARK INTRA:                  -1.209
REMARK CONF_INDEPENDENT:        3.580
REMARK UNBOUND:                -1.209
REMARK  12 active torsions:
REMARK  status: ('A' for Active; 'I' for Inactive)
REMARK    1  A    between atoms: C2_2  and  C4_4 
REMARK    2  A    between atoms: C4_4  and  O1_5 
REMARK    3  A    between atoms: O1_5  and  C5_6 
REMARK    4  A    between atoms: C8_9  and  N1_10 
REMARK       I    between atoms: N1_10  and  C9_11 
REMARK    5  A    between atoms: C9_11  and  C10_13 
REMARK    6  A    between atoms: C10_13  and  N2_14 
REMARK    7  A    between atoms: N2_14  and  C11_15 
REMARK    8  A    between atoms: C15_19  and  N3_20 
REMARK       I    between atoms: N3_20  and  C16_21 
REMARK    9  A    between atoms: C16_21  and  C17_23 
REMARK   10  A    between atoms: C17_23  and  C18_24 
REMARK   11  A    between atoms: C18_24  and  C19_25 
REMARK   12  A    between atoms: C19_25  and  C20_26 
ROOT
ATOM      1  N2  NON d   1     -43.387  18.170  -4.664  0.00  0.00    -0.381 N 
ATOM      2  H13 NON d   1     -43.559  18.659  -5.543  0.00  0.00     0.160 HD
ENDROOT
BRANCH   1   3
ATOM      3  C10 NON d   1     -43.979  16.809  -4.640  0.00  0.00     0.223 C 
BRANCH   3   4
ATOM      4  C9  NON d   1     -45.545  16.810  -4.770  0.00  0.00     0.239 C 
ATOM      5  N1  NON d   1     -46.203  16.319  -3.630  0.00  0.00    -0.326 N 
ATOM      6  H10 NON d   1     -45.613  16.013  -2.869  0.00  0.00     0.169 HD
ATOM      7  O2  NON d   1     -46.093  17.168  -5.810  0.00  0.00    -0.271 OA
BRANCH   5   8
ATOM      8  C8  NON d   1     -47.612  16.182  -3.400  0.00  0.00     0.034 A 
ATOM      9  C7  NON d   1     -48.187  16.902  -2.341  0.00  0.00     0.032 A 
ATOM     10  C6  NON d   1     -49.575  16.827  -2.050  0.00  0.00     0.039 A 
ATOM     11  C5  NON d   1     -50.442  16.035  -2.810  0.00  0.00     0.069 A 
ATOM     12  C24 NON d   1     -49.868  15.317  -3.866  0.00  0.00     0.039 A 
ATOM     13  C23 NON d   1     -48.474  15.388  -4.155  0.00  0.00     0.032 A 
BRANCH  11  14
ATOM     14  O1  NON d   1     -51.784  16.050  -2.435  0.00  0.00    -0.347 OA
BRANCH  14  15
ATOM     15  C4  NON d   1     -52.258  17.255  -1.810  0.00  0.00     0.208 C 
BRANCH  15  16
ATOM     16  C2  NON d   1     -53.791  17.485  -1.686  0.00  0.00    -0.069 C 
ATOM     17  C1  NON d   1     -54.565  16.880  -2.612  0.00  0.00     0.016 C 
ATOM     18  C3  NON d   1     -54.475  18.380  -0.637  0.00  0.00     0.044 C 
ENDBRANCH  15  16
ENDBRANCH  14  15
ENDBRANCH  11  14
ENDBRANCH   5   8
ENDBRANCH   3   4
ENDBRANCH   1   3
BRANCH   1  19
ATOM     19  C11 NON d   1     -42.171  18.478  -4.038  0.00  0.00     0.030 A 
ATOM     20  C12 NON d   1     -41.669  17.748  -2.962  0.00  0.00     0.029 A 
ATOM     21  C13 NON d   1     -40.499  18.137  -2.299  0.00  0.00     0.004 A 
ATOM     22  C14 NON d   1     -39.808  19.293  -2.674  0.00  0.00     0.029 A 
ATOM     23  C15 NON d   1     -40.271  20.080  -3.719  0.00  0.00     0.036 A 
ATOM     24  C22 NON d   1     -41.459  19.658  -4.385  0.00  0.00     0.058 A 
BRANCH  23  25
ATOM     25  N3  NON d   1     -39.649  21.270  -4.172  0.00  0.00    -0.327 N 
ATOM     26  C16 NON d   1     -39.842  22.620  -3.971  0.00  0.00     0.222 C 
ATOM     27  O3  NON d   1     -39.056  23.391  -4.529  0.00  0.00    -0.273 OA
ATOM     28  H17 NON d   1     -38.852  21.136  -4.785  0.00  0.00     0.169 HD
BRANCH  26  29
ATOM     29  C17 NON d   1     -40.969  23.147  -3.101  0.00  0.00     0.103 C 
BRANCH  29  30
ATOM     30  C18 NON d   1     -40.564  23.917  -1.831  0.00  0.00     0.009 C 
BRANCH  30  31
ATOM     31  C19 NON d   1     -40.959  23.274  -0.492  0.00  0.00     0.000 C 
BRANCH  31  32
ATOM     32  C20 NON d   1     -40.862  24.228   0.698  0.00  0.00    -0.005 C 
ATOM     33  C21 NON d   1     -41.066  23.499   2.021  0.00  0.00     0.005 C 
ENDBRANCH  31  32
ENDBRANCH  30  31
ENDBRANCH  29  30
ENDBRANCH  26  29
ENDBRANCH  23  25
ENDBRANCH   1  19
TORSDOF 12
ENDMDL
MODEL 6
REMARK VINA RESULT:   -12.572      3.046      3.974
REMARK INTER + INTRA:         -17.816
REMARK INTER:                 -16.152
REMARK INTRA:                  -1.664
REMARK CONF_INDEPENDENT:        3.580
REMARK UNBOUND:                -1.664
REMARK  12 active torsions:
REMARK  status: ('A' for Active; 'I' for Inactive)
REMARK    1  A    between atoms: C2_2  and  C4_4 
REMARK    2  A    between atoms: C4_4  and  O1_5 
REMARK    3  A    between atoms: O1_5  and  C5_6 
REMARK    4  A    between atoms: C8_9  and  N1_10 
REMARK       I    between atoms: N1_10  and  C9_11 
REMARK    5  A    between atoms: C9_11  and  C10_13 
REMARK    6  A    between atoms: C10_13  and  N2_14 
REMARK    7  A    between atoms: N2_14  and  C11_15 
REMARK    8  A    between atoms: C15_19  and  N3_20 
REMARK       I    between atoms: N3_20  and  C16_21 
REMARK    9  A    between atoms: C16_21  and  C17_23 
REMARK   10  A    between atoms: C17_23  and  C18_24 
REMARK   11  A    between atoms: C18_24  and  C19_25 
REMARK   12  A    between atoms: C19_25  and  C20_26 
ROOT
ATOM      1  N2  NON d   1     -43.389  18.172  -4.745  0.00  0.00    -0.381 N 
ATOM      2  H13 NON d   1     -43.845  18.731  -5.467  0.00  0.00     0.160 HD
ENDROOT
BRANCH   1   3
ATOM      3  C10 NON d   1     -43.975  16.814  -4.615  0.00  0.00     0.223 C 
BRANCH   3   4
ATOM      4  C9  NON d   1     -45.540  16.798  -4.756  0.00  0.00     0.239 C 
ATOM      5  N1  NON d   1     -46.202  16.339  -3.605  0.00  0.00    -0.326 N 
ATOM      6  H10 NON d   1     -45.615  16.064  -2.829  0.00  0.00     0.169 HD
ATOM      7  O2  NON d   1     -46.084  17.116  -5.811  0.00  0.00    -0.271 OA
BRANCH   5   8
ATOM      8  C8  NON d   1     -47.611  16.197  -3.380  0.00  0.00     0.034 A 
ATOM      9  C7  NON d   1     -48.197  16.931  -2.336  0.00  0.00     0.032 A 
ATOM     10  C6  NON d   1     -49.586  16.853  -2.050  0.00  0.00     0.039 A 
ATOM     11  C5  NON d   1     -50.444  16.043  -2.802  0.00  0.00     0.069 A 
ATOM     12  C24 NON d   1     -49.860  15.312  -3.844  0.00  0.00     0.039 A 
ATOM     13  C23 NON d   1     -48.465  15.386  -4.126  0.00  0.00     0.032 A 
BRANCH  11  14
ATOM     14  O1  NON d   1     -51.788  16.055  -2.435  0.00  0.00    -0.347 OA
BRANCH  14  15
ATOM     15  C4  NON d   1     -52.256  17.243  -1.773  0.00  0.00     0.208 C 
BRANCH  15  16
ATOM     16  C2  NON d   1     -53.788  17.495  -1.676  0.00  0.00    -0.069 C 
ATOM     17  C1  NON d   1     -54.557  16.880  -2.600  0.00  0.00     0.016 C 
ATOM     18  C3  NON d   1     -54.475  18.421  -0.656  0.00  0.00     0.044 C 
ENDBRANCH  15  16
ENDBRANCH  14  15
ENDBRANCH  11  14
ENDBRANCH   5   8
ENDBRANCH   3   4
ENDBRANCH   1   3
BRANCH   1  19
ATOM     19  C11 NON d   1     -42.022  18.427  -4.569  0.00  0.00     0.030 A 
ATOM     20  C12 NON d   1     -41.481  18.843  -3.354  0.00  0.00     0.029 A 
ATOM     21  C13 NON d   1     -40.127  19.179  -3.235  0.00  0.00     0.004 A 
ATOM     22  C14 NON d   1     -39.274  19.140  -4.342  0.00  0.00     0.029 A 
ATOM     23  C15 NON d   1     -39.757  18.762  -5.587  0.00  0.00     0.036 A 
ATOM     24  C22 NON d   1     -41.137  18.415  -5.681  0.00  0.00     0.058 A 
BRANCH  23  25
ATOM     25  N3  NON d   1     -38.979  18.696  -6.770  0.00  0.00    -0.327 N 
ATOM     26  C16 NON d   1     -39.119  19.140  -8.067  0.00  0.00     0.222 C 
ATOM     27  O3  NON d   1     -38.186  18.914  -8.844  0.00  0.00    -0.273 OA
ATOM     28  H17 NON d   1     -38.084  18.226  -6.674  0.00  0.00     0.169 HD
BRANCH  26  29
ATOM     29  C17 NON d   1     -40.362  19.879  -8.531  0.00  0.00     0.103 C 
BRANCH  29  30
ATOM     30  C18 NON d   1     -40.483  21.358  -8.122  0.00  0.00     0.009 C 
BRANCH  30  31
ATOM     31  C19 NON d   1     -39.165  22.090  -7.824  0.00  0.00     0.000 C 
BRANCH  31  32
ATOM     32  C20 NON d   1     -39.142  22.776  -6.458  0.00  0.00    -0.005 C 
ATOM     33  C21 NON d   1     -40.298  22.316  -5.578  0.00  0.00     0.005 C 
ENDBRANCH  31  32
ENDBRANCH  30  31
ENDBRANCH  29  30
ENDBRANCH  26  29
ENDBRANCH  23  25
ENDBRANCH   1  19
TORSDOF 12
ENDMDL
MODEL 7
REMARK VINA RESULT:   -12.483      2.916      3.966
REMARK INTER + INTRA:         -17.428
REMARK INTER:                 -16.062
REMARK INTRA:                  -1.366
REMARK CONF_INDEPENDENT:        3.580
REMARK UNBOUND:                -1.366
REMARK  12 active torsions:
REMARK  status: ('A' for Active; 'I' for Inactive)
REMARK    1  A    between atoms: C2_2  and  C4_4 
REMARK    2  A    between atoms: C4_4  and  O1_5 
REMARK    3  A    between atoms: O1_5  and  C5_6 
REMARK    4  A    between atoms: C8_9  and  N1_10 
REMARK       I    between atoms: N1_10  and  C9_11 
REMARK    5  A    between atoms: C9_11  and  C10_13 
REMARK    6  A    between atoms: C10_13  and  N2_14 
REMARK    7  A    between atoms: N2_14  and  C11_15 
REMARK    8  A    between atoms: C15_19  and  N3_20 
REMARK       I    between atoms: N3_20  and  C16_21 
REMARK    9  A    between atoms: C16_21  and  C17_23 
REMARK   10  A    between atoms: C17_23  and  C18_24 
REMARK   11  A    between atoms: C18_24  and  C19_25 
REMARK   12  A    between atoms: C19_25  and  C20_26 
ROOT
ATOM      1  N2  NON d   1     -43.322  17.663  -3.771  0.00  0.00    -0.381 N 
ATOM      2  H13 NON d   1     -44.037  18.197  -3.276  0.00  0.00     0.160 HD
ENDROOT
BRANCH   1   3
ATOM      3  C10 NON d   1     -43.895  16.709  -4.753  0.00  0.00     0.223 C 
BRANCH   3   4
ATOM      4  C9  NON d   1     -45.463  16.773  -4.838  0.00  0.00     0.239 C 
ATOM      5  N1  NON d   1     -46.109  16.182  -3.739  0.00  0.00    -0.326 N 
ATOM      6  H10 NON d   1     -45.511  15.778  -3.031  0.00  0.00     0.169 HD
ATOM      7  O2  NON d   1     -46.024  17.258  -5.817  0.00  0.00    -0.271 OA
BRANCH   5   8
ATOM      8  C8  NON d   1     -47.515  16.065  -3.485  0.00  0.00     0.034 A 
ATOM      9  C7  NON d   1     -48.054  16.754  -2.386  0.00  0.00     0.032 A 
ATOM     10  C6  NON d   1     -49.437  16.696  -2.069  0.00  0.00     0.039 A 
ATOM     11  C5  NON d   1     -50.336  15.953  -2.842  0.00  0.00     0.069 A 
ATOM     12  C24 NON d   1     -49.798  15.267  -3.938  0.00  0.00     0.039 A 
ATOM     13  C23 NON d   1     -48.409  15.320  -4.253  0.00  0.00     0.032 A 
BRANCH  11  14
ATOM     14  O1  NON d   1     -51.669  15.980  -2.439  0.00  0.00    -0.347 OA
BRANCH  14  15
ATOM     15  C4  NON d   1     -52.180  17.255  -2.012  0.00  0.00     0.208 C 
BRANCH  15  16
ATOM     16  C2  NON d   1     -53.686  17.376  -1.643  0.00  0.00    -0.069 C 
ATOM     17  C1  NON d   1     -54.561  16.810  -2.502  0.00  0.00     0.016 C 
ATOM     18  C3  NON d   1     -54.246  18.127  -0.421  0.00  0.00     0.044 C 
ENDBRANCH  15  16
ENDBRANCH  14  15
ENDBRANCH  11  14
ENDBRANCH   5   8
ENDBRANCH   3   4
ENDBRANCH   1   3
BRANCH   1  19
ATOM     19  C11 NON d   1     -42.116  18.344  -3.992  0.00  0.00     0.030 A 
ATOM     20  C12 NON d   1     -41.948  19.266  -5.024  0.00  0.00     0.029 A 
ATOM     21  C13 NON d   1     -40.705  19.859  -5.277  0.00  0.00     0.004 A 
ATOM     22  C14 NON d   1     -39.578  19.523  -4.520  0.00  0.00     0.029 A 
ATOM     23  C15 NON d   1     -39.673  18.591  -3.496  0.00  0.00     0.036 A 
ATOM     24  C22 NON d   1     -40.951  18.008  -3.253  0.00  0.00     0.058 A 
BRANCH  23  25
ATOM     25  N3  NON d   1     -38.592  18.178  -2.678  0.00  0.00    -0.327 N 
ATOM     26  C16 NON d   1     -37.245  17.951  -2.866  0.00  0.00     0.222 C 
ATOM     27  O3  NON d   1     -36.587  17.614  -1.876  0.00  0.00    -0.273 OA
ATOM     28  H17 NON d   1     -38.825  18.011  -1.704  0.00  0.00     0.169 HD
BRANCH  26  29
ATOM     29  C17 NON d   1     -36.588  18.108  -4.225  0.00  0.00     0.103 C 
BRANCH  29  30
ATOM     30  C18 NON d   1     -36.471  19.540  -4.778  0.00  0.00     0.009 C 
BRANCH  30  31
ATOM     31  C19 NON d   1     -36.872  19.734  -6.250  0.00  0.00     0.000 C 
BRANCH  31  32
ATOM     32  C20 NON d   1     -36.899  18.434  -7.053  0.00  0.00    -0.005 C 
ATOM     33  C21 NON d   1     -38.126  18.354  -7.953  0.00  0.00     0.005 C 
ENDBRANCH  31  32
ENDBRANCH  30  31
ENDBRANCH  29  30
ENDBRANCH  26  29
ENDBRANCH  23  25
ENDBRANCH   1  19
TORSDOF 12
ENDMDL
MODEL 8
REMARK VINA RESULT:   -11.629      3.119      6.397
REMARK INTER + INTRA:         -17.595
REMARK INTER:                 -15.209
REMARK INTRA:                  -2.386
REMARK CONF_INDEPENDENT:        3.580
REMARK UNBOUND:                -2.386
REMARK  12 active torsions:
REMARK  status: ('A' for Active; 'I' for Inactive)
REMARK    1  A    between atoms: C2_2  and  C4_4 
REMARK    2  A    between atoms: C4_4  and  O1_5 
REMARK    3  A    between atoms: O1_5  and  C5_6 
REMARK    4  A    between atoms: C8_9  and  N1_10 
REMARK       I    between atoms: N1_10  and  C9_11 
REMARK    5  A    between atoms: C9_11  and  C10_13 
REMARK    6  A    between atoms: C10_13  and  N2_14 
REMARK    7  A    between atoms: N2_14  and  C11_15 
REMARK    8  A    between atoms: C15_19  and  N3_20 
REMARK       I    between atoms: N3_20  and  C16_21 
REMARK    9  A    between atoms: C16_21  and  C17_23 
REMARK   10  A    between atoms: C17_23  and  C18_24 
REMARK   11  A    between atoms: C18_24  and  C19_25 
REMARK   12  A    between atoms: C19_25  and  C20_26 
ROOT
ATOM      1  N2  NON d   1     -38.900  19.553  -2.208  0.00  0.00    -0.381 N 
ATOM      2  H13 NON d   1     -38.561  19.652  -1.251  0.00  0.00     0.160 HD
ENDROOT
BRANCH   1   3
ATOM      3  C10 NON d   1     -39.382  18.181  -2.507  0.00  0.00     0.223 C 
BRANCH   3   4
ATOM      4  C9  NON d   1     -40.945  18.089  -2.643  0.00  0.00     0.239 C 
ATOM      5  N1  NON d   1     -41.389  18.027  -3.975  0.00  0.00    -0.326 N 
ATOM      6  H10 NON d   1     -40.674  18.059  -4.688  0.00  0.00     0.169 HD
ATOM      7  O2  NON d   1     -41.669  18.124  -1.651  0.00  0.00    -0.271 OA
BRANCH   5   8
ATOM      8  C8  NON d   1     -42.733  17.934  -4.465  0.00  0.00     0.034 A 
ATOM      9  C7  NON d   1     -43.370  16.683  -4.428  0.00  0.00     0.032 A 
ATOM     10  C6  NON d   1     -44.702  16.505  -4.889  0.00  0.00     0.039 A 
ATOM     11  C5  NON d   1     -45.450  17.572  -5.398  0.00  0.00     0.069 A 
ATOM     12  C24 NON d   1     -44.814  18.819  -5.435  0.00  0.00     0.039 A 
ATOM     13  C23 NON d   1     -43.476  18.997  -4.978  0.00  0.00     0.032 A 
BRANCH  11  14
ATOM     14  O1  NON d   1     -46.748  17.278  -5.810  0.00  0.00    -0.347 OA
BRANCH  14  15
ATOM     15  C4  NON d   1     -47.266  15.995  -5.418  0.00  0.00     0.208 C 
BRANCH  15  16
ATOM     16  C2  NON d   1     -48.093  15.887  -4.106  0.00  0.00    -0.069 C 
ATOM     17  C1  NON d   1     -49.123  15.014  -4.116  0.00  0.00     0.016 C 
ATOM     18  C3  NON d   1     -47.862  16.728  -2.836  0.00  0.00     0.044 C 
ENDBRANCH  15  16
ENDBRANCH  14  15
ENDBRANCH  11  14
ENDBRANCH   5   8
ENDBRANCH   3   4
ENDBRANCH   1   3
BRANCH   1  19
ATOM     19  C11 NON d   1     -39.496  20.700  -2.752  0.00  0.00     0.030 A 
ATOM     20  C12 NON d   1     -40.138  21.660  -1.971  0.00  0.00     0.029 A 
ATOM     21  C13 NON d   1     -40.804  22.746  -2.551  0.00  0.00     0.004 A 
ATOM     22  C14 NON d   1     -40.877  22.889  -3.940  0.00  0.00     0.029 A 
ATOM     23  C15 NON d   1     -40.283  21.952  -4.774  0.00  0.00     0.036 A 
ATOM     24  C22 NON d   1     -39.602  20.861  -4.159  0.00  0.00     0.058 A 
BRANCH  23  25
ATOM     25  N3  NON d   1     -40.305  22.003  -6.190  0.00  0.00    -0.327 N 
ATOM     26  C16 NON d   1     -40.586  21.111  -7.203  0.00  0.00     0.222 C 
ATOM     27  O3  NON d   1     -40.525  21.537  -8.361  0.00  0.00    -0.273 OA
ATOM     28  H17 NON d   1     -40.077  22.906  -6.595  0.00  0.00     0.169 HD
BRANCH  26  29
ATOM     29  C17 NON d   1     -40.956  19.667  -6.919  0.00  0.00     0.103 C 
BRANCH  29  30
ATOM     30  C18 NON d   1     -39.792  18.681  -6.706  0.00  0.00     0.009 C 
BRANCH  30  31
ATOM     31  C19 NON d   1     -38.413  19.142  -7.204  0.00  0.00     0.000 C 
BRANCH  31  32
ATOM     32  C20 NON d   1     -37.921  18.382  -8.435  0.00  0.00    -0.005 C 
ATOM     33  C21 NON d   1     -36.594  18.932  -8.944  0.00  0.00     0.005 C 
ENDBRANCH  31  32
ENDBRANCH  30  31
ENDBRANCH  29  30
ENDBRANCH  26  29
ENDBRANCH  23  25
ENDBRANCH   1  19
TORSDOF 12
ENDMDL
MODEL 9
REMARK VINA RESULT:   -11.370      2.752      5.518
REMARK INTER + INTRA:         -17.138
REMARK INTER:                 -14.950
REMARK INTRA:                  -2.188
REMARK CONF_INDEPENDENT:        3.580
REMARK UNBOUND:                -2.188
REMARK  12 active torsions:
REMARK  status: ('A' for Active; 'I' for Inactive)
REMARK    1  A    between atoms: C2_2  and  C4_4 
REMARK    2  A    between atoms: C4_4  and  O1_5 
REMARK    3  A    between atoms: O1_5  and  C5_6 
REMARK    4  A    between atoms: C8_9  and  N1_10 
REMARK       I    between atoms: N1_10  and  C9_11 
REMARK    5  A    between atoms: C9_11  and  C10_13 
REMARK    6  A    between atoms: C10_13  and  N2_14 
REMARK    7  A    between atoms: N2_14  and  C11_15 
REMARK    8  A    between atoms: C15_19  and  N3_20 
REMARK       I    between atoms: N3_20  and  C16_21 
REMARK    9  A    between atoms: C16_21  and  C17_23 
REMARK   10  A    between atoms: C17_23  and  C18_24 
REMARK   11  A    between atoms: C18_24  and  C19_25 
REMARK   12  A    between atoms: C19_25  and  C20_26 
ROOT
ATOM      1  N2  NON d   1     -38.763  20.074  -1.649  0.00  0.00    -0.381 N 
ATOM      2  H13 NON d   1     -38.954  19.282  -1.034  0.00  0.00     0.160 HD
ENDROOT
BRANCH   1   3
ATOM      3  C10 NON d   1     -39.466  19.970  -2.952  0.00  0.00     0.223 C 
BRANCH   3   4
ATOM      4  C9  NON d   1     -40.766  19.090  -2.887  0.00  0.00     0.239 C 
ATOM      5  N1  NON d   1     -41.525  19.122  -4.069  0.00  0.00    -0.326 N 
ATOM      6  H10 NON d   1     -41.169  19.705  -4.815  0.00  0.00     0.169 HD
ATOM      7  O2  NON d   1     -41.073  18.490  -1.860  0.00  0.00    -0.271 OA
BRANCH   5   8
ATOM      8  C8  NON d   1     -42.754  18.443  -4.362  0.00  0.00     0.034 A 
ATOM      9  C7  NON d   1     -43.734  19.128  -5.098  0.00  0.00     0.032 A 
ATOM     10  C6  NON d   1     -44.976  18.526  -5.435  0.00  0.00     0.039 A 
ATOM     11  C5  NON d   1     -45.282  17.215  -5.055  0.00  0.00     0.069 A 
ATOM     12  C24 NON d   1     -44.304  16.533  -4.321  0.00  0.00     0.039 A 
ATOM     13  C23 NON d   1     -43.060  17.139  -3.977  0.00  0.00     0.032 A 
BRANCH  11  14
ATOM     14  O1  NON d   1     -46.526  16.729  -5.451  0.00  0.00    -0.347 OA
BRANCH  14  15
ATOM     15  C4  NON d   1     -47.062  15.643  -4.676  0.00  0.00     0.208 C 
BRANCH  15  16
ATOM     16  C2  NON d   1     -48.156  15.948  -3.612  0.00  0.00    -0.069 C 
ATOM     17  C1  NON d   1     -47.822  16.828  -2.644  0.00  0.00     0.016 C 
ATOM     18  C3  NON d   1     -49.546  15.289  -3.551  0.00  0.00     0.044 C 
ENDBRANCH  15  16
ENDBRANCH  14  15
ENDBRANCH  11  14
ENDBRANCH   5   8
ENDBRANCH   3   4
ENDBRANCH   1   3
BRANCH   1  19
ATOM     19  C11 NON d   1     -38.553  21.298  -0.997  0.00  0.00     0.030 A 
ATOM     20  C12 NON d   1     -37.438  22.099  -1.236  0.00  0.00     0.029 A 
ATOM     21  C13 NON d   1     -37.209  23.269  -0.502  0.00  0.00     0.004 A 
ATOM     22  C14 NON d   1     -38.078  23.659   0.522  0.00  0.00     0.029 A 
ATOM     23  C15 NON d   1     -39.191  22.889   0.829  0.00  0.00     0.036 A 
ATOM     24  C22 NON d   1     -39.407  21.708   0.062  0.00  0.00     0.058 A 
BRANCH  23  25
ATOM     25  N3  NON d   1     -40.127  23.193   1.850  0.00  0.00    -0.327 N 
ATOM     26  C16 NON d   1     -40.829  24.313   2.240  0.00  0.00     0.222 C 
ATOM     27  O3  NON d   1     -41.603  24.189   3.195  0.00  0.00    -0.273 OA
ATOM     28  H17 NON d   1     -40.376  22.417   2.454  0.00  0.00     0.169 HD
BRANCH  26  29
ATOM     29  C17 NON d   1     -40.667  25.647   1.534  0.00  0.00     0.103 C 
BRANCH  29  30
ATOM     30  C18 NON d   1     -41.440  25.832   0.215  0.00  0.00     0.009 C 
BRANCH  30  31
ATOM     31  C19 NON d   1     -40.669  25.508  -1.075  0.00  0.00     0.000 C 
BRANCH  31  32
ATOM     32  C20 NON d   1     -41.064  24.173  -1.705  0.00  0.00    -0.005 C 
ATOM     33  C21 NON d   1     -40.685  24.114  -3.180  0.00  0.00     0.005 C 
ENDBRANCH  31  32
ENDBRANCH  30  31
ENDBRANCH  29  30
ENDBRANCH  26  29
ENDBRANCH  23  25
ENDBRANCH   1  19
TORSDOF 12
ENDMDL
