MODEL 1
REMARK VINA RESULT:   -16.426      0.000      0.000
REMARK INTER + INTRA:         -22.399
REMARK INTER:                 -20.900
REMARK INTRA:                  -1.499
REMARK CONF_INDEPENDENT:        4.474
REMARK UNBOUND:                -1.499
REMARK  15 active torsions:
REMARK  status: ('A' for Active; 'I' for Inactive)
REMARK    1  A    between atoms: C2_2  and  N1_3 
REMARK       I    between atoms: N1_3  and  C3_4 
REMARK    2  A    between atoms: N1_3  and  C25_33 
REMARK    3  A    between atoms: C3_4  and  C4_6 
REMARK    4  A    between atoms: C7_9  and  N2_10 
REMARK    5  A    between atoms: N2_10  and  C8_11 
REMARK    6  A    between atoms: C8_11  and  N3_13 
REMARK       I    between atoms: N3_13  and  C9_14 
REMARK    7  A    between atoms: C9_14  and  C10_16 
REMARK    8  A    between atoms: C10_16  and  C11_17 
REMARK    9  A    between atoms: C11_17  and  C12_18 
REMARK   10  A    between atoms: C12_18  and  C13_19 
REMARK   11  A    between atoms: C13_19  and  O4_21 
REMARK   12  A    between atoms: O4_21  and  C14_22 
REMARK   13  A    between atoms: C14_22  and  C15_23 
REMARK   14  A    between atoms: C15_23  and  C16_24 
REMARK   15  A    between atoms: C16_24  and  C17_25 
ROOT
ATOM      1  C8  NON d   1     -45.687  16.884  -4.211  0.00  0.00     0.178 C 
ATOM      2  S1  NON d   1     -46.079  17.248  -5.808  0.00  0.00    -0.040 SA
ENDROOT
BRANCH   1   3
ATOM      3  N2  NON d   1     -44.406  16.939  -3.655  0.00  0.00    -0.333 N 
ATOM      4  H8  NON d   1     -44.209  16.326  -2.876  0.00  0.00     0.168 HD
BRANCH   3   5
ATOM      5  C7  NON d   1     -43.334  17.755  -4.087  0.00  0.00     0.034 A 
ATOM      6  C6  NON d   1     -43.526  18.724  -5.067  0.00  0.00     0.030 A 
ATOM      7  C5  NON d   1     -42.463  19.579  -5.439  0.00  0.00     0.019 A 
ATOM      8  C4  NON d   1     -41.166  19.472  -4.887  0.00  0.00     0.032 A 
ATOM      9  C24 NON d   1     -40.993  18.398  -4.005  0.00  0.00     0.019 A 
ATOM     10  C23 NON d   1     -42.048  17.568  -3.608  0.00  0.00     0.030 A 
BRANCH   8  11
ATOM     11  C3  NON d   1     -40.130  20.531  -5.329  0.00  0.00     0.258 C 
ATOM     12  N1  NON d   1     -39.576  20.635  -6.660  0.00  0.00    -0.314 N 
ATOM     13  O1  NON d   1     -39.759  21.264  -4.404  0.00  0.00    -0.267 OA
BRANCH  12  14
ATOM     14  C2  NON d   1     -40.018  19.667  -7.647  0.00  0.00     0.128 C 
ATOM     15  C1  NON d   1     -39.307  18.356  -8.031  0.00  0.00     0.027 C 
ENDBRANCH  12  14
BRANCH  12  16
ATOM     16  C25 NON d   1     -38.661  21.715  -7.033  0.00  0.00     0.037 A 
ATOM     17  C26 NON d   1     -37.272  21.528  -7.156  0.00  0.00     0.029 A 
ATOM     18  C27 NON d   1     -36.404  22.527  -7.625  0.00  0.00     0.002 A 
ATOM     19  C28 NON d   1     -36.892  23.789  -7.917  0.00  0.00     0.000 A 
ATOM     20  C29 NON d   1     -38.243  24.041  -7.735  0.00  0.00     0.002 A 
ATOM     21  C30 NON d   1     -39.112  23.016  -7.316  0.00  0.00     0.029 A 
ENDBRANCH  12  16
ENDBRANCH   8  11
ENDBRANCH   3   5
ENDBRANCH   1   3
BRANCH   1  22
ATOM     22  N3  NON d   1     -46.608  16.348  -3.322  0.00  0.00    -0.304 N 
ATOM     23  C9  NON d   1     -47.927  16.140  -3.697  0.00  0.00     0.223 C 
ATOM     24  O2  NON d   1     -48.702  17.070  -3.909  0.00  0.00    -0.273 OA
ATOM     25  H9  NON d   1     -46.202  15.583  -2.803  0.00  0.00     0.171 HD
BRANCH  23  26
ATOM     26  C10 NON d   1     -48.371  14.688  -3.607  0.00  0.00     0.103 C 
BRANCH  26  27
ATOM     27  C11 NON d   1     -49.662  14.449  -2.812  0.00  0.00     0.019 C 
BRANCH  27  28
ATOM     28  C12 NON d   1     -50.831  15.356  -3.219  0.00  0.00     0.111 C 
BRANCH  28  29
ATOM     29  C13 NON d   1     -51.014  16.582  -2.348  0.00  0.00     0.258 C 
ATOM     30  O3  NON d   1     -50.261  16.931  -1.457  0.00  0.00    -0.265 OA
BRANCH  29  31
ATOM     31  O4  NON d   1     -52.164  17.222  -2.700  0.00  0.00    -0.321 OA
BRANCH  31  32
ATOM     32  C14 NON d   1     -53.357  16.469  -2.418  0.00  0.00     0.179 C 
BRANCH  32  33
ATOM     33  C15 NON d   1     -54.563  17.370  -2.669  0.00  0.00     0.031 C 
BRANCH  33  34
ATOM     34  C16 NON d   1     -55.073  18.062  -1.399  0.00  0.00     0.041 C 
BRANCH  34  35
ATOM     35  C17 NON d   1     -54.079  18.852  -0.573  0.00  0.00    -0.058 A 
ATOM     36  C18 NON d   1     -52.867  18.333  -0.100  0.00  0.00     0.007 A 
ATOM     37  C19 NON d   1     -51.998  19.120   0.659  0.00  0.00     0.001 A 
ATOM     38  C20 NON d   1     -52.315  20.446   0.939  0.00  0.00     0.000 A 
ATOM     39  C21 NON d   1     -53.504  20.987   0.458  0.00  0.00     0.001 A 
ATOM     40  C22 NON d   1     -54.380  20.196  -0.290  0.00  0.00     0.007 A 
ENDBRANCH  34  35
ENDBRANCH  33  34
ENDBRANCH  32  33
ENDBRANCH  31  32
ENDBRANCH  29  31
ENDBRANCH  28  29
ENDBRANCH  27  28
ENDBRANCH  26  27
ENDBRANCH  23  26
ENDBRANCH   1  22
TORSDOF 15
ENDMDL
MODEL 2
REMARK VINA RESULT:   -16.173      1.397      2.051
REMARK INTER + INTRA:         -22.063
REMARK INTER:                 -20.648
REMARK INTRA:                  -1.415
REMARK CONF_INDEPENDENT:        4.474
REMARK UNBOUND:                -1.415
REMARK  15 active torsions:
REMARK  status: ('A' for Active; 'I' for Inactive)
REMARK    1  A    between atoms: C2_2  and  N1_3 
REMARK       I    between atoms: N1_3  and  C3_4 
REMARK    2  A    between atoms: N1_3  and  C25_33 
REMARK    3  A    between atoms: C3_4  and  C4_6 
REMARK    4  A    between atoms: C7_9  and  N2_10 
REMARK    5  A    between atoms: N2_10  and  C8_11 
REMARK    6  A    between atoms: C8_11  and  N3_13 
REMARK       I    between atoms: N3_13  and  C9_14 
REMARK    7  A    between atoms: C9_14  and  C10_16 
REMARK    8  A    between atoms: C10_16  and  C11_17 
REMARK    9  A    between atoms: C11_17  and  C12_18 
REMARK   10  A    between atoms: C12_18  and  C13_19 
REMARK   11  A    between atoms: C13_19  and  O4_21 
REMARK   12  A    between atoms: O4_21  and  C14_22 
REMARK   13  A    between atoms: C14_22  and  C15_23 
REMARK   14  A    between atoms: C15_23  and  C16_24 
REMARK   15  A    between atoms: C16_24  and  C17_25 
ROOT
ATOM      1  C8  NON d   1     -45.703  16.977  -4.210  0.00  0.00     0.178 C 
ATOM      2  S1  NON d   1     -45.940  17.448  -5.810  0.00  0.00    -0.040 SA
ENDROOT
BRANCH   1   3
ATOM      3  N2  NON d   1     -44.467  16.880  -3.565  0.00  0.00    -0.333 N 
ATOM      4  H8  NON d   1     -44.379  16.197  -2.825  0.00  0.00     0.168 HD
BRANCH   3   5
ATOM      5  C7  NON d   1     -43.303  17.628  -3.858  0.00  0.00     0.034 A 
ATOM      6  C6  NON d   1     -43.181  18.316  -5.061  0.00  0.00     0.030 A 
ATOM      7  C5  NON d   1     -42.042  19.116  -5.311  0.00  0.00     0.019 A 
ATOM      8  C4  NON d   1     -40.968  19.224  -4.398  0.00  0.00     0.032 A 
ATOM      9  C24 NON d   1     -41.080  18.410  -3.265  0.00  0.00     0.019 A 
ATOM     10  C23 NON d   1     -42.218  17.640  -2.996  0.00  0.00     0.030 A 
BRANCH   8  11
ATOM     11  C3  NON d   1     -39.832  20.203  -4.772  0.00  0.00     0.258 C 
ATOM     12  N1  NON d   1     -39.863  21.630  -4.538  0.00  0.00    -0.314 N 
ATOM     13  O1  NON d   1     -38.893  19.655  -5.362  0.00  0.00    -0.267 OA
BRANCH  12  14
ATOM     14  C2  NON d   1     -41.054  22.179  -3.917  0.00  0.00     0.128 C 
ATOM     15  C1  NON d   1     -41.441  23.667  -3.829  0.00  0.00     0.027 C 
ENDBRANCH  12  14
BRANCH  12  16
ATOM     16  C25 NON d   1     -38.716  22.486  -4.841  0.00  0.00     0.037 A 
ATOM     17  C26 NON d   1     -38.550  23.124  -6.084  0.00  0.00     0.029 A 
ATOM     18  C27 NON d   1     -37.516  24.038  -6.343  0.00  0.00     0.002 A 
ATOM     19  C28 NON d   1     -36.555  24.290  -5.379  0.00  0.00     0.000 A 
ATOM     20  C29 NON d   1     -36.636  23.624  -4.167  0.00  0.00     0.002 A 
ATOM     21  C30 NON d   1     -37.707  22.750  -3.899  0.00  0.00     0.029 A 
ENDBRANCH  12  16
ENDBRANCH   8  11
ENDBRANCH   3   5
ENDBRANCH   1   3
BRANCH   1  22
ATOM     22  N3  NON d   1     -46.734  16.497  -3.415  0.00  0.00    -0.304 N 
ATOM     23  C9  NON d   1     -47.997  16.270  -3.941  0.00  0.00     0.223 C 
ATOM     24  O2  NON d   1     -48.730  17.187  -4.304  0.00  0.00    -0.273 OA
ATOM     25  H9  NON d   1     -46.404  15.764  -2.804  0.00  0.00     0.171 HD
BRANCH  23  26
ATOM     26  C10 NON d   1     -48.463  14.826  -3.823  0.00  0.00     0.103 C 
BRANCH  26  27
ATOM     27  C11 NON d   1     -49.618  14.594  -2.839  0.00  0.00     0.019 C 
BRANCH  27  28
ATOM     28  C12 NON d   1     -50.905  15.352  -3.185  0.00  0.00     0.111 C 
BRANCH  28  29
ATOM     29  C13 NON d   1     -51.143  16.603  -2.365  0.00  0.00     0.258 C 
ATOM     30  O3  NON d   1     -50.436  16.992  -1.453  0.00  0.00    -0.265 OA
BRANCH  29  31
ATOM     31  O4  NON d   1     -52.284  17.215  -2.789  0.00  0.00    -0.321 OA
BRANCH  31  32
ATOM     32  C14 NON d   1     -53.487  16.511  -2.436  0.00  0.00     0.179 C 
BRANCH  32  33
ATOM     33  C15 NON d   1     -54.678  17.421  -2.720  0.00  0.00     0.031 C 
BRANCH  33  34
ATOM     34  C16 NON d   1     -55.208  18.130  -1.467  0.00  0.00     0.041 C 
BRANCH  34  35
ATOM     35  C17 NON d   1     -54.225  18.924  -0.632  0.00  0.00    -0.058 A 
ATOM     36  C18 NON d   1     -54.433  20.249  -0.228  0.00  0.00     0.007 A 
ATOM     37  C19 NON d   1     -53.481  20.922   0.541  0.00  0.00     0.001 A 
ATOM     38  C20 NON d   1     -52.315  20.274   0.939  0.00  0.00     0.000 A 
ATOM     39  C21 NON d   1     -52.100  18.949   0.567  0.00  0.00     0.001 A 
ATOM     40  C22 NON d   1     -53.048  18.281  -0.213  0.00  0.00     0.007 A 
ENDBRANCH  34  35
ENDBRANCH  33  34
ENDBRANCH  32  33
ENDBRANCH  31  32
ENDBRANCH  29  31
ENDBRANCH  28  29
ENDBRANCH  27  28
ENDBRANCH  26  27
ENDBRANCH  23  26
ENDBRANCH   1  22
TORSDOF 15
ENDMDL
MODEL 3
REMARK VINA RESULT:   -14.494      3.166      5.343
REMARK INTER + INTRA:         -20.540
REMARK INTER:                 -18.969
REMARK INTRA:                  -1.571
REMARK CONF_INDEPENDENT:        4.474
REMARK UNBOUND:                -1.571
REMARK  15 active torsions:
REMARK  status: ('A' for Active; 'I' for Inactive)
REMARK    1  A    between atoms: C2_2  and  N1_3 
REMARK       I    between atoms: N1_3  and  C3_4 
REMARK    2  A    between atoms: N1_3  and  C25_33 
REMARK    3  A    between atoms: C3_4  and  C4_6 
REMARK    4  A    between atoms: C7_9  and  N2_10 
REMARK    5  A    between atoms: N2_10  and  C8_11 
REMARK    6  A    between atoms: C8_11  and  N3_13 
REMARK       I    between atoms: N3_13  and  C9_14 
REMARK    7  A    between atoms: C9_14  and  C10_16 
REMARK    8  A    between atoms: C10_16  and  C11_17 
REMARK    9  A    between atoms: C11_17  and  C12_18 
REMARK   10  A    between atoms: C12_18  and  C13_19 
REMARK   11  A    between atoms: C13_19  and  O4_21 
REMARK   12  A    between atoms: O4_21  and  C14_22 
REMARK   13  A    between atoms: C14_22  and  C15_23 
REMARK   14  A    between atoms: C15_23  and  C16_24 
REMARK   15  A    between atoms: C16_24  and  C17_25 
ROOT
ATOM      1  C8  NON d   1     -40.068  18.835  -3.976  0.00  0.00     0.178 C 
ATOM      2  S1  NON d   1     -38.722  19.121  -3.004  0.00  0.00    -0.040 SA
ENDROOT
BRANCH   1   3
ATOM      3  N2  NON d   1     -40.055  18.711  -5.367  0.00  0.00    -0.333 N 
ATOM      4  H8  NON d   1     -39.975  17.779  -5.752  0.00  0.00     0.168 HD
BRANCH   3   5
ATOM      5  C7  NON d   1     -40.170  19.762  -6.308  0.00  0.00     0.034 A 
ATOM      6  C6  NON d   1     -40.145  21.091  -5.899  0.00  0.00     0.030 A 
ATOM      7  C5  NON d   1     -40.190  22.131  -6.856  0.00  0.00     0.019 A 
ATOM      8  C4  NON d   1     -40.306  21.888  -8.244  0.00  0.00     0.032 A 
ATOM      9  C24 NON d   1     -40.460  20.540  -8.591  0.00  0.00     0.019 A 
ATOM     10  C23 NON d   1     -40.385  19.504  -7.652  0.00  0.00     0.030 A 
BRANCH   8  11
ATOM     11  C3  NON d   1     -40.257  23.122  -9.174  0.00  0.00     0.258 C 
ATOM     12  N1  NON d   1     -39.706  23.125 -10.511  0.00  0.00    -0.314 N 
ATOM     13  O1  NON d   1     -40.685  24.151  -8.638  0.00  0.00    -0.267 OA
BRANCH  12  14
ATOM     14  C2  NON d   1     -39.150  21.879 -11.007  0.00  0.00     0.128 C 
ATOM     15  C1  NON d   1     -37.809  21.243 -10.596  0.00  0.00     0.027 C 
ENDBRANCH  12  14
BRANCH  12  16
ATOM     16  C25 NON d   1     -39.767  24.309 -11.368  0.00  0.00     0.037 A 
ATOM     17  C26 NON d   1     -40.541  24.359 -12.541  0.00  0.00     0.029 A 
ATOM     18  C27 NON d   1     -40.697  25.527 -13.305  0.00  0.00     0.002 A 
ATOM     19  C28 NON d   1     -40.012  26.680 -12.960  0.00  0.00     0.000 A 
ATOM     20  C29 NON d   1     -39.176  26.652 -11.855  0.00  0.00     0.002 A 
ATOM     21  C30 NON d   1     -39.070  25.491 -11.066  0.00  0.00     0.029 A 
ENDBRANCH  12  16
ENDBRANCH   8  11
ENDBRANCH   3   5
ENDBRANCH   1   3
BRANCH   1  22
ATOM     22  N3  NON d   1     -41.362  18.838  -3.474  0.00  0.00    -0.304 N 
ATOM     23  C9  NON d   1     -42.443  18.513  -4.281  0.00  0.00     0.223 C 
ATOM     24  O2  NON d   1     -42.817  19.239  -5.200  0.00  0.00    -0.273 OA
ATOM     25  H9  NON d   1     -41.393  18.420  -2.557  0.00  0.00     0.171 HD
BRANCH  23  26
ATOM     26  C10 NON d   1     -43.236  17.311  -3.792  0.00  0.00     0.103 C 
BRANCH  26  27
ATOM     27  C11 NON d   1     -44.113  16.633  -4.854  0.00  0.00     0.019 C 
BRANCH  27  28
ATOM     28  C12 NON d   1     -45.591  16.504  -4.464  0.00  0.00     0.111 C 
BRANCH  28  29
ATOM     29  C13 NON d   1     -46.569  16.898  -5.552  0.00  0.00     0.258 C 
ATOM     30  O3  NON d   1     -46.513  17.919  -6.212  0.00  0.00    -0.265 OA
BRANCH  29  31
ATOM     31  O4  NON d   1     -47.535  15.943  -5.662  0.00  0.00    -0.321 OA
BRANCH  31  32
ATOM     32  C14 NON d   1     -47.894  15.334  -4.410  0.00  0.00     0.179 C 
BRANCH  32  33
ATOM     33  C15 NON d   1     -48.924  16.224  -3.720  0.00  0.00     0.031 C 
BRANCH  33  34
ATOM     34  C16 NON d   1     -50.118  15.442  -3.159  0.00  0.00     0.041 C 
BRANCH  34  35
ATOM     35  C17 NON d   1     -51.220  16.224  -2.476  0.00  0.00    -0.058 A 
ATOM     36  C18 NON d   1     -50.994  17.255  -1.554  0.00  0.00     0.007 A 
ATOM     37  C19 NON d   1     -52.061  17.933  -0.960  0.00  0.00     0.001 A 
ATOM     38  C20 NON d   1     -53.372  17.609  -1.295  0.00  0.00     0.000 A 
ATOM     39  C21 NON d   1     -53.618  16.603  -2.226  0.00  0.00     0.001 A 
ATOM     40  C22 NON d   1     -52.550  15.916  -2.810  0.00  0.00     0.007 A 
ENDBRANCH  34  35
ENDBRANCH  33  34
ENDBRANCH  32  33
ENDBRANCH  31  32
ENDBRANCH  29  31
ENDBRANCH  28  29
ENDBRANCH  27  28
ENDBRANCH  26  27
ENDBRANCH  23  26
ENDBRANCH   1  22
TORSDOF 15
ENDMDL
