MODEL 1
REMARK VINA RESULT:   -11.097      0.000      0.000
REMARK INTER + INTRA:         -11.969
REMARK INTER:                 -11.694
REMARK INTRA:                  -0.275
REMARK CONF_INDEPENDENT:        0.597
REMARK UNBOUND:                -0.275
REMARK  2 active torsions:
REMARK  status: ('A' for Active; 'I' for Inactive)
REMARK       I    between atoms: C1_2  and  N1_3 
REMARK    1  A    between atoms: C1_2  and  C6_12 
REMARK    2  A    between atoms: N1_3  and  C2_4 
ROOT
ATOM      1  O1  NON d   1     -43.003  16.362  -5.170  0.00  0.00    -0.267 OA
ATOM      2  C1  NON d   1     -43.176  17.503  -4.742  0.00  0.00     0.259 C 
ATOM      3  N1  NON d   1     -44.406  17.942  -4.284  0.00  0.00    -0.309 N 
ATOM      4  H1  NON d   1     -44.467  18.896  -3.948  0.00  0.00     0.170 HD
ENDROOT
BRANCH   3   5
ATOM      5  C2  NON d   1     -45.566  17.204  -4.240  0.00  0.00     0.117 A 
ATOM      6  C3  NON d   1     -45.961  16.498  -5.305  0.00  0.00     0.123 A 
ATOM      7  C4  NON d   1     -47.210  15.717  -5.226  0.00  0.00     0.252 A 
ATOM      8  O2  NON d   1     -47.599  15.059  -6.185  0.00  0.00    -0.268 OA
ATOM      9  N2  NON d   1     -47.883  15.775  -4.042  0.00  0.00    -0.275 N 
ATOM     10  C5  NON d   1     -47.483  16.494  -2.952  0.00  0.00     0.328 A 
ATOM     11  H3  NON d   1     -48.740  15.251  -3.958  0.00  0.00     0.173 HD
ATOM     12  O3  NON d   1     -48.135  16.506  -1.913  0.00  0.00    -0.247 OA
ATOM     13  N3  NON d   1     -46.320  17.189  -3.103  0.00  0.00    -0.294 N 
ATOM     14  H4  NON d   1     -45.995  17.736  -2.307  0.00  0.00     0.172 HD
ENDBRANCH   3   5
BRANCH   2  15
ATOM     15  C6  NON d   1     -42.012  18.453  -4.717  0.00  0.00     0.055 A 
ATOM     16  C7  NON d   1     -41.755  19.124  -5.932  0.00  0.00     0.042 A 
ATOM     17  C8  NON d   1     -40.704  20.034  -6.048  0.00  0.00     0.035 A 
ATOM     18 Cl1  NON d   1     -40.423  20.833  -7.545  0.00  0.00    -0.084 Cl
ATOM     19  C9  NON d   1     -39.882  20.299  -4.961  0.00  0.00     0.025 A 
ATOM     20  C10 NON d   1     -40.118  19.647  -3.751  0.00  0.00     0.026 A 
ATOM     21  C11 NON d   1     -41.173  18.728  -3.621  0.00  0.00     0.049 A 
ATOM     22 Cl2  NON d   1     -41.332  18.005  -2.058  0.00  0.00    -0.083 Cl
ENDBRANCH   2  15
TORSDOF 2
ENDMDL
MODEL 2
REMARK VINA RESULT:   -10.833      0.705      1.864
REMARK INTER + INTRA:         -12.278
REMARK INTER:                 -11.429
REMARK INTRA:                  -0.848
REMARK CONF_INDEPENDENT:        0.597
REMARK UNBOUND:                -0.848
REMARK  2 active torsions:
REMARK  status: ('A' for Active; 'I' for Inactive)
REMARK       I    between atoms: C1_2  and  N1_3 
REMARK    1  A    between atoms: C1_2  and  C6_12 
REMARK    2  A    between atoms: N1_3  and  C2_4 
ROOT
ATOM      1  O1  NON d   1     -43.137  16.285  -5.435  0.00  0.00    -0.267 OA
ATOM      2  C1  NON d   1     -43.171  17.351  -4.821  0.00  0.00     0.259 C 
ATOM      3  N1  NON d   1     -44.310  17.795  -4.173  0.00  0.00    -0.309 N 
ATOM      4  H1  NON d   1     -44.256  18.684  -3.689  0.00  0.00     0.170 HD
ENDROOT
BRANCH   3   5
ATOM      5  C2  NON d   1     -45.519  17.142  -4.119  0.00  0.00     0.117 A 
ATOM      6  C3  NON d   1     -46.302  17.255  -3.040  0.00  0.00     0.123 A 
ATOM      7  C4  NON d   1     -47.594  16.542  -3.013  0.00  0.00     0.252 A 
ATOM      8  O2  NON d   1     -48.334  16.626  -2.039  0.00  0.00    -0.268 OA
ATOM      9  N2  NON d   1     -47.898  15.804  -4.118  0.00  0.00    -0.275 N 
ATOM     10  C5  NON d   1     -47.102  15.686  -5.220  0.00  0.00     0.328 A 
ATOM     11  H3  NON d   1     -48.774  15.306  -4.128  0.00  0.00     0.173 HD
ATOM     12  O3  NON d   1     -47.433  15.005  -6.185  0.00  0.00    -0.247 OA
ATOM     13  N3  NON d   1     -45.925  16.374  -5.170  0.00  0.00    -0.294 N 
ATOM     14  H4  NON d   1     -45.308  16.306  -5.979  0.00  0.00     0.172 HD
ENDBRANCH   3   5
BRANCH   2  15
ATOM     15  C6  NON d   1     -41.932  18.200  -4.775  0.00  0.00     0.055 A 
ATOM     16  C7  NON d   1     -41.501  18.707  -6.020  0.00  0.00     0.042 A 
ATOM     17  C8  NON d   1     -40.365  19.509  -6.121  0.00  0.00     0.035 A 
ATOM     18 Cl1  NON d   1     -39.871  20.108  -7.656  0.00  0.00    -0.084 Cl
ATOM     19  C9  NON d   1     -39.628  19.829  -4.988  0.00  0.00     0.025 A 
ATOM     20  C10 NON d   1     -40.036  19.340  -3.748  0.00  0.00     0.026 A 
ATOM     21  C11 NON d   1     -41.179  18.531  -3.633  0.00  0.00     0.049 A 
ATOM     22 Cl2  NON d   1     -41.551  18.005  -2.027  0.00  0.00    -0.083 Cl
ENDBRANCH   2  15
TORSDOF 2
ENDMDL
MODEL 3
REMARK VINA RESULT:    -9.778      1.683      3.135
REMARK INTER + INTRA:         -10.524
REMARK INTER:                 -10.375
REMARK INTRA:                  -0.149
REMARK CONF_INDEPENDENT:        0.597
REMARK UNBOUND:                -0.149
REMARK  2 active torsions:
REMARK  status: ('A' for Active; 'I' for Inactive)
REMARK       I    between atoms: C1_2  and  N1_3 
REMARK    1  A    between atoms: C1_2  and  C6_12 
REMARK    2  A    between atoms: N1_3  and  C2_4 
ROOT
ATOM      1  O1  NON d   1     -43.122  17.913  -2.357  0.00  0.00    -0.267 OA
ATOM      2  C1  NON d   1     -42.743  17.782  -3.521  0.00  0.00     0.259 C 
ATOM      3  N1  NON d   1     -43.572  17.300  -4.518  0.00  0.00    -0.309 N 
ATOM      4  H1  NON d   1     -43.185  17.221  -5.452  0.00  0.00     0.170 HD
ENDROOT
BRANCH   3   5
ATOM      5  C2  NON d   1     -44.884  16.915  -4.367  0.00  0.00     0.117 A 
ATOM      6  C3  NON d   1     -45.569  17.259  -3.271  0.00  0.00     0.123 A 
ATOM      7  C4  NON d   1     -46.975  16.830  -3.139  0.00  0.00     0.252 A 
ATOM      8  O2  NON d   1     -47.630  17.130  -2.147  0.00  0.00    -0.268 OA
ATOM      9  N2  NON d   1     -47.480  16.098  -4.171  0.00  0.00    -0.275 N 
ATOM     10  C5  NON d   1     -46.785  15.744  -5.291  0.00  0.00     0.328 A 
ATOM     11  H3  NON d   1     -48.439  15.790  -4.109  0.00  0.00     0.173 HD
ATOM     12  O3  NON d   1     -47.298  15.082  -6.187  0.00  0.00    -0.247 OA
ATOM     13  N3  NON d   1     -45.492  16.178  -5.340  0.00  0.00    -0.294 N 
ATOM     14  H4  NON d   1     -44.946  15.930  -6.164  0.00  0.00     0.172 HD
ENDBRANCH   3   5
BRANCH   2  15
ATOM     15  C6  NON d   1     -41.330  18.156  -3.870  0.00  0.00     0.055 A 
ATOM     16  C7  NON d   1     -40.344  17.690  -2.973  0.00  0.00     0.042 A 
ATOM     17  C8  NON d   1     -38.992  17.965  -3.178  0.00  0.00     0.035 A 
ATOM     18 Cl1  NON d   1     -37.820  17.380  -2.063  0.00  0.00    -0.084 Cl
ATOM     19  C9  NON d   1     -38.586  18.710  -4.277  0.00  0.00     0.025 A 
ATOM     20  C10 NON d   1     -39.543  19.181  -5.174  0.00  0.00     0.026 A 
ATOM     21  C11 NON d   1     -40.908  18.910  -4.980  0.00  0.00     0.049 A 
ATOM     22 Cl2  NON d   1     -41.967  19.564  -6.182  0.00  0.00    -0.083 Cl
ENDBRANCH   2  15
TORSDOF 2
ENDMDL
MODEL 4
REMARK VINA RESULT:    -9.660      1.540      2.516
REMARK INTER + INTRA:         -11.129
REMARK INTER:                 -10.257
REMARK INTRA:                  -0.872
REMARK CONF_INDEPENDENT:        0.597
REMARK UNBOUND:                -0.872
REMARK  2 active torsions:
REMARK  status: ('A' for Active; 'I' for Inactive)
REMARK       I    between atoms: C1_2  and  N1_3 
REMARK    1  A    between atoms: C1_2  and  C6_12 
REMARK    2  A    between atoms: N1_3  and  C2_4 
ROOT
ATOM      1  O1  NON d   1     -43.257  17.946  -2.372  0.00  0.00    -0.267 OA
ATOM      2  C1  NON d   1     -42.883  17.848  -3.541  0.00  0.00     0.259 C 
ATOM      3  N1  NON d   1     -43.721  17.410  -4.551  0.00  0.00    -0.309 N 
ATOM      4  H1  NON d   1     -43.337  17.357  -5.488  0.00  0.00     0.170 HD
ENDROOT
BRANCH   3   5
ATOM      5  C2  NON d   1     -45.037  17.034  -4.408  0.00  0.00     0.117 A 
ATOM      6  C3  NON d   1     -45.701  16.490  -5.434  0.00  0.00     0.123 A 
ATOM      7  C4  NON d   1     -47.111  16.098  -5.249  0.00  0.00     0.252 A 
ATOM      8  O2  NON d   1     -47.747  15.597  -6.170  0.00  0.00    -0.268 OA
ATOM      9  N2  NON d   1     -47.643  16.325  -4.015  0.00  0.00    -0.275 N 
ATOM     10  C5  NON d   1     -46.969  16.880  -2.966  0.00  0.00     0.328 A 
ATOM     11  H3  NON d   1     -48.605  16.067  -3.859  0.00  0.00     0.173 HD
ATOM     12  O3  NON d   1     -47.505  17.060  -1.877  0.00  0.00    -0.247 OA
ATOM     13  N3  NON d   1     -45.670  17.216  -3.214  0.00  0.00    -0.294 N 
ATOM     14  H4  NON d   1     -45.140  17.632  -2.451  0.00  0.00     0.172 HD
ENDBRANCH   3   5
BRANCH   2  15
ATOM     15  C6  NON d   1     -41.467  18.218  -3.883  0.00  0.00     0.055 A 
ATOM     16  C7  NON d   1     -40.487  17.747  -2.982  0.00  0.00     0.042 A 
ATOM     17  C8  NON d   1     -39.133  18.018  -3.180  0.00  0.00     0.035 A 
ATOM     18 Cl1  NON d   1     -37.968  17.427  -2.061  0.00  0.00    -0.084 Cl
ATOM     19  C9  NON d   1     -38.719  18.764  -4.275  0.00  0.00     0.025 A 
ATOM     20  C10 NON d   1     -39.670  19.239  -5.177  0.00  0.00     0.026 A 
ATOM     21  C11 NON d   1     -41.037  18.973  -4.989  0.00  0.00     0.049 A 
ATOM     22 Cl2  NON d   1     -42.088  19.633  -6.195  0.00  0.00    -0.083 Cl
ENDBRANCH   2  15
TORSDOF 2
ENDMDL
MODEL 5
REMARK VINA RESULT:    -8.120      5.202      8.774
REMARK INTER + INTRA:          -9.015
REMARK INTER:                  -8.717
REMARK INTRA:                  -0.298
REMARK CONF_INDEPENDENT:        0.597
REMARK UNBOUND:                -0.298
REMARK  2 active torsions:
REMARK  status: ('A' for Active; 'I' for Inactive)
REMARK       I    between atoms: C1_2  and  N1_3 
REMARK    1  A    between atoms: C1_2  and  C6_12 
REMARK    2  A    between atoms: N1_3  and  C2_4 
ROOT
ATOM      1  O1  NON d   1     -49.691  15.521  -1.679  0.00  0.00    -0.267 OA
ATOM      2  C1  NON d   1     -50.122  16.562  -2.177  0.00  0.00     0.259 C 
ATOM      3  N1  NON d   1     -49.458  17.224  -3.194  0.00  0.00    -0.309 N 
ATOM      4  H1  NON d   1     -49.879  18.075  -3.551  0.00  0.00     0.170 HD
ENDROOT
BRANCH   3   5
ATOM      5  C2  NON d   1     -48.272  16.839  -3.775  0.00  0.00     0.117 A 
ATOM      6  C3  NON d   1     -48.273  16.089  -4.883  0.00  0.00     0.123 A 
ATOM      7  C4  NON d   1     -46.985  15.692  -5.482  0.00  0.00     0.252 A 
ATOM      8  O2  NON d   1     -46.952  15.005  -6.497  0.00  0.00    -0.268 OA
ATOM      9  N2  NON d   1     -45.863  16.131  -4.844  0.00  0.00    -0.275 N 
ATOM     10  C5  NON d   1     -45.858  16.897  -3.714  0.00  0.00     0.328 A 
ATOM     11  H3  NON d   1     -44.968  15.876  -5.231  0.00  0.00     0.173 HD
ATOM     12  O3  NON d   1     -44.812  17.261  -3.186  0.00  0.00    -0.247 OA
ATOM     13  N3  NON d   1     -47.087  17.222  -3.221  0.00  0.00    -0.294 N 
ATOM     14  H4  NON d   1     -47.117  17.793  -2.377  0.00  0.00     0.172 HD
ENDBRANCH   3   5
BRANCH   2  15
ATOM     15  C6  NON d   1     -51.414  17.131  -1.662  0.00  0.00     0.055 A 
ATOM     16  C7  NON d   1     -52.556  16.832  -2.437  0.00  0.00     0.042 A 
ATOM     17  C8  NON d   1     -53.819  17.298  -2.073  0.00  0.00     0.035 A 
ATOM     18 Cl1  NON d   1     -55.187  16.912  -3.042  0.00  0.00    -0.084 Cl
ATOM     19  C9  NON d   1     -53.980  18.072  -0.932  0.00  0.00     0.025 A 
ATOM     20  C10 NON d   1     -52.866  18.379  -0.152  0.00  0.00     0.026 A 
ATOM     21  C11 NON d   1     -51.588  17.916  -0.508  0.00  0.00     0.049 A 
ATOM     22 Cl2  NON d   1     -50.311  18.384   0.562  0.00  0.00    -0.083 Cl
ENDBRANCH   2  15
TORSDOF 2
ENDMDL
