MODEL 1
REMARK VINA RESULT:   -14.898      0.000      0.000
REMARK INTER + INTRA:         -17.891
REMARK INTER:                 -17.285
REMARK INTRA:                  -0.607
REMARK CONF_INDEPENDENT:        2.386
REMARK UNBOUND:                -0.607
REMARK  8 active torsions:
REMARK  status: ('A' for Active; 'I' for Inactive)
REMARK    1  A    between atoms: C2_2  and  C3_3 
REMARK    2  A    between atoms: C4_4  and  C3_3 
REMARK    3  A    between atoms: C4_4  and  C5_5 
REMARK    4  A    between atoms: C4_4  and  C14_20 
REMARK    5  A    between atoms: C5_5  and  C6_6 
REMARK    6  A    between atoms: C6_6  and  C7_7 
REMARK       I    between atoms: C7_7  and  N1_9 
REMARK    7  A    between atoms: N1_9  and  C8_10 
REMARK    8  A    between atoms: C10_12  and  N2_13 
ROOT
ATOM      1  C7  NON d   1     -44.011  17.828  -4.475  0.00  0.00     0.222 C 
ATOM      2  O1  NON d   1     -44.520  18.436  -5.415  0.00  0.00    -0.273 OA
ATOM      3  N1  NON d   1     -42.649  17.615  -4.209  0.00  0.00    -0.324 N 
ATOM      4  H13 NON d   1     -42.478  16.827  -3.605  0.00  0.00     0.169 HD
ENDROOT
BRANCH   3   5
ATOM      5  C8  NON d   1     -41.467  18.275  -4.641  0.00  0.00     0.087 A 
ATOM      6  C9  NON d   1     -41.268  18.192  -6.040  0.00  0.00     0.069 A 
ATOM      7  C10 NON d   1     -40.105  18.687  -6.622  0.00  0.00     0.105 A 
ATOM      8  C11 NON d   1     -39.097  19.225  -5.846  0.00  0.00     0.040 A 
ATOM      9  C12 NON d   1     -39.300  19.297  -4.469  0.00  0.00     0.059 A 
ATOM     10  C13 NON d   1     -40.476  18.859  -3.805  0.00  0.00     0.198 A 
ATOM     11  O4  NON d   1     -40.517  18.960  -2.537  0.00  0.00    -0.286 OA
BRANCH   7  12
ATOM     12  N2  NON d   1     -39.945  18.644  -8.082  0.00  0.00    -0.116 N 
ATOM     13  O2  NON d   1     -39.461  17.621  -8.592  0.00  0.00    -0.532 OA
ATOM     14  O3  NON d   1     -40.314  19.631  -8.742  0.00  0.00    -0.532 OA
ENDBRANCH   7  12
ENDBRANCH   3   5
BRANCH   1  15
ATOM     15  C6  NON d   1     -44.837  16.839  -3.615  0.00  0.00     0.104 C 
BRANCH  15  16
ATOM     16  C5  NON d   1     -46.371  16.993  -3.509  0.00  0.00     0.024 C 
BRANCH  16  17
ATOM     17  C4  NON d   1     -47.371  15.935  -4.103  0.00  0.00     0.087 C 
BRANCH  17  18
ATOM     18  C3  NON d   1     -48.829  15.397  -4.153  0.00  0.00     0.015 C 
BRANCH  18  19
ATOM     19  C2  NON d   1     -49.730  15.469  -2.918  0.00  0.00    -0.004 C 
ATOM     20  C1  NON d   1     -49.351  16.509  -1.873  0.00  0.00     0.005 C 
ENDBRANCH  18  19
ENDBRANCH  17  18
BRANCH  17  21
ATOM     21  C14 NON d   1     -47.098  16.052  -5.614  0.00  0.00     0.177 C 
ATOM     22  O5  NON d   1     -47.493  17.143  -6.136  0.00  0.00    -0.648 OA
ATOM     23  O6  NON d   1     -46.691  15.005  -6.183  0.00  0.00    -0.648 OA
ENDBRANCH  17  21
ENDBRANCH  16  17
ENDBRANCH  15  16
ENDBRANCH   1  15
TORSDOF 8
ENDMDL
MODEL 2
REMARK VINA RESULT:   -14.745      0.720      1.189
REMARK INTER + INTRA:         -17.829
REMARK INTER:                 -17.131
REMARK INTRA:                  -0.698
REMARK CONF_INDEPENDENT:        2.386
REMARK UNBOUND:                -0.698
REMARK  8 active torsions:
REMARK  status: ('A' for Active; 'I' for Inactive)
REMARK    1  A    between atoms: C2_2  and  C3_3 
REMARK    2  A    between atoms: C4_4  and  C3_3 
REMARK    3  A    between atoms: C4_4  and  C5_5 
REMARK    4  A    between atoms: C4_4  and  C14_20 
REMARK    5  A    between atoms: C5_5  and  C6_6 
REMARK    6  A    between atoms: C6_6  and  C7_7 
REMARK       I    between atoms: C7_7  and  N1_9 
REMARK    7  A    between atoms: N1_9  and  C8_10 
REMARK    8  A    between atoms: C10_12  and  N2_13 
ROOT
ATOM      1  C7  NON d   1     -43.315  17.073  -4.531  0.00  0.00     0.222 C 
ATOM      2  O1  NON d   1     -43.274  16.353  -5.528  0.00  0.00    -0.273 OA
ATOM      3  N1  NON d   1     -42.304  17.890  -4.003  0.00  0.00    -0.324 N 
ATOM      4  H13 NON d   1     -42.434  18.108  -3.028  0.00  0.00     0.169 HD
ENDROOT
BRANCH   3   5
ATOM      5  C8  NON d   1     -41.124  18.450  -4.564  0.00  0.00     0.087 A 
ATOM      6  C9  NON d   1     -41.077  18.339  -5.974  0.00  0.00     0.069 A 
ATOM      7  C10 NON d   1     -39.945  18.735  -6.680  0.00  0.00     0.105 A 
ATOM      8  C11 NON d   1     -38.824  19.199  -6.019  0.00  0.00     0.040 A 
ATOM      9  C12 NON d   1     -38.878  19.300  -4.630  0.00  0.00     0.059 A 
ATOM     10  C13 NON d   1     -40.011  18.962  -3.843  0.00  0.00     0.198 A 
ATOM     11  O4  NON d   1     -39.914  19.078  -2.579  0.00  0.00    -0.286 OA
BRANCH   7  12
ATOM     12  N2  NON d   1     -39.940  18.666  -8.148  0.00  0.00    -0.116 N 
ATOM     13  O2  NON d   1     -40.603  19.505  -8.779  0.00  0.00    -0.532 OA
ATOM     14  O3  NON d   1     -39.262  17.777  -8.691  0.00  0.00    -0.532 OA
ENDBRANCH   7  12
ENDBRANCH   3   5
BRANCH   1  15
ATOM     15  C6  NON d   1     -44.406  16.882  -3.447  0.00  0.00     0.104 C 
BRANCH  15  16
ATOM     16  C5  NON d   1     -45.885  17.194  -3.768  0.00  0.00     0.024 C 
BRANCH  16  17
ATOM     17  C4  NON d   1     -46.945  16.067  -4.049  0.00  0.00     0.087 C 
BRANCH  17  18
ATOM     18  C3  NON d   1     -48.336  15.464  -3.702  0.00  0.00     0.015 C 
BRANCH  18  19
ATOM     19  C2  NON d   1     -49.251  16.149  -2.685  0.00  0.00    -0.004 C 
ATOM     20  C1  NON d   1     -48.556  16.878  -1.543  0.00  0.00     0.005 C 
ENDBRANCH  18  19
ENDBRANCH  17  18
BRANCH  17  21
ATOM     21  C14 NON d   1     -47.077  16.128  -5.582  0.00  0.00     0.177 C 
ATOM     22  O5  NON d   1     -46.691  15.077  -6.185  0.00  0.00    -0.648 OA
ATOM     23  O6  NON d   1     -47.373  17.253  -6.064  0.00  0.00    -0.648 OA
ENDBRANCH  17  21
ENDBRANCH  16  17
ENDBRANCH  15  16
ENDBRANCH   1  15
TORSDOF 8
ENDMDL
MODEL 3
REMARK VINA RESULT:   -14.428      5.320     10.609
REMARK INTER + INTRA:         -17.479
REMARK INTER:                 -16.815
REMARK INTRA:                  -0.664
REMARK CONF_INDEPENDENT:        2.386
REMARK UNBOUND:                -0.664
REMARK  8 active torsions:
REMARK  status: ('A' for Active; 'I' for Inactive)
REMARK    1  A    between atoms: C2_2  and  C3_3 
REMARK    2  A    between atoms: C4_4  and  C3_3 
REMARK    3  A    between atoms: C4_4  and  C5_5 
REMARK    4  A    between atoms: C4_4  and  C14_20 
REMARK    5  A    between atoms: C5_5  and  C6_6 
REMARK    6  A    between atoms: C6_6  and  C7_7 
REMARK       I    between atoms: C7_7  and  N1_9 
REMARK    7  A    between atoms: N1_9  and  C8_10 
REMARK    8  A    between atoms: C10_12  and  N2_13 
ROOT
ATOM      1  C7  NON d   1     -50.539  16.218  -2.525  0.00  0.00     0.222 C 
ATOM      2  O1  NON d   1     -49.746  16.879  -1.856  0.00  0.00    -0.273 OA
ATOM      3  N1  NON d   1     -51.941  16.231  -2.479  0.00  0.00    -0.324 N 
ATOM      4  H13 NON d   1     -52.362  15.394  -2.847  0.00  0.00     0.169 HD
ENDROOT
BRANCH   3   5
ATOM      5  C8  NON d   1     -52.882  17.182  -1.996  0.00  0.00     0.087 A 
ATOM      6  C9  NON d   1     -52.344  18.035  -1.002  0.00  0.00     0.069 A 
ATOM      7  C10 NON d   1     -53.155  18.952  -0.340  0.00  0.00     0.105 A 
ATOM      8  C11 NON d   1     -54.510  19.018  -0.601  0.00  0.00     0.040 A 
ATOM      9  C12 NON d   1     -55.031  18.171  -1.577  0.00  0.00     0.059 A 
ATOM     10  C13 NON d   1     -54.262  17.243  -2.329  0.00  0.00     0.198 A 
ATOM     11  O4  NON d   1     -54.873  16.510  -3.172  0.00  0.00    -0.286 OA
BRANCH   7  12
ATOM     12  N2  NON d   1     -52.564  19.869   0.645  0.00  0.00    -0.116 N 
ATOM     13  O2  NON d   1     -53.094  20.980   0.807  0.00  0.00    -0.532 OA
ATOM     14  O3  NON d   1     -51.567  19.484   1.279  0.00  0.00    -0.532 OA
ENDBRANCH   7  12
ENDBRANCH   3   5
BRANCH   1  15
ATOM     15  C6  NON d   1     -50.088  14.940  -3.276  0.00  0.00     0.104 C 
BRANCH  15  16
ATOM     16  C5  NON d   1     -48.932  15.007  -4.301  0.00  0.00     0.024 C 
BRANCH  16  17
ATOM     17  C4  NON d   1     -47.790  16.084  -4.218  0.00  0.00     0.087 C 
BRANCH  17  18
ATOM     18  C3  NON d   1     -46.467  16.538  -3.538  0.00  0.00     0.015 C 
BRANCH  18  19
ATOM     19  C2  NON d   1     -45.303  17.072  -4.375  0.00  0.00    -0.004 C 
ATOM     20  C1  NON d   1     -43.914  16.900  -3.776  0.00  0.00     0.005 C 
ENDBRANCH  18  19
ENDBRANCH  17  18
BRANCH  17  21
ATOM     21  C14 NON d   1     -47.367  16.215  -5.693  0.00  0.00     0.177 C 
ATOM     22  O5  NON d   1     -46.826  15.171  -6.179  0.00  0.00    -0.648 OA
ATOM     23  O6  NON d   1     -47.437  17.372  -6.185  0.00  0.00    -0.648 OA
ENDBRANCH  17  21
ENDBRANCH  16  17
ENDBRANCH  15  16
ENDBRANCH   1  15
TORSDOF 8
ENDMDL
MODEL 4
REMARK VINA RESULT:   -13.464      1.144      1.494
REMARK INTER + INTRA:         -16.490
REMARK INTER:                 -15.850
REMARK INTRA:                  -0.640
REMARK CONF_INDEPENDENT:        2.386
REMARK UNBOUND:                -0.640
REMARK  8 active torsions:
REMARK  status: ('A' for Active; 'I' for Inactive)
REMARK    1  A    between atoms: C2_2  and  C3_3 
REMARK    2  A    between atoms: C4_4  and  C3_3 
REMARK    3  A    between atoms: C4_4  and  C5_5 
REMARK    4  A    between atoms: C4_4  and  C14_20 
REMARK    5  A    between atoms: C5_5  and  C6_6 
REMARK    6  A    between atoms: C6_6  and  C7_7 
REMARK       I    between atoms: C7_7  and  N1_9 
REMARK    7  A    between atoms: N1_9  and  C8_10 
REMARK    8  A    between atoms: C10_12  and  N2_13 
ROOT
ATOM      1  C7  NON d   1     -43.774  18.152  -5.028  0.00  0.00     0.222 C 
ATOM      2  O1  NON d   1     -44.384  19.063  -5.585  0.00  0.00    -0.273 OA
ATOM      3  N1  NON d   1     -42.392  17.909  -5.014  0.00  0.00    -0.324 N 
ATOM      4  H13 NON d   1     -42.155  16.954  -4.801  0.00  0.00     0.169 HD
ENDROOT
BRANCH   3   5
ATOM      5  C8  NON d   1     -41.264  18.739  -5.263  0.00  0.00     0.087 A 
ATOM      6  C9  NON d   1     -41.278  19.316  -6.555  0.00  0.00     0.069 A 
ATOM      7  C10 NON d   1     -40.197  20.067  -7.008  0.00  0.00     0.105 A 
ATOM      8  C11 NON d   1     -39.067  20.225  -6.229  0.00  0.00     0.040 A 
ATOM      9  C12 NON d   1     -39.062  19.648  -4.960  0.00  0.00     0.059 A 
ATOM     10  C13 NON d   1     -40.141  18.909  -4.408  0.00  0.00     0.198 A 
ATOM     11  O4  NON d   1     -39.990  18.414  -3.245  0.00  0.00    -0.286 OA
BRANCH   7  12
ATOM     12  N2  NON d   1     -40.257  20.707  -8.329  0.00  0.00    -0.116 N 
ATOM     13  O2  NON d   1     -39.502  21.667  -8.553  0.00  0.00    -0.532 OA
ATOM     14  O3  NON d   1     -41.055  20.251  -9.166  0.00  0.00    -0.532 OA
ENDBRANCH   7  12
ENDBRANCH   3   5
BRANCH   1  15
ATOM     15  C6  NON d   1     -44.500  16.866  -4.561  0.00  0.00     0.104 C 
BRANCH  15  16
ATOM     16  C5  NON d   1     -45.679  16.955  -3.565  0.00  0.00     0.024 C 
BRANCH  16  17
ATOM     17  C4  NON d   1     -47.092  16.336  -3.869  0.00  0.00     0.087 C 
BRANCH  17  18
ATOM     18  C3  NON d   1     -48.631  16.425  -3.663  0.00  0.00     0.015 C 
BRANCH  18  19
ATOM     19  C2  NON d   1     -49.368  15.377  -2.827  0.00  0.00    -0.004 C 
ATOM     20  C1  NON d   1     -50.887  15.481  -2.811  0.00  0.00     0.005 C 
ENDBRANCH  18  19
ENDBRANCH  17  18
BRANCH  17  21
ATOM     21  C14 NON d   1     -47.055  16.194  -5.402  0.00  0.00     0.177 C 
ATOM     22  O5  NON d   1     -46.702  15.044  -5.814  0.00  0.00    -0.648 OA
ATOM     23  O6  NON d   1     -47.197  17.260  -6.056  0.00  0.00    -0.648 OA
ENDBRANCH  17  21
ENDBRANCH  16  17
ENDBRANCH  15  16
ENDBRANCH   1  15
TORSDOF 8
ENDMDL
MODEL 5
REMARK VINA RESULT:   -13.103      2.034      2.967
REMARK INTER + INTRA:         -16.206
REMARK INTER:                 -15.489
REMARK INTRA:                  -0.717
REMARK CONF_INDEPENDENT:        2.386
REMARK UNBOUND:                -0.717
REMARK  8 active torsions:
REMARK  status: ('A' for Active; 'I' for Inactive)
REMARK    1  A    between atoms: C2_2  and  C3_3 
REMARK    2  A    between atoms: C4_4  and  C3_3 
REMARK    3  A    between atoms: C4_4  and  C5_5 
REMARK    4  A    between atoms: C4_4  and  C14_20 
REMARK    5  A    between atoms: C5_5  and  C6_6 
REMARK    6  A    between atoms: C6_6  and  C7_7 
REMARK       I    between atoms: C7_7  and  N1_9 
REMARK    7  A    between atoms: N1_9  and  C8_10 
REMARK    8  A    between atoms: C10_12  and  N2_13 
ROOT
ATOM      1  C7  NON d   1     -43.848  18.286  -5.058  0.00  0.00     0.222 C 
ATOM      2  O1  NON d   1     -44.559  19.158  -5.554  0.00  0.00    -0.273 OA
ATOM      3  N1  NON d   1     -42.451  18.165  -5.111  0.00  0.00    -0.324 N 
ATOM      4  H13 NON d   1     -42.123  17.227  -4.945  0.00  0.00     0.169 HD
ENDROOT
BRANCH   3   5
ATOM      5  C8  NON d   1     -41.411  19.098  -5.376  0.00  0.00     0.087 A 
ATOM      6  C9  NON d   1     -41.479  20.248  -4.553  0.00  0.00     0.069 A 
ATOM      7  C10 NON d   1     -40.606  21.314  -4.750  0.00  0.00     0.105 A 
ATOM      8  C11 NON d   1     -39.687  21.296  -5.782  0.00  0.00     0.040 A 
ATOM      9  C12 NON d   1     -39.631  20.161  -6.589  0.00  0.00     0.059 A 
ATOM     10  C13 NON d   1     -40.454  19.015  -6.423  0.00  0.00     0.198 A 
ATOM     11  O4  NON d   1     -40.315  18.058  -7.250  0.00  0.00    -0.286 OA
BRANCH   7  12
ATOM     12  N2  NON d   1     -40.655  22.472  -3.848  0.00  0.00    -0.116 N 
ATOM     13  O2  NON d   1     -39.596  22.857  -3.326  0.00  0.00    -0.532 OA
ATOM     14  O3  NON d   1     -41.754  23.021  -3.657  0.00  0.00    -0.532 OA
ENDBRANCH   7  12
ENDBRANCH   3   5
BRANCH   1  15
ATOM     15  C6  NON d   1     -44.439  16.925  -4.610  0.00  0.00     0.104 C 
BRANCH  15  16
ATOM     16  C5  NON d   1     -45.578  16.878  -3.566  0.00  0.00     0.024 C 
BRANCH  16  17
ATOM     17  C4  NON d   1     -47.047  16.456  -3.936  0.00  0.00     0.087 C 
BRANCH  17  18
ATOM     18  C3  NON d   1     -48.566  16.772  -3.826  0.00  0.00     0.015 C 
BRANCH  18  19
ATOM     19  C2  NON d   1     -49.425  16.109  -2.748  0.00  0.00    -0.004 C 
ATOM     20  C1  NON d   1     -49.124  16.512  -1.311  0.00  0.00     0.005 C 
ENDBRANCH  18  19
ENDBRANCH  17  18
BRANCH  17  21
ATOM     21  C14 NON d   1     -46.946  16.252  -5.459  0.00  0.00     0.177 C 
ATOM     22  O5  NON d   1     -47.316  17.255  -6.149  0.00  0.00    -0.648 OA
ATOM     23  O6  NON d   1     -46.690  15.079  -5.841  0.00  0.00    -0.648 OA
ENDBRANCH  17  21
ENDBRANCH  16  17
ENDBRANCH  15  16
ENDBRANCH   1  15
TORSDOF 8
ENDMDL
MODEL 6
REMARK VINA RESULT:   -12.932      2.000      2.402
REMARK INTER + INTRA:         -16.110
REMARK INTER:                 -15.319
REMARK INTRA:                  -0.791
REMARK CONF_INDEPENDENT:        2.386
REMARK UNBOUND:                -0.791
REMARK  8 active torsions:
REMARK  status: ('A' for Active; 'I' for Inactive)
REMARK    1  A    between atoms: C2_2  and  C3_3 
REMARK    2  A    between atoms: C4_4  and  C3_3 
REMARK    3  A    between atoms: C4_4  and  C5_5 
REMARK    4  A    between atoms: C4_4  and  C14_20 
REMARK    5  A    between atoms: C5_5  and  C6_6 
REMARK    6  A    between atoms: C6_6  and  C7_7 
REMARK       I    between atoms: C7_7  and  N1_9 
REMARK    7  A    between atoms: N1_9  and  C8_10 
REMARK    8  A    between atoms: C10_12  and  N2_13 
ROOT
ATOM      1  C7  NON d   1     -43.845  18.140  -4.715  0.00  0.00     0.222 C 
ATOM      2  O1  NON d   1     -44.128  19.151  -5.356  0.00  0.00    -0.273 OA
ATOM      3  N1  NON d   1     -42.615  17.792  -4.135  0.00  0.00    -0.324 N 
ATOM      4  H13 NON d   1     -42.516  16.804  -3.968  0.00  0.00     0.169 HD
ENDROOT
BRANCH   3   5
ATOM      5  C8  NON d   1     -41.476  18.554  -3.757  0.00  0.00     0.087 A 
ATOM      6  C9  NON d   1     -41.363  19.770  -4.474  0.00  0.00     0.069 A 
ATOM      7  C10 NON d   1     -40.248  20.588  -4.312  0.00  0.00     0.105 A 
ATOM      8  C11 NON d   1     -39.206  20.211  -3.487  0.00  0.00     0.040 A 
ATOM      9  C12 NON d   1     -39.325  19.010  -2.790  0.00  0.00     0.059 A 
ATOM     10  C13 NON d   1     -40.449  18.145  -2.865  0.00  0.00     0.198 A 
ATOM     11  O4  NON d   1     -40.413  17.064  -2.193  0.00  0.00    -0.286 OA
BRANCH   7  12
ATOM     12  N2  NON d   1     -40.179  21.873  -5.021  0.00  0.00    -0.116 N 
ATOM     13  O2  NON d   1     -40.288  21.870  -6.258  0.00  0.00    -0.532 OA
ATOM     14  O3  NON d   1     -40.026  22.907  -4.347  0.00  0.00    -0.532 OA
ENDBRANCH   7  12
ENDBRANCH   3   5
BRANCH   1  15
ATOM     15  C6  NON d   1     -44.729  16.870  -4.784  0.00  0.00     0.104 C 
BRANCH  15  16
ATOM     16  C5  NON d   1     -45.755  16.575  -3.666  0.00  0.00     0.024 C 
BRANCH  16  17
ATOM     17  C4  NON d   1     -47.290  16.390  -3.953  0.00  0.00     0.087 C 
BRANCH  17  18
ATOM     18  C3  NON d   1     -48.732  16.938  -3.759  0.00  0.00     0.015 C 
BRANCH  18  19
ATOM     19  C2  NON d   1     -49.834  16.047  -3.182  0.00  0.00    -0.004 C 
ATOM     20  C1  NON d   1     -49.818  14.591  -3.625  0.00  0.00     0.005 C 
ENDBRANCH  18  19
ENDBRANCH  17  18
BRANCH  17  21
ATOM     21  C14 NON d   1     -47.306  16.184  -5.479  0.00  0.00     0.177 C 
ATOM     22  O5  NON d   1     -46.988  15.011  -5.854  0.00  0.00    -0.648 OA
ATOM     23  O6  NON d   1     -47.449  17.225  -6.173  0.00  0.00    -0.648 OA
ENDBRANCH  17  21
ENDBRANCH  16  17
ENDBRANCH  15  16
ENDBRANCH   1  15
TORSDOF 8
ENDMDL
MODEL 7
REMARK VINA RESULT:   -12.564      1.783      2.688
REMARK INTER + INTRA:         -15.585
REMARK INTER:                 -14.950
REMARK INTRA:                  -0.634
REMARK CONF_INDEPENDENT:        2.386
REMARK UNBOUND:                -0.634
REMARK  8 active torsions:
REMARK  status: ('A' for Active; 'I' for Inactive)
REMARK    1  A    between atoms: C2_2  and  C3_3 
REMARK    2  A    between atoms: C4_4  and  C3_3 
REMARK    3  A    between atoms: C4_4  and  C5_5 
REMARK    4  A    between atoms: C4_4  and  C14_20 
REMARK    5  A    between atoms: C5_5  and  C6_6 
REMARK    6  A    between atoms: C6_6  and  C7_7 
REMARK       I    between atoms: C7_7  and  N1_9 
REMARK    7  A    between atoms: N1_9  and  C8_10 
REMARK    8  A    between atoms: C10_12  and  N2_13 
ROOT
ATOM      1  C7  NON d   1     -43.442  18.320  -5.042  0.00  0.00     0.222 C 
ATOM      2  O1  NON d   1     -44.045  19.355  -5.320  0.00  0.00    -0.273 OA
ATOM      3  N1  NON d   1     -42.111  17.981  -5.332  0.00  0.00    -0.324 N 
ATOM      4  H13 NON d   1     -41.939  16.989  -5.322  0.00  0.00     0.169 HD
ENDROOT
BRANCH   3   5
ATOM      5  C8  NON d   1     -40.967  18.759  -5.659  0.00  0.00     0.087 A 
ATOM      6  C9  NON d   1     -39.897  18.575  -4.751  0.00  0.00     0.069 A 
ATOM      7  C10 NON d   1     -38.738  19.340  -4.855  0.00  0.00     0.105 A 
ATOM      8  C11 NON d   1     -38.625  20.328  -5.813  0.00  0.00     0.040 A 
ATOM      9  C12 NON d   1     -39.686  20.504  -6.699  0.00  0.00     0.059 A 
ATOM     10  C13 NON d   1     -40.879  19.734  -6.689  0.00  0.00     0.198 A 
ATOM     11  O4  NON d   1     -41.780  20.021  -7.541  0.00  0.00    -0.286 OA
BRANCH   7  12
ATOM     12  N2  NON d   1     -37.617  19.091  -3.938  0.00  0.00    -0.116 N 
ATOM     13  O2  NON d   1     -36.618  18.499  -4.377  0.00  0.00    -0.532 OA
ATOM     14  O3  NON d   1     -37.716  19.496  -2.767  0.00  0.00    -0.532 OA
ENDBRANCH   7  12
ENDBRANCH   3   5
BRANCH   1  15
ATOM     15  C6  NON d   1     -44.201  17.026  -4.652  0.00  0.00     0.104 C 
BRANCH  15  16
ATOM     16  C5  NON d   1     -45.487  17.106  -3.798  0.00  0.00     0.024 C 
BRANCH  16  17
ATOM     17  C4  NON d   1     -46.693  16.115  -3.991  0.00  0.00     0.087 C 
BRANCH  17  18
ATOM     18  C3  NON d   1     -48.136  15.714  -3.573  0.00  0.00     0.015 C 
BRANCH  18  19
ATOM     19  C2  NON d   1     -48.957  16.612  -2.645  0.00  0.00    -0.004 C 
ATOM     20  C1  NON d   1     -50.452  16.331  -2.591  0.00  0.00     0.005 C 
ENDBRANCH  18  19
ENDBRANCH  17  18
BRANCH  17  21
ATOM     21  C14 NON d   1     -46.872  16.125  -5.521  0.00  0.00     0.177 C 
ATOM     22  O5  NON d   1     -47.264  17.238  -5.996  0.00  0.00    -0.648 OA
ATOM     23  O6  NON d   1     -46.789  15.006  -6.091  0.00  0.00    -0.648 OA
ENDBRANCH  17  21
ENDBRANCH  16  17
ENDBRANCH  15  16
ENDBRANCH   1  15
TORSDOF 8
ENDMDL
MODEL 8
REMARK VINA RESULT:   -12.397      4.969     10.130
REMARK INTER + INTRA:         -15.445
REMARK INTER:                 -14.783
REMARK INTRA:                  -0.662
REMARK CONF_INDEPENDENT:        2.386
REMARK UNBOUND:                -0.662
REMARK  8 active torsions:
REMARK  status: ('A' for Active; 'I' for Inactive)
REMARK    1  A    between atoms: C2_2  and  C3_3 
REMARK    2  A    between atoms: C4_4  and  C3_3 
REMARK    3  A    between atoms: C4_4  and  C5_5 
REMARK    4  A    between atoms: C4_4  and  C14_20 
REMARK    5  A    between atoms: C5_5  and  C6_6 
REMARK    6  A    between atoms: C6_6  and  C7_7 
REMARK       I    between atoms: C7_7  and  N1_9 
REMARK    7  A    between atoms: N1_9  and  C8_10 
REMARK    8  A    between atoms: C10_12  and  N2_13 
ROOT
ATOM      1  C7  NON d   1     -50.061  15.446  -2.826  0.00  0.00     0.222 C 
ATOM      2  O1  NON d   1     -50.943  14.691  -3.231  0.00  0.00    -0.273 OA
ATOM      3  N1  NON d   1     -50.202  16.674  -2.160  0.00  0.00    -0.324 N 
ATOM      4  H13 NON d   1     -49.389  17.264  -2.232  0.00  0.00     0.169 HD
ENDROOT
BRANCH   3   5
ATOM      5  C8  NON d   1     -51.270  17.256  -1.425  0.00  0.00     0.087 A 
ATOM      6  C9  NON d   1     -52.519  17.140  -2.082  0.00  0.00     0.069 A 
ATOM      7  C10 NON d   1     -53.655  17.751  -1.558  0.00  0.00     0.105 A 
ATOM      8  C11 NON d   1     -53.582  18.523  -0.415  0.00  0.00     0.040 A 
ATOM      9  C12 NON d   1     -52.347  18.635   0.221  0.00  0.00     0.059 A 
ATOM     10  C13 NON d   1     -51.154  18.005  -0.223  0.00  0.00     0.198 A 
ATOM     11  O4  NON d   1     -50.088  18.215   0.441  0.00  0.00    -0.286 OA
BRANCH   7  12
ATOM     12  N2  NON d   1     -54.952  17.568  -2.224  0.00  0.00    -0.116 N 
ATOM     13  O2  NON d   1     -55.970  18.005  -1.661  0.00  0.00    -0.532 OA
ATOM     14  O3  NON d   1     -54.970  16.995  -3.327  0.00  0.00    -0.532 OA
ENDBRANCH   7  12
ENDBRANCH   3   5
BRANCH   1  15
ATOM     15  C6  NON d   1     -48.607  15.340  -3.351  0.00  0.00     0.104 C 
BRANCH  15  16
ATOM     16  C5  NON d   1     -47.617  16.509  -3.142  0.00  0.00     0.024 C 
BRANCH  16  17
ATOM     17  C4  NON d   1     -46.502  16.871  -4.191  0.00  0.00     0.087 C 
BRANCH  17  18
ATOM     18  C3  NON d   1     -44.994  16.821  -4.566  0.00  0.00     0.015 C 
BRANCH  18  19
ATOM     19  C2  NON d   1     -43.925  17.253  -3.560  0.00  0.00    -0.004 C 
ATOM     20  C1  NON d   1     -42.727  17.997  -4.134  0.00  0.00     0.005 C 
ENDBRANCH  18  19
ENDBRANCH  17  18
BRANCH  17  21
ATOM     21  C14 NON d   1     -47.101  16.316  -5.497  0.00  0.00     0.177 C 
ATOM     22  O5  NON d   1     -46.691  15.153  -5.810  0.00  0.00    -0.648 OA
ATOM     23  O6  NON d   1     -47.770  17.131  -6.185  0.00  0.00    -0.648 OA
ENDBRANCH  17  21
ENDBRANCH  16  17
ENDBRANCH  15  16
ENDBRANCH   1  15
TORSDOF 8
ENDMDL
MODEL 9
REMARK VINA RESULT:   -12.011      2.944      4.793
REMARK INTER + INTRA:         -15.494
REMARK INTER:                 -14.397
REMARK INTRA:                  -1.097
REMARK CONF_INDEPENDENT:        2.386
REMARK UNBOUND:                -1.097
REMARK  8 active torsions:
REMARK  status: ('A' for Active; 'I' for Inactive)
REMARK    1  A    between atoms: C2_2  and  C3_3 
REMARK    2  A    between atoms: C4_4  and  C3_3 
REMARK    3  A    between atoms: C4_4  and  C5_5 
REMARK    4  A    between atoms: C4_4  and  C14_20 
REMARK    5  A    between atoms: C5_5  and  C6_6 
REMARK    6  A    between atoms: C6_6  and  C7_7 
REMARK       I    between atoms: C7_7  and  N1_9 
REMARK    7  A    between atoms: N1_9  and  C8_10 
REMARK    8  A    between atoms: C10_12  and  N2_13 
ROOT
ATOM      1  C7  NON d   1     -47.235  15.375  -4.681  0.00  0.00     0.222 C 
ATOM      2  O1  NON d   1     -47.185  15.054  -5.868  0.00  0.00    -0.273 OA
ATOM      3  N1  NON d   1     -46.286  16.087  -3.931  0.00  0.00    -0.324 N 
ATOM      4  H13 NON d   1     -46.367  15.938  -2.938  0.00  0.00     0.169 HD
ENDROOT
BRANCH   3   5
ATOM      5  C8  NON d   1     -45.223  16.958  -4.295  0.00  0.00     0.087 A 
ATOM      6  C9  NON d   1     -44.156  16.945  -3.365  0.00  0.00     0.069 A 
ATOM      7  C10 NON d   1     -43.081  17.819  -3.506  0.00  0.00     0.105 A 
ATOM      8  C11 NON d   1     -43.054  18.750  -4.527  0.00  0.00     0.040 A 
ATOM      9  C12 NON d   1     -44.112  18.758  -5.434  0.00  0.00     0.059 A 
ATOM     10  C13 NON d   1     -45.219  17.869  -5.386  0.00  0.00     0.198 A 
ATOM     11  O4  NON d   1     -46.129  18.005  -6.265  0.00  0.00    -0.286 OA
BRANCH   7  12
ATOM     12  N2  NON d   1     -41.957  17.749  -2.564  0.00  0.00    -0.116 N 
ATOM     13  O2  NON d   1     -42.128  18.172  -1.409  0.00  0.00    -0.532 OA
ATOM     14  O3  NON d   1     -40.887  17.257  -2.963  0.00  0.00    -0.532 OA
ENDBRANCH   7  12
ENDBRANCH   3   5
BRANCH   1  15
ATOM     15  C6  NON d   1     -48.212  14.682  -3.700  0.00  0.00     0.104 C 
BRANCH  15  16
ATOM     16  C5  NON d   1     -49.711  15.061  -3.695  0.00  0.00     0.024 C 
BRANCH  16  17
ATOM     17  C4  NON d   1     -50.262  16.318  -2.927  0.00  0.00     0.087 C 
BRANCH  17  18
ATOM     18  C3  NON d   1     -51.376  16.909  -2.017  0.00  0.00     0.015 C 
BRANCH  18  19
ATOM     19  C2  NON d   1     -52.847  16.824  -2.429  0.00  0.00    -0.004 C 
ATOM     20  C1  NON d   1     -53.830  17.606  -1.568  0.00  0.00     0.005 C 
ENDBRANCH  18  19
ENDBRANCH  17  18
BRANCH  17  21
ATOM     21  C14 NON d   1     -49.025  16.774  -2.133  0.00  0.00     0.177 C 
ATOM     22  O5  NON d   1     -49.081  16.527  -0.886  0.00  0.00    -0.648 OA
ATOM     23  O6  NON d   1     -48.200  17.488  -2.762  0.00  0.00    -0.648 OA
ENDBRANCH  17  21
ENDBRANCH  16  17
ENDBRANCH  15  16
ENDBRANCH   1  15
TORSDOF 8
ENDMDL
