MODEL 1
REMARK VINA RESULT:   -12.661      0.000      0.000
REMARK INTER + INTRA:         -15.068
REMARK INTER:                 -14.152
REMARK INTRA:                  -0.915
REMARK CONF_INDEPENDENT:        1.492
REMARK UNBOUND:                -0.915
REMARK  5 active torsions:
REMARK  status: ('A' for Active; 'I' for Inactive)
REMARK    1  A    between atoms: C6_6  and  C7_7 
REMARK    2  A    between atoms: C7_7  and  N1_8 
REMARK       I    between atoms: N1_8  and  C8_9 
REMARK    3  A    between atoms: C8_9  and  C9_11 
REMARK       I    between atoms: C9_11  and  N2_13 
REMARK    4  A    between atoms: N2_13  and  C10_14 
REMARK    5  A    between atoms: C15_19  and  C16_20 
REMARK       I    between atoms: C16_20  and  N3_21 
ROOT
ATOM      1  C9  NON d   1     -45.737  17.185  -5.332  0.00  0.00     0.313 C 
ATOM      2  O2  NON d   1     -45.942  17.999  -6.222  0.00  0.00    -0.262 OA
ATOM      3  N2  NON d   1     -44.644  17.066  -4.497  0.00  0.00    -0.319 N 
ATOM      4  H11 NON d   1     -44.736  16.340  -3.790  0.00  0.00     0.169 HD
ENDROOT
BRANCH   1   5
ATOM      5  C8  NON d   1     -46.798  16.095  -5.059  0.00  0.00     0.309 C 
ATOM      6  N1  NON d   1     -46.920  15.747  -3.736  0.00  0.00    -0.349 N 
ATOM      7  H10 NON d   1     -46.187  16.062  -3.110  0.00  0.00     0.163 HD
ATOM      8  O1  NON d   1     -47.448  15.636  -5.990  0.00  0.00    -0.262 OA
BRANCH   6   9
ATOM      9  C7  NON d   1     -47.950  14.855  -3.269  0.00  0.00     0.162 C 
BRANCH   9  10
ATOM     10  C6  NON d   1     -49.256  15.490  -2.808  0.00  0.00    -0.029 A 
ATOM     11  C4  NON d   1     -50.457  14.986  -3.384  0.00  0.00    -0.053 A 
ATOM     12  C3  NON d   1     -51.714  15.487  -2.992  0.00  0.00     0.014 A 
ATOM     13  C5  NON d   1     -50.399  13.881  -4.455  0.00  0.00     0.049 C 
ATOM     14  C2  NON d   1     -51.814  16.515  -2.060  0.00  0.00    -0.061 A 
ATOM     15  C1  NON d   1     -53.149  17.085  -1.684  0.00  0.00     0.048 C 
ATOM     16  C20 NON d   1     -50.640  17.064  -1.545  0.00  0.00     0.014 A 
ATOM     17  C18 NON d   1     -49.362  16.589  -1.919  0.00  0.00    -0.053 A 
ATOM     18  C19 NON d   1     -48.190  17.316  -1.310  0.00  0.00     0.049 C 
ENDBRANCH   9  10
ENDBRANCH   6   9
ENDBRANCH   1   5
BRANCH   3  19
ATOM     19  C10 NON d   1     -43.427  17.770  -4.558  0.00  0.00     0.036 A 
ATOM     20  C11 NON d   1     -43.376  18.885  -5.398  0.00  0.00     0.030 A 
ATOM     21  C12 NON d   1     -42.215  19.660  -5.484  0.00  0.00     0.010 A 
ATOM     22  C13 NON d   1     -41.085  19.353  -4.710  0.00  0.00    -0.046 A 
ATOM     23  C14 NON d   1     -39.871  20.234  -4.822  0.00  0.00     0.049 C 
ATOM     24  C15 NON d   1     -41.134  18.231  -3.858  0.00  0.00     0.039 A 
ATOM     25  C17 NON d   1     -42.299  17.437  -3.806  0.00  0.00     0.047 A 
BRANCH  24  26
ATOM     26  C16 NON d   1     -39.964  17.859  -3.004  0.00  0.00     0.249 C 
ATOM     27  N3  NON d   1     -40.218  17.597  -1.685  0.00  0.00    -0.366 N 
ATOM     28  H17 NON d   1     -41.112  17.752  -1.244  0.00  0.00     0.159 HD
ATOM     29  H18 NON d   1     -39.417  17.412  -1.095  0.00  0.00     0.159 HD
ATOM     30  O3  NON d   1     -38.818  17.812  -3.432  0.00  0.00    -0.268 OA
ENDBRANCH  24  26
ENDBRANCH   3  19
TORSDOF 5
ENDMDL
MODEL 2
REMARK VINA RESULT:   -12.119      1.558      2.036
REMARK INTER + INTRA:         -14.550
REMARK INTER:                 -13.610
REMARK INTRA:                  -0.940
REMARK CONF_INDEPENDENT:        1.492
REMARK UNBOUND:                -0.940
REMARK  5 active torsions:
REMARK  status: ('A' for Active; 'I' for Inactive)
REMARK    1  A    between atoms: C6_6  and  C7_7 
REMARK    2  A    between atoms: C7_7  and  N1_8 
REMARK       I    between atoms: N1_8  and  C8_9 
REMARK    3  A    between atoms: C8_9  and  C9_11 
REMARK       I    between atoms: C9_11  and  N2_13 
REMARK    4  A    between atoms: N2_13  and  C10_14 
REMARK    5  A    between atoms: C15_19  and  C16_20 
REMARK       I    between atoms: C16_20  and  N3_21 
ROOT
ATOM      1  C9  NON d   1     -45.682  17.115  -5.265  0.00  0.00     0.313 C 
ATOM      2  O2  NON d   1     -45.825  17.908  -6.185  0.00  0.00    -0.262 OA
ATOM      3  N2  NON d   1     -44.638  17.002  -4.369  0.00  0.00    -0.319 N 
ATOM      4  H11 NON d   1     -44.780  16.296  -3.649  0.00  0.00     0.169 HD
ENDROOT
BRANCH   1   5
ATOM      5  C8  NON d   1     -46.775  16.049  -5.023  0.00  0.00     0.309 C 
ATOM      6  N1  NON d   1     -46.916  15.677  -3.708  0.00  0.00    -0.349 N 
ATOM      7  H10 NON d   1     -46.179  15.958  -3.071  0.00  0.00     0.163 HD
ATOM      8  O1  NON d   1     -47.430  15.628  -5.967  0.00  0.00    -0.262 OA
BRANCH   6   9
ATOM      9  C7  NON d   1     -47.973  14.803  -3.267  0.00  0.00     0.162 C 
BRANCH   9  10
ATOM     10  C6  NON d   1     -49.266  15.464  -2.807  0.00  0.00    -0.029 A 
ATOM     11  C4  NON d   1     -50.477  14.985  -3.386  0.00  0.00    -0.053 A 
ATOM     12  C3  NON d   1     -51.723  15.511  -2.994  0.00  0.00     0.014 A 
ATOM     13  C5  NON d   1     -50.439  13.881  -4.458  0.00  0.00     0.049 C 
ATOM     14  C2  NON d   1     -51.804  16.539  -2.061  0.00  0.00    -0.061 A 
ATOM     15  C1  NON d   1     -53.128  17.136  -1.685  0.00  0.00     0.048 C 
ATOM     16  C20 NON d   1     -50.620  17.064  -1.543  0.00  0.00     0.014 A 
ATOM     17  C18 NON d   1     -49.352  16.564  -1.916  0.00  0.00    -0.053 A 
ATOM     18  C19 NON d   1     -48.166  17.266  -1.305  0.00  0.00     0.049 C 
ENDBRANCH   9  10
ENDBRANCH   6   9
ENDBRANCH   1   5
BRANCH   3  19
ATOM     19  C10 NON d   1     -43.408  17.686  -4.381  0.00  0.00     0.036 A 
ATOM     20  C11 NON d   1     -42.504  17.393  -3.357  0.00  0.00     0.030 A 
ATOM     21  C12 NON d   1     -41.247  18.003  -3.322  0.00  0.00     0.010 A 
ATOM     22  C13 NON d   1     -40.852  18.899  -4.326  0.00  0.00    -0.046 A 
ATOM     23  C14 NON d   1     -39.478  19.507  -4.253  0.00  0.00     0.049 C 
ATOM     24  C15 NON d   1     -41.759  19.194  -5.364  0.00  0.00     0.039 A 
ATOM     25  C17 NON d   1     -43.039  18.599  -5.369  0.00  0.00     0.047 A 
BRANCH  24  26
ATOM     26  C16 NON d   1     -41.392  20.135  -6.466  0.00  0.00     0.249 C 
ATOM     27  N3  NON d   1     -40.848  21.336  -6.100  0.00  0.00    -0.366 N 
ATOM     28  H17 NON d   1     -40.793  21.659  -5.145  0.00  0.00     0.159 HD
ATOM     29  H18 NON d   1     -40.662  21.998  -6.843  0.00  0.00     0.159 HD
ATOM     30  O3  NON d   1     -41.584  19.881  -7.648  0.00  0.00    -0.268 OA
ENDBRANCH  24  26
ENDBRANCH   3  19
TORSDOF 5
ENDMDL
MODEL 3
REMARK VINA RESULT:   -10.969      2.051      9.120
REMARK INTER + INTRA:         -13.142
REMARK INTER:                 -12.461
REMARK INTRA:                  -0.681
REMARK CONF_INDEPENDENT:        1.492
REMARK UNBOUND:                -0.681
REMARK  5 active torsions:
REMARK  status: ('A' for Active; 'I' for Inactive)
REMARK    1  A    between atoms: C6_6  and  C7_7 
REMARK    2  A    between atoms: C7_7  and  N1_8 
REMARK       I    between atoms: N1_8  and  C8_9 
REMARK    3  A    between atoms: C8_9  and  C9_11 
REMARK       I    between atoms: C9_11  and  N2_13 
REMARK    4  A    between atoms: N2_13  and  C10_14 
REMARK    5  A    between atoms: C15_19  and  C16_20 
REMARK       I    between atoms: C16_20  and  N3_21 
ROOT
ATOM      1  C9  NON d   1     -45.478  16.620  -4.746  0.00  0.00     0.313 C 
ATOM      2  O2  NON d   1     -45.949  16.845  -5.852  0.00  0.00    -0.262 OA
ATOM      3  N2  NON d   1     -46.119  16.211  -3.594  0.00  0.00    -0.319 N 
ATOM      4  H11 NON d   1     -45.495  16.030  -2.810  0.00  0.00     0.169 HD
ENDROOT
BRANCH   1   5
ATOM      5  C8  NON d   1     -43.960  16.817  -4.527  0.00  0.00     0.309 C 
ATOM      6  N1  NON d   1     -43.644  17.561  -3.416  0.00  0.00    -0.349 N 
ATOM      7  H10 NON d   1     -44.400  18.076  -2.980  0.00  0.00     0.163 HD
ATOM      8  O1  NON d   1     -43.165  16.312  -5.309  0.00  0.00    -0.262 OA
BRANCH   6   9
ATOM      9  C7  NON d   1     -42.285  17.733  -2.970  0.00  0.00     0.162 C 
BRANCH   9  10
ATOM     10  C6  NON d   1     -41.305  18.345  -3.963  0.00  0.00    -0.029 A 
ATOM     11  C4  NON d   1     -39.917  18.178  -3.687  0.00  0.00    -0.053 A 
ATOM     12  C3  NON d   1     -38.939  18.679  -4.567  0.00  0.00     0.014 A 
ATOM     13  C5  NON d   1     -39.464  17.445  -2.411  0.00  0.00     0.049 C 
ATOM     14  C2  NON d   1     -39.300  19.384  -5.710  0.00  0.00    -0.061 A 
ATOM     15  C1  NON d   1     -38.258  19.965  -6.618  0.00  0.00     0.048 C 
ATOM     16  C20 NON d   1     -40.655  19.616  -5.950  0.00  0.00     0.014 A 
ATOM     17  C18 NON d   1     -41.664  19.133  -5.086  0.00  0.00    -0.053 A 
ATOM     18  C19 NON d   1     -43.076  19.504  -5.456  0.00  0.00     0.049 C 
ENDBRANCH   9  10
ENDBRANCH   6   9
ENDBRANCH   1   5
BRANCH   3  19
ATOM     19  C10 NON d   1     -47.503  16.087  -3.371  0.00  0.00     0.036 A 
ATOM     20  C11 NON d   1     -48.206  15.203  -4.193  0.00  0.00     0.030 A 
ATOM     21  C12 NON d   1     -49.576  14.996  -4.009  0.00  0.00     0.010 A 
ATOM     22  C13 NON d   1     -50.272  15.648  -2.979  0.00  0.00    -0.046 A 
ATOM     23  C14 NON d   1     -51.740  15.370  -2.810  0.00  0.00     0.049 C 
ATOM     24  C15 NON d   1     -49.565  16.538  -2.144  0.00  0.00     0.039 A 
ATOM     25  C17 NON d   1     -48.190  16.765  -2.362  0.00  0.00     0.047 A 
BRANCH  24  26
ATOM     26  C16 NON d   1     -50.251  17.255  -1.026  0.00  0.00     0.249 C 
ATOM     27  N3  NON d   1     -49.458  17.741  -0.022  0.00  0.00    -0.366 N 
ATOM     28  H17 NON d   1     -48.472  17.542   0.060  0.00  0.00     0.159 HD
ATOM     29  H18 NON d   1     -49.929  18.166   0.766  0.00  0.00     0.159 HD
ATOM     30  O3  NON d   1     -51.466  17.391  -0.971  0.00  0.00    -0.268 OA
ENDBRANCH  24  26
ENDBRANCH   3  19
TORSDOF 5
ENDMDL
MODEL 4
REMARK VINA RESULT:   -10.332      2.212      8.849
REMARK INTER + INTRA:         -13.480
REMARK INTER:                 -11.823
REMARK INTRA:                  -1.657
REMARK CONF_INDEPENDENT:        1.492
REMARK UNBOUND:                -1.657
REMARK  5 active torsions:
REMARK  status: ('A' for Active; 'I' for Inactive)
REMARK    1  A    between atoms: C6_6  and  C7_7 
REMARK    2  A    between atoms: C7_7  and  N1_8 
REMARK       I    between atoms: N1_8  and  C8_9 
REMARK    3  A    between atoms: C8_9  and  C9_11 
REMARK       I    between atoms: C9_11  and  N2_13 
REMARK    4  A    between atoms: N2_13  and  C10_14 
REMARK    5  A    between atoms: C15_19  and  C16_20 
REMARK       I    between atoms: C16_20  and  N3_21 
ROOT
ATOM      1  C9  NON d   1     -45.157  16.892  -4.659  0.00  0.00     0.313 C 
ATOM      2  O2  NON d   1     -45.565  16.952  -5.810  0.00  0.00    -0.262 OA
ATOM      3  N2  NON d   1     -45.829  16.506  -3.517  0.00  0.00    -0.319 N 
ATOM      4  H11 NON d   1     -45.251  16.480  -2.680  0.00  0.00     0.169 HD
ENDROOT
BRANCH   1   5
ATOM      5  C8  NON d   1     -43.697  17.307  -4.362  0.00  0.00     0.309 C 
ATOM      6  N1  NON d   1     -42.842  17.156  -5.426  0.00  0.00    -0.349 N 
ATOM      7  H10 NON d   1     -43.177  16.606  -6.208  0.00  0.00     0.163 HD
ATOM      8  O1  NON d   1     -43.405  17.740  -3.254  0.00  0.00    -0.262 OA
BRANCH   6   9
ATOM      9  C7  NON d   1     -41.478  17.621  -5.385  0.00  0.00     0.162 C 
BRANCH   9  10
ATOM     10  C6  NON d   1     -41.221  18.941  -4.669  0.00  0.00    -0.029 A 
ATOM     11  C4  NON d   1     -41.256  20.123  -5.464  0.00  0.00    -0.053 A 
ATOM     12  C3  NON d   1     -41.065  21.391  -4.883  0.00  0.00     0.014 A 
ATOM     13  C5  NON d   1     -41.501  20.030  -6.982  0.00  0.00     0.049 C 
ATOM     14  C2  NON d   1     -40.799  21.522  -3.524  0.00  0.00    -0.061 A 
ATOM     15  C1  NON d   1     -40.541  22.868  -2.915  0.00  0.00     0.048 C 
ATOM     16  C20 NON d   1     -40.690  20.365  -2.752  0.00  0.00     0.014 A 
ATOM     17  C18 NON d   1     -40.871  19.076  -3.302  0.00  0.00    -0.053 A 
ATOM     18  C19 NON d   1     -40.676  17.924  -2.350  0.00  0.00     0.049 C 
ENDBRANCH   9  10
ENDBRANCH   6   9
ENDBRANCH   1   5
BRANCH   3  19
ATOM     19  C10 NON d   1     -47.200  16.221  -3.374  0.00  0.00     0.036 A 
ATOM     20  C11 NON d   1     -47.730  15.214  -4.183  0.00  0.00     0.030 A 
ATOM     21  C12 NON d   1     -49.074  14.845  -4.074  0.00  0.00     0.010 A 
ATOM     22  C13 NON d   1     -49.915  15.457  -3.131  0.00  0.00    -0.046 A 
ATOM     23  C14 NON d   1     -51.346  15.005  -3.038  0.00  0.00     0.049 C 
ATOM     24  C15 NON d   1     -49.382  16.471  -2.309  0.00  0.00     0.039 A 
ATOM     25  C17 NON d   1     -48.033  16.858  -2.454  0.00  0.00     0.047 A 
BRANCH  24  26
ATOM     26  C16 NON d   1     -50.227  17.154  -1.282  0.00  0.00     0.249 C 
ATOM     27  N3  NON d   1     -49.588  17.631  -0.170  0.00  0.00    -0.366 N 
ATOM     28  H17 NON d   1     -48.618  17.446   0.042  0.00  0.00     0.159 HD
ATOM     29  H18 NON d   1     -50.170  18.032   0.554  0.00  0.00     0.159 HD
ATOM     30  O3  NON d   1     -51.441  17.269  -1.391  0.00  0.00    -0.268 OA
ENDBRANCH  24  26
ENDBRANCH   3  19
TORSDOF 5
ENDMDL
MODEL 5
REMARK VINA RESULT:   -10.163      2.197      8.912
REMARK INTER + INTRA:         -13.147
REMARK INTER:                 -11.654
REMARK INTRA:                  -1.493
REMARK CONF_INDEPENDENT:        1.492
REMARK UNBOUND:                -1.493
REMARK  5 active torsions:
REMARK  status: ('A' for Active; 'I' for Inactive)
REMARK    1  A    between atoms: C6_6  and  C7_7 
REMARK    2  A    between atoms: C7_7  and  N1_8 
REMARK       I    between atoms: N1_8  and  C8_9 
REMARK    3  A    between atoms: C8_9  and  C9_11 
REMARK       I    between atoms: C9_11  and  N2_13 
REMARK    4  A    between atoms: N2_13  and  C10_14 
REMARK    5  A    between atoms: C15_19  and  C16_20 
REMARK       I    between atoms: C16_20  and  N3_21 
ROOT
ATOM      1  C9  NON d   1     -45.137  16.936  -4.661  0.00  0.00     0.313 C 
ATOM      2  O2  NON d   1     -45.548  17.012  -5.810  0.00  0.00    -0.262 OA
ATOM      3  N2  NON d   1     -45.807  16.534  -3.522  0.00  0.00    -0.319 N 
ATOM      4  H11 NON d   1     -45.227  16.497  -2.687  0.00  0.00     0.169 HD
ENDROOT
BRANCH   1   5
ATOM      5  C8  NON d   1     -43.678  17.349  -4.361  0.00  0.00     0.309 C 
ATOM      6  N1  NON d   1     -42.811  17.151  -5.408  0.00  0.00    -0.349 N 
ATOM      7  H10 NON d   1     -43.142  16.576  -6.175  0.00  0.00     0.163 HD
ATOM      8  O1  NON d   1     -43.395  17.819  -3.267  0.00  0.00    -0.262 OA
BRANCH   6   9
ATOM      9  C7  NON d   1     -41.444  17.605  -5.368  0.00  0.00     0.162 C 
BRANCH   9  10
ATOM     10  C6  NON d   1     -41.200  19.015  -4.847  0.00  0.00    -0.029 A 
ATOM     11  C4  NON d   1     -40.869  19.146  -3.468  0.00  0.00    -0.053 A 
ATOM     12  C3  NON d   1     -40.592  20.407  -2.906  0.00  0.00     0.014 A 
ATOM     13  C5  NON d   1     -40.813  17.900  -2.563  0.00  0.00     0.049 C 
ATOM     14  C2  NON d   1     -40.672  21.564  -3.673  0.00  0.00    -0.061 A 
ATOM     15  C1  NON d   1     -40.430  22.912  -3.062  0.00  0.00     0.048 C 
ATOM     16  C20 NON d   1     -41.067  21.453  -5.007  0.00  0.00     0.014 A 
ATOM     17  C18 NON d   1     -41.357  20.205  -5.602  0.00  0.00    -0.053 A 
ATOM     18  C19 NON d   1     -41.814  20.255  -7.038  0.00  0.00     0.049 C 
ENDBRANCH   9  10
ENDBRANCH   6   9
ENDBRANCH   1   5
BRANCH   3  19
ATOM     19  C10 NON d   1     -47.177  16.245  -3.381  0.00  0.00     0.036 A 
ATOM     20  C11 NON d   1     -47.707  15.246  -4.200  0.00  0.00     0.030 A 
ATOM     21  C12 NON d   1     -49.051  14.875  -4.093  0.00  0.00     0.010 A 
ATOM     22  C13 NON d   1     -49.890  15.475  -3.142  0.00  0.00    -0.046 A 
ATOM     23  C14 NON d   1     -51.321  15.020  -3.052  0.00  0.00     0.049 C 
ATOM     24  C15 NON d   1     -49.358  16.481  -2.310  0.00  0.00     0.039 A 
ATOM     25  C17 NON d   1     -48.010  16.871  -2.452  0.00  0.00     0.047 A 
BRANCH  24  26
ATOM     26  C16 NON d   1     -50.202  17.151  -1.273  0.00  0.00     0.249 C 
ATOM     27  N3  NON d   1     -49.559  17.630  -0.165  0.00  0.00    -0.366 N 
ATOM     28  H17 NON d   1     -48.587  17.454   0.040  0.00  0.00     0.159 HD
ATOM     29  H18 NON d   1     -50.140  18.023   0.565  0.00  0.00     0.159 HD
ATOM     30  O3  NON d   1     -51.418  17.255  -1.373  0.00  0.00    -0.268 OA
ENDBRANCH  24  26
ENDBRANCH   3  19
TORSDOF 5
ENDMDL
MODEL 6
REMARK VINA RESULT:    -9.816      2.415      9.545
REMARK INTER + INTRA:         -13.017
REMARK INTER:                 -11.308
REMARK INTRA:                  -1.709
REMARK CONF_INDEPENDENT:        1.492
REMARK UNBOUND:                -1.709
REMARK  5 active torsions:
REMARK  status: ('A' for Active; 'I' for Inactive)
REMARK    1  A    between atoms: C6_6  and  C7_7 
REMARK    2  A    between atoms: C7_7  and  N1_8 
REMARK       I    between atoms: N1_8  and  C8_9 
REMARK    3  A    between atoms: C8_9  and  C9_11 
REMARK       I    between atoms: C9_11  and  N2_13 
REMARK    4  A    between atoms: N2_13  and  C10_14 
REMARK    5  A    between atoms: C15_19  and  C16_20 
REMARK       I    between atoms: C16_20  and  N3_21 
ROOT
ATOM      1  C9  NON d   1     -45.061  17.566  -5.059  0.00  0.00     0.313 C 
ATOM      2  O2  NON d   1     -45.565  17.760  -6.156  0.00  0.00    -0.262 OA
ATOM      3  N2  NON d   1     -45.593  16.924  -3.958  0.00  0.00    -0.319 N 
ATOM      4  H11 NON d   1     -44.949  16.834  -3.175  0.00  0.00     0.169 HD
ENDROOT
BRANCH   1   5
ATOM      5  C8  NON d   1     -43.636  18.101  -4.787  0.00  0.00     0.309 C 
ATOM      6  N1  NON d   1     -43.367  19.310  -5.381  0.00  0.00    -0.349 N 
ATOM      7  H10 NON d   1     -44.017  19.626  -6.092  0.00  0.00     0.163 HD
ATOM      8  O1  NON d   1     -42.873  17.457  -4.080  0.00  0.00    -0.262 OA
BRANCH   6   9
ATOM      9  C7  NON d   1     -42.147  20.034  -5.129  0.00  0.00     0.162 C 
BRANCH   9  10
ATOM     10  C6  NON d   1     -40.921  19.622  -5.934  0.00  0.00    -0.029 A 
ATOM     11  C4  NON d   1     -39.781  19.189  -5.198  0.00  0.00    -0.053 A 
ATOM     12  C3  NON d   1     -38.615  18.755  -5.859  0.00  0.00     0.014 A 
ATOM     13  C5  NON d   1     -39.805  19.194  -3.658  0.00  0.00     0.049 C 
ATOM     14  C2  NON d   1     -38.532  18.773  -7.247  0.00  0.00    -0.061 A 
ATOM     15  C1  NON d   1     -37.271  18.363  -7.948  0.00  0.00     0.048 C 
ATOM     16  C20 NON d   1     -39.617  19.264  -7.973  0.00  0.00     0.014 A 
ATOM     17  C18 NON d   1     -40.800  19.712  -7.344  0.00  0.00    -0.053 A 
ATOM     18  C19 NON d   1     -41.864  20.255  -8.263  0.00  0.00     0.049 C 
ENDBRANCH   9  10
ENDBRANCH   6   9
ENDBRANCH   1   5
BRANCH   3  19
ATOM     19  C10 NON d   1     -46.908  16.456  -3.781  0.00  0.00     0.036 A 
ATOM     20  C11 NON d   1     -47.341  15.432  -4.626  0.00  0.00     0.030 A 
ATOM     21  C12 NON d   1     -48.621  14.887  -4.488  0.00  0.00     0.010 A 
ATOM     22  C13 NON d   1     -49.489  15.335  -3.481  0.00  0.00    -0.046 A 
ATOM     23  C14 NON d   1     -50.846  14.697  -3.361  0.00  0.00     0.049 C 
ATOM     24  C15 NON d   1     -49.055  16.366  -2.623  0.00  0.00     0.039 A 
ATOM     25  C17 NON d   1     -47.774  16.931  -2.795  0.00  0.00     0.047 A 
BRANCH  24  26
ATOM     26  C16 NON d   1     -49.934  16.879  -1.527  0.00  0.00     0.249 C 
ATOM     27  N3  NON d   1     -49.315  17.305  -0.384  0.00  0.00    -0.366 N 
ATOM     28  H17 NON d   1     -48.329  17.184  -0.201  0.00  0.00     0.159 HD
ATOM     29  H18 NON d   1     -49.914  17.589   0.381  0.00  0.00     0.159 HD
ATOM     30  O3  NON d   1     -51.155  16.901  -1.611  0.00  0.00    -0.268 OA
ENDBRANCH  24  26
ENDBRANCH   3  19
TORSDOF 5
ENDMDL
