MODEL 1
REMARK VINA RESULT:   -18.941      0.000      0.000
REMARK INTER + INTRA:         -24.509
REMARK INTER:                 -22.520
REMARK INTRA:                  -1.989
REMARK CONF_INDEPENDENT:        3.580
REMARK UNBOUND:                -1.989
REMARK  12 active torsions:
REMARK  status: ('A' for Active; 'I' for Inactive)
REMARK    1  A    between atoms: C2_2  and  O1_3 
REMARK    2  A    between atoms: O1_3  and  C3_4 
REMARK    3  A    between atoms: C6_7  and  N1_8 
REMARK    4  A    between atoms: C7_9  and  N1_8 
REMARK    5  A    between atoms: C7_9  and  C8_10 
REMARK    6  A    between atoms: C7_9  and  C16_19 
REMARK    7  A    between atoms: C8_10  and  C9_11 
REMARK    8  A    between atoms: C9_11  and  C10_13 
REMARK    9  A    between atoms: C16_19  and  O4_21 
REMARK   10  A    between atoms: O4_21  and  C17_22 
REMARK   11  A    between atoms: C17_22  and  C18_23 
REMARK   12  A    between atoms: C18_23  and  C19_25 
ROOT
ATOM      1  C7  NON d   1     -41.087  18.225  -5.048  0.00  0.00     0.167 C 
ENDROOT
BRANCH   1   2
ATOM      2  N1  NON d   1     -39.881  18.393  -4.199  0.00  0.00    -0.279 NA
ATOM      3  H8  NON d   1     -39.612  17.514  -3.751  0.00  0.00     0.128 HD
BRANCH   2   4
ATOM      4  C6  NON d   1     -39.833  19.482  -3.319  0.00  0.00     0.009 A 
ATOM      5  C5  NON d   1     -40.372  19.419  -2.033  0.00  0.00     0.026 A 
ATOM      6  C4  NON d   1     -40.310  20.535  -1.173  0.00  0.00     0.038 A 
ATOM      7  C3  NON d   1     -39.719  21.735  -1.592  0.00  0.00     0.068 A 
ATOM      8  C24 NON d   1     -39.198  21.802  -2.878  0.00  0.00     0.038 A 
ATOM      9  C23 NON d   1     -39.253  20.689  -3.720  0.00  0.00     0.026 A 
BRANCH   7  10
ATOM     10  O1  NON d   1     -39.682  22.747  -0.669  0.00  0.00    -0.352 OA
BRANCH  10  11
ATOM     11  C2  NON d   1     -40.005  22.384   0.676  0.00  0.00     0.171 C 
ATOM     12  C1  NON d   1     -41.068  23.327   1.209  0.00  0.00     0.034 C 
ENDBRANCH  10  11
ENDBRANCH   7  10
ENDBRANCH   2   4
ENDBRANCH   1   2
BRANCH   1  13
ATOM     13  C8  NON d   1     -41.566  19.490  -5.792  0.00  0.00     0.114 C 
BRANCH  13  14
ATOM     14  C9  NON d   1     -41.050  19.812  -7.189  0.00  0.00     0.161 C 
ATOM     15  O2  NON d   1     -41.746  20.323  -8.062  0.00  0.00    -0.292 OA
BRANCH  14  16
ATOM     16  C10 NON d   1     -39.584  19.608  -7.468  0.00  0.00     0.010 A 
ATOM     17  C11 NON d   1     -38.655  20.466  -6.859  0.00  0.00     0.015 A 
ATOM     18  C12 NON d   1     -37.282  20.269  -7.034  0.00  0.00     0.001 A 
ATOM     19  C13 NON d   1     -36.822  19.219  -7.825  0.00  0.00     0.000 A 
ATOM     20  C14 NON d   1     -37.733  18.370  -8.450  0.00  0.00     0.001 A 
ATOM     21  C15 NON d   1     -39.109  18.563  -8.273  0.00  0.00     0.015 A 
ENDBRANCH  14  16
ENDBRANCH  13  14
ENDBRANCH   1  13
BRANCH   1  22
ATOM     22  C16 NON d   1     -42.289  17.641  -4.286  0.00  0.00     0.277 C 
ATOM     23  O3  NON d   1     -42.186  16.985  -3.253  0.00  0.00    -0.263 OA
BRANCH  22  24
ATOM     24  O4  NON d   1     -43.476  17.962  -4.873  0.00  0.00    -0.312 OA
BRANCH  24  25
ATOM     25  C17 NON d   1     -44.614  17.278  -4.342  0.00  0.00     0.263 C 
BRANCH  25  26
ATOM     26  C18 NON d   1     -45.880  17.289  -5.210  0.00  0.00     0.190 C 
ATOM     27  O5  NON d   1     -45.938  17.996  -6.219  0.00  0.00    -0.289 OA
BRANCH  26  28
ATOM     28  C19 NON d   1     -47.016  16.477  -4.765  0.00  0.00     0.052 A 
ATOM     29  C20 NON d   1     -47.591  16.465  -3.505  0.00  0.00     0.023 A 
ATOM     30  C21 NON d   1     -48.687  15.554  -3.404  0.00  0.00     0.009 A 
ATOM     31  C22 NON d   1     -48.925  14.904  -4.595  0.00  0.00     0.050 A 
ATOM     32  S1  NON d   1     -47.825  15.380  -5.809  0.00  0.00    -0.098 SA
ENDBRANCH  26  28
ENDBRANCH  25  26
ENDBRANCH  24  25
ENDBRANCH  22  24
ENDBRANCH   1  22
TORSDOF 12
ENDMDL
MODEL 2
REMARK VINA RESULT:   -18.931      1.111      1.356
REMARK INTER + INTRA:         -24.398
REMARK INTER:                 -22.511
REMARK INTRA:                  -1.887
REMARK CONF_INDEPENDENT:        3.580
REMARK UNBOUND:                -1.887
REMARK  12 active torsions:
REMARK  status: ('A' for Active; 'I' for Inactive)
REMARK    1  A    between atoms: C2_2  and  O1_3 
REMARK    2  A    between atoms: O1_3  and  C3_4 
REMARK    3  A    between atoms: C6_7  and  N1_8 
REMARK    4  A    between atoms: C7_9  and  N1_8 
REMARK    5  A    between atoms: C7_9  and  C8_10 
REMARK    6  A    between atoms: C7_9  and  C16_19 
REMARK    7  A    between atoms: C8_10  and  C9_11 
REMARK    8  A    between atoms: C9_11  and  C10_13 
REMARK    9  A    between atoms: C16_19  and  O4_21 
REMARK   10  A    between atoms: O4_21  and  C17_22 
REMARK   11  A    between atoms: C17_22  and  C18_23 
REMARK   12  A    between atoms: C18_23  and  C19_25 
ROOT
ATOM      1  C7  NON d   1     -41.277  18.249  -5.236  0.00  0.00     0.167 C 
ENDROOT
BRANCH   1   2
ATOM      2  N1  NON d   1     -40.587  17.770  -4.013  0.00  0.00    -0.279 NA
ATOM      3  H8  NON d   1     -41.181  17.139  -3.470  0.00  0.00     0.128 HD
BRANCH   2   4
ATOM      4  C6  NON d   1     -39.927  18.710  -3.210  0.00  0.00     0.009 A 
ATOM      5  C5  NON d   1     -40.616  19.711  -2.522  0.00  0.00     0.026 A 
ATOM      6  C4  NON d   1     -39.921  20.644  -1.725  0.00  0.00     0.038 A 
ATOM      7  C3  NON d   1     -38.524  20.597  -1.615  0.00  0.00     0.068 A 
ATOM      8  C24 NON d   1     -37.838  19.611  -2.312  0.00  0.00     0.038 A 
ATOM      9  C23 NON d   1     -38.535  18.683  -3.090  0.00  0.00     0.026 A 
BRANCH   7  10
ATOM     10  O1  NON d   1     -37.950  21.528  -0.790  0.00  0.00    -0.352 OA
BRANCH  10  11
ATOM     11  C2  NON d   1     -38.226  21.388   0.607  0.00  0.00     0.171 C 
ATOM     12  C1  NON d   1     -39.477  22.175   0.952  0.00  0.00     0.034 C 
ENDBRANCH  10  11
ENDBRANCH   7  10
ENDBRANCH   2   4
ENDBRANCH   1   2
BRANCH   1  13
ATOM     13  C8  NON d   1     -40.751  19.574  -5.828  0.00  0.00     0.114 C 
BRANCH  13  14
ATOM     14  C9  NON d   1     -40.679  19.776  -7.337  0.00  0.00     0.161 C 
ATOM     15  O2  NON d   1     -41.629  20.166  -8.010  0.00  0.00    -0.292 OA
BRANCH  14  16
ATOM     16  C10 NON d   1     -39.343  19.609  -8.012  0.00  0.00     0.010 A 
ATOM     17  C11 NON d   1     -38.848  20.660  -8.799  0.00  0.00     0.015 A 
ATOM     18  C12 NON d   1     -37.582  20.575  -9.386  0.00  0.00     0.001 A 
ATOM     19  C13 NON d   1     -36.800  19.437  -9.199  0.00  0.00     0.000 A 
ATOM     20  C14 NON d   1     -37.285  18.379  -8.434  0.00  0.00     0.001 A 
ATOM     21  C15 NON d   1     -38.552  18.463  -7.843  0.00  0.00     0.015 A 
ENDBRANCH  14  16
ENDBRANCH  13  14
ENDBRANCH   1  13
BRANCH   1  22
ATOM     22  C16 NON d   1     -42.799  18.381  -5.063  0.00  0.00     0.277 C 
ATOM     23  O3  NON d   1     -43.428  19.403  -5.325  0.00  0.00    -0.263 OA
BRANCH  22  24
ATOM     24  O4  NON d   1     -43.369  17.226  -4.616  0.00  0.00    -0.312 OA
BRANCH  24  25
ATOM     25  C17 NON d   1     -44.692  17.372  -4.092  0.00  0.00     0.263 C 
BRANCH  25  26
ATOM     26  C18 NON d   1     -45.840  17.250  -5.104  0.00  0.00     0.190 C 
ATOM     27  O5  NON d   1     -45.785  17.842  -6.185  0.00  0.00    -0.289 OA
BRANCH  26  28
ATOM     28  C19 NON d   1     -47.008  16.456  -4.713  0.00  0.00     0.052 A 
ATOM     29  C20 NON d   1     -47.618  16.423  -3.469  0.00  0.00     0.023 A 
ATOM     30  C21 NON d   1     -48.739  15.539  -3.425  0.00  0.00     0.009 A 
ATOM     31  C22 NON d   1     -48.960  14.929  -4.640  0.00  0.00     0.050 A 
ATOM     32  S1  NON d   1     -47.815  15.410  -5.810  0.00  0.00    -0.098 SA
ENDBRANCH  26  28
ENDBRANCH  25  26
ENDBRANCH  24  25
ENDBRANCH  22  24
ENDBRANCH   1  22
TORSDOF 12
ENDMDL
MODEL 3
REMARK VINA RESULT:   -18.505      1.310      1.651
REMARK INTER + INTRA:         -24.457
REMARK INTER:                 -22.084
REMARK INTRA:                  -2.373
REMARK CONF_INDEPENDENT:        3.580
REMARK UNBOUND:                -2.373
REMARK  12 active torsions:
REMARK  status: ('A' for Active; 'I' for Inactive)
REMARK    1  A    between atoms: C2_2  and  O1_3 
REMARK    2  A    between atoms: O1_3  and  C3_4 
REMARK    3  A    between atoms: C6_7  and  N1_8 
REMARK    4  A    between atoms: C7_9  and  N1_8 
REMARK    5  A    between atoms: C7_9  and  C8_10 
REMARK    6  A    between atoms: C7_9  and  C16_19 
REMARK    7  A    between atoms: C8_10  and  C9_11 
REMARK    8  A    between atoms: C9_11  and  C10_13 
REMARK    9  A    between atoms: C16_19  and  O4_21 
REMARK   10  A    between atoms: O4_21  and  C17_22 
REMARK   11  A    between atoms: C17_22  and  C18_23 
REMARK   12  A    between atoms: C18_23  and  C19_25 
ROOT
ATOM      1  C7  NON d   1     -41.728  18.413  -5.344  0.00  0.00     0.167 C 
ENDROOT
BRANCH   1   2
ATOM      2  N1  NON d   1     -41.042  17.850  -4.155  0.00  0.00    -0.279 NA
ATOM      3  H8  NON d   1     -41.683  17.304  -3.575  0.00  0.00     0.128 HD
BRANCH   2   4
ATOM      4  C6  NON d   1     -40.221  18.696  -3.397  0.00  0.00     0.009 A 
ATOM      5  C5  NON d   1     -38.928  18.329  -3.020  0.00  0.00     0.026 A 
ATOM      6  C4  NON d   1     -38.128  19.202  -2.254  0.00  0.00     0.038 A 
ATOM      7  C3  NON d   1     -38.615  20.451  -1.843  0.00  0.00     0.068 A 
ATOM      8  C24 NON d   1     -39.908  20.808  -2.205  0.00  0.00     0.038 A 
ATOM      9  C23 NON d   1     -40.690  19.942  -2.974  0.00  0.00     0.026 A 
BRANCH   7  10
ATOM     10  O1  NON d   1     -37.747  21.235  -1.131  0.00  0.00    -0.352 OA
BRANCH  10  11
ATOM     11  C2  NON d   1     -38.152  21.574   0.199  0.00  0.00     0.171 C 
ATOM     12  C1  NON d   1     -36.950  21.498   1.123  0.00  0.00     0.034 C 
ENDBRANCH  10  11
ENDBRANCH   7  10
ENDBRANCH   2   4
ENDBRANCH   1   2
BRANCH   1  13
ATOM     13  C8  NON d   1     -41.061  19.651  -5.980  0.00  0.00     0.114 C 
BRANCH  13  14
ATOM     14  C9  NON d   1     -40.384  19.556  -7.342  0.00  0.00     0.161 C 
ATOM     15  O2  NON d   1     -40.939  19.865  -8.392  0.00  0.00    -0.292 OA
BRANCH  14  16
ATOM     16  C10 NON d   1     -38.925  19.183  -7.384  0.00  0.00     0.010 A 
ATOM     17  C11 NON d   1     -38.201  19.152  -6.183  0.00  0.00     0.015 A 
ATOM     18  C12 NON d   1     -36.864  18.743  -6.167  0.00  0.00     0.001 A 
ATOM     19  C13 NON d   1     -36.234  18.369  -7.353  0.00  0.00     0.000 A 
ATOM     20  C14 NON d   1     -36.936  18.413  -8.555  0.00  0.00     0.001 A 
ATOM     21  C15 NON d   1     -38.276  18.818  -8.573  0.00  0.00     0.015 A 
ENDBRANCH  14  16
ENDBRANCH  13  14
ENDBRANCH   1  13
BRANCH   1  22
ATOM     22  C16 NON d   1     -43.206  18.752  -5.088  0.00  0.00     0.277 C 
ATOM     23  O3  NON d   1     -43.865  19.503  -5.802  0.00  0.00    -0.263 OA
BRANCH  22  24
ATOM     24  O4  NON d   1     -43.704  18.100  -4.000  0.00  0.00    -0.312 OA
BRANCH  24  25
ATOM     25  C17 NON d   1     -44.408  16.891  -4.293  0.00  0.00     0.263 C 
BRANCH  25  26
ATOM     26  C18 NON d   1     -45.658  17.030  -5.174  0.00  0.00     0.190 C 
ATOM     27  O5  NON d   1     -45.635  17.737  -6.184  0.00  0.00    -0.289 OA
BRANCH  26  28
ATOM     28  C19 NON d   1     -46.875  16.338  -4.740  0.00  0.00     0.052 A 
ATOM     29  C20 NON d   1     -47.431  16.344  -3.471  0.00  0.00     0.023 A 
ATOM     30  C21 NON d   1     -48.625  15.563  -3.385  0.00  0.00     0.009 A 
ATOM     31  C22 NON d   1     -48.952  14.991  -4.595  0.00  0.00     0.050 A 
ATOM     32  S1  NON d   1     -47.820  15.383  -5.810  0.00  0.00    -0.098 SA
ENDBRANCH  26  28
ENDBRANCH  25  26
ENDBRANCH  24  25
ENDBRANCH  22  24
ENDBRANCH   1  22
TORSDOF 12
ENDMDL
MODEL 4
REMARK VINA RESULT:   -18.484      1.292      1.766
REMARK INTER + INTRA:         -23.754
REMARK INTER:                 -22.063
REMARK INTRA:                  -1.691
REMARK CONF_INDEPENDENT:        3.580
REMARK UNBOUND:                -1.691
REMARK  12 active torsions:
REMARK  status: ('A' for Active; 'I' for Inactive)
REMARK    1  A    between atoms: C2_2  and  O1_3 
REMARK    2  A    between atoms: O1_3  and  C3_4 
REMARK    3  A    between atoms: C6_7  and  N1_8 
REMARK    4  A    between atoms: C7_9  and  N1_8 
REMARK    5  A    between atoms: C7_9  and  C8_10 
REMARK    6  A    between atoms: C7_9  and  C16_19 
REMARK    7  A    between atoms: C8_10  and  C9_11 
REMARK    8  A    between atoms: C9_11  and  C10_13 
REMARK    9  A    between atoms: C16_19  and  O4_21 
REMARK   10  A    between atoms: O4_21  and  C17_22 
REMARK   11  A    between atoms: C17_22  and  C18_23 
REMARK   12  A    between atoms: C18_23  and  C19_25 
ROOT
ATOM      1  C7  NON d   1     -41.057  18.159  -4.694  0.00  0.00     0.167 C 
ENDROOT
BRANCH   1   2
ATOM      2  N1  NON d   1     -39.965  18.612  -3.798  0.00  0.00    -0.279 NA
ATOM      3  H8  NON d   1     -39.669  17.868  -3.161  0.00  0.00     0.128 HD
BRANCH   2   4
ATOM      4  C6  NON d   1     -40.103  19.848  -3.153  0.00  0.00     0.009 A 
ATOM      5  C5  NON d   1     -39.930  19.988  -1.775  0.00  0.00     0.026 A 
ATOM      6  C4  NON d   1     -40.079  21.246  -1.156  0.00  0.00     0.038 A 
ATOM      7  C3  NON d   1     -40.417  22.381  -1.906  0.00  0.00     0.068 A 
ATOM      8  C24 NON d   1     -40.606  22.239  -3.275  0.00  0.00     0.038 A 
ATOM      9  C23 NON d   1     -40.445  20.990  -3.882  0.00  0.00     0.026 A 
BRANCH   7  10
ATOM     10  O1  NON d   1     -40.506  23.560  -1.214  0.00  0.00    -0.352 OA
BRANCH  10  11
ATOM     11  C2  NON d   1     -40.983  23.466   0.132  0.00  0.00     0.171 C 
ATOM     12  C1  NON d   1     -41.397  24.844   0.616  0.00  0.00     0.034 C 
ENDBRANCH  10  11
ENDBRANCH   7  10
ENDBRANCH   2   4
ENDBRANCH   1   2
BRANCH   1  13
ATOM     13  C8  NON d   1     -41.340  19.059  -5.916  0.00  0.00     0.114 C 
BRANCH  13  14
ATOM     14  C9  NON d   1     -40.338  19.151  -7.061  0.00  0.00     0.161 C 
ATOM     15  O2  NON d   1     -39.982  18.181  -7.723  0.00  0.00    -0.292 OA
BRANCH  14  16
ATOM     16  C10 NON d   1     -39.861  20.518  -7.477  0.00  0.00     0.010 A 
ATOM     17  C11 NON d   1     -40.563  21.201  -8.482  0.00  0.00     0.015 A 
ATOM     18  C12 NON d   1     -40.198  22.499  -8.849  0.00  0.00     0.001 A 
ATOM     19  C13 NON d   1     -39.123  23.127  -8.222  0.00  0.00     0.000 A 
ATOM     20  C14 NON d   1     -38.406  22.454  -7.235  0.00  0.00     0.001 A 
ATOM     21  C15 NON d   1     -38.773  21.155  -6.863  0.00  0.00     0.015 A 
ENDBRANCH  14  16
ENDBRANCH  13  14
ENDBRANCH   1  13
BRANCH   1  22
ATOM     22  C16 NON d   1     -42.389  17.927  -3.960  0.00  0.00     0.277 C 
ATOM     23  O3  NON d   1     -42.492  17.880  -2.737  0.00  0.00    -0.263 OA
BRANCH  22  24
ATOM     24  O4  NON d   1     -43.439  17.811  -4.821  0.00  0.00    -0.312 OA
BRANCH  24  25
ATOM     25  C17 NON d   1     -44.634  17.277  -4.244  0.00  0.00     0.263 C 
BRANCH  25  26
ATOM     26  C18 NON d   1     -45.873  17.256  -5.149  0.00  0.00     0.190 C 
ATOM     27  O5  NON d   1     -45.902  17.924  -6.186  0.00  0.00    -0.289 OA
BRANCH  26  28
ATOM     28  C19 NON d   1     -47.023  16.459  -4.707  0.00  0.00     0.052 A 
ATOM     29  C20 NON d   1     -47.475  16.296  -3.409  0.00  0.00     0.023 A 
ATOM     30  C21 NON d   1     -48.625  15.452  -3.324  0.00  0.00     0.009 A 
ATOM     31  C22 NON d   1     -49.024  15.003  -4.564  0.00  0.00     0.050 A 
ATOM     32  S1  NON d   1     -48.009  15.584  -5.807  0.00  0.00    -0.098 SA
ENDBRANCH  26  28
ENDBRANCH  25  26
ENDBRANCH  24  25
ENDBRANCH  22  24
ENDBRANCH   1  22
TORSDOF 12
ENDMDL
MODEL 5
REMARK VINA RESULT:   -18.267      1.715      5.561
REMARK INTER + INTRA:         -24.233
REMARK INTER:                 -21.847
REMARK INTRA:                  -2.386
REMARK CONF_INDEPENDENT:        3.580
REMARK UNBOUND:                -2.386
REMARK  12 active torsions:
REMARK  status: ('A' for Active; 'I' for Inactive)
REMARK    1  A    between atoms: C2_2  and  O1_3 
REMARK    2  A    between atoms: O1_3  and  C3_4 
REMARK    3  A    between atoms: C6_7  and  N1_8 
REMARK    4  A    between atoms: C7_9  and  N1_8 
REMARK    5  A    between atoms: C7_9  and  C8_10 
REMARK    6  A    between atoms: C7_9  and  C16_19 
REMARK    7  A    between atoms: C8_10  and  C9_11 
REMARK    8  A    between atoms: C9_11  and  C10_13 
REMARK    9  A    between atoms: C16_19  and  O4_21 
REMARK   10  A    between atoms: O4_21  and  C17_22 
REMARK   11  A    between atoms: C17_22  and  C18_23 
REMARK   12  A    between atoms: C18_23  and  C19_25 
ROOT
ATOM      1  C7  NON d   1     -41.593  19.307  -4.345  0.00  0.00     0.167 C 
ENDROOT
BRANCH   1   2
ATOM      2  N1  NON d   1     -41.804  19.842  -5.713  0.00  0.00    -0.279 NA
ATOM      3  H8  NON d   1     -42.693  19.526  -6.107  0.00  0.00     0.128 HD
BRANCH   2   4
ATOM      4  C6  NON d   1     -40.749  19.756  -6.631  0.00  0.00     0.009 A 
ATOM      5  C5  NON d   1     -40.212  20.886  -7.250  0.00  0.00     0.026 A 
ATOM      6  C4  NON d   1     -39.153  20.765  -8.173  0.00  0.00     0.038 A 
ATOM      7  C3  NON d   1     -38.622  19.509  -8.499  0.00  0.00     0.068 A 
ATOM      8  C24 NON d   1     -39.167  18.383  -7.895  0.00  0.00     0.038 A 
ATOM      9  C23 NON d   1     -40.210  18.513  -6.973  0.00  0.00     0.026 A 
BRANCH   7  10
ATOM     10  O1  NON d   1     -37.575  19.504  -9.381  0.00  0.00    -0.352 OA
BRANCH  10  11
ATOM     11  C2  NON d   1     -37.021  20.783  -9.709  0.00  0.00     0.171 C 
ATOM     12  C1  NON d   1     -36.831  20.877 -11.212  0.00  0.00     0.034 C 
ENDBRANCH  10  11
ENDBRANCH   7  10
ENDBRANCH   2   4
ENDBRANCH   1   2
BRANCH   1  13
ATOM     13  C8  NON d   1     -40.125  19.046  -3.945  0.00  0.00     0.114 C 
BRANCH  13  14
ATOM     14  C9  NON d   1     -39.187  20.206  -3.633  0.00  0.00     0.161 C 
ATOM     15  O2  NON d   1     -38.126  20.391  -4.225  0.00  0.00    -0.292 OA
BRANCH  14  16
ATOM     16  C10 NON d   1     -39.644  21.241  -2.641  0.00  0.00     0.010 A 
ATOM     17  C11 NON d   1     -40.512  22.255  -3.074  0.00  0.00     0.015 A 
ATOM     18  C12 NON d   1     -41.018  23.195  -2.171  0.00  0.00     0.001 A 
ATOM     19  C13 NON d   1     -40.655  23.137  -0.826  0.00  0.00     0.000 A 
ATOM     20  C14 NON d   1     -39.781  22.147  -0.386  0.00  0.00     0.001 A 
ATOM     21  C15 NON d   1     -39.276  21.202  -1.288  0.00  0.00     0.015 A 
ENDBRANCH  14  16
ENDBRANCH  13  14
ENDBRANCH   1  13
BRANCH   1  22
ATOM     22  C16 NON d   1     -42.394  18.024  -4.065  0.00  0.00     0.277 C 
ATOM     23  O3  NON d   1     -42.125  17.239  -3.160  0.00  0.00    -0.263 OA
BRANCH  22  24
ATOM     24  O4  NON d   1     -43.449  17.879  -4.915  0.00  0.00    -0.312 OA
BRANCH  24  25
ATOM     25  C17 NON d   1     -44.614  17.289  -4.333  0.00  0.00     0.263 C 
BRANCH  25  26
ATOM     26  C18 NON d   1     -45.876  17.275  -5.206  0.00  0.00     0.190 C 
ATOM     27  O5  NON d   1     -45.940  17.969  -6.223  0.00  0.00    -0.289 OA
BRANCH  26  28
ATOM     28  C19 NON d   1     -47.004  16.452  -4.756  0.00  0.00     0.052 A 
ATOM     29  C20 NON d   1     -47.551  16.410  -3.485  0.00  0.00     0.023 A 
ATOM     30  C21 NON d   1     -48.647  15.498  -3.383  0.00  0.00     0.009 A 
ATOM     31  C22 NON d   1     -48.910  14.877  -4.584  0.00  0.00     0.050 A 
ATOM     32  S1  NON d   1     -47.836  15.382  -5.809  0.00  0.00    -0.098 SA
ENDBRANCH  26  28
ENDBRANCH  25  26
ENDBRANCH  24  25
ENDBRANCH  22  24
ENDBRANCH   1  22
TORSDOF 12
ENDMDL
MODEL 6
REMARK VINA RESULT:   -17.769      1.923      5.144
REMARK INTER + INTRA:         -24.100
REMARK INTER:                 -21.349
REMARK INTRA:                  -2.751
REMARK CONF_INDEPENDENT:        3.580
REMARK UNBOUND:                -2.751
REMARK  12 active torsions:
REMARK  status: ('A' for Active; 'I' for Inactive)
REMARK    1  A    between atoms: C2_2  and  O1_3 
REMARK    2  A    between atoms: O1_3  and  C3_4 
REMARK    3  A    between atoms: C6_7  and  N1_8 
REMARK    4  A    between atoms: C7_9  and  N1_8 
REMARK    5  A    between atoms: C7_9  and  C8_10 
REMARK    6  A    between atoms: C7_9  and  C16_19 
REMARK    7  A    between atoms: C8_10  and  C9_11 
REMARK    8  A    between atoms: C9_11  and  C10_13 
REMARK    9  A    between atoms: C16_19  and  O4_21 
REMARK   10  A    between atoms: O4_21  and  C17_22 
REMARK   11  A    between atoms: C17_22  and  C18_23 
REMARK   12  A    between atoms: C18_23  and  C19_25 
ROOT
ATOM      1  C7  NON d   1     -41.834  19.286  -4.333  0.00  0.00     0.167 C 
ENDROOT
BRANCH   1   2
ATOM      2  N1  NON d   1     -42.116  19.723  -5.722  0.00  0.00    -0.279 NA
ATOM      3  H8  NON d   1     -42.933  19.245  -6.108  0.00  0.00     0.128 HD
BRANCH   2   4
ATOM      4  C6  NON d   1     -41.049  19.783  -6.629  0.00  0.00     0.009 A 
ATOM      5  C5  NON d   1     -40.694  20.968  -7.276  0.00  0.00     0.026 A 
ATOM      6  C4  NON d   1     -39.617  20.994  -8.187  0.00  0.00     0.038 A 
ATOM      7  C3  NON d   1     -38.888  19.832  -8.473  0.00  0.00     0.068 A 
ATOM      8  C24 NON d   1     -39.253  18.649  -7.841  0.00  0.00     0.038 A 
ATOM      9  C23 NON d   1     -40.314  18.634  -6.932  0.00  0.00     0.026 A 
BRANCH   7  10
ATOM     10  O1  NON d   1     -37.843  19.972  -9.347  0.00  0.00    -0.352 OA
BRANCH  10  11
ATOM     11  C2  NON d   1     -37.497  21.313  -9.705  0.00  0.00     0.171 C 
ATOM     12  C1  NON d   1     -38.240  21.701 -10.970  0.00  0.00     0.034 C 
ENDBRANCH  10  11
ENDBRANCH   7  10
ENDBRANCH   2   4
ENDBRANCH   1   2
BRANCH   1  13
ATOM     13  C8  NON d   1     -40.351  19.311  -3.907  0.00  0.00     0.114 C 
BRANCH  13  14
ATOM     14  C9  NON d   1     -39.767  20.527  -3.197  0.00  0.00     0.161 C 
ATOM     15  O2  NON d   1     -39.102  20.449  -2.167  0.00  0.00    -0.292 OA
BRANCH  14  16
ATOM     16  C10 NON d   1     -39.908  21.872  -3.859  0.00  0.00     0.010 A 
ATOM     17  C11 NON d   1     -38.972  22.246  -4.835  0.00  0.00     0.015 A 
ATOM     18  C12 NON d   1     -39.106  23.454  -5.525  0.00  0.00     0.001 A 
ATOM     19  C13 NON d   1     -40.172  24.305  -5.242  0.00  0.00     0.000 A 
ATOM     20  C14 NON d   1     -41.100  23.955  -4.264  0.00  0.00     0.001 A 
ATOM     21  C15 NON d   1     -40.970  22.743  -3.574  0.00  0.00     0.015 A 
ENDBRANCH  14  16
ENDBRANCH  13  14
ENDBRANCH   1  13
BRANCH   1  22
ATOM     22  C16 NON d   1     -42.394  17.890  -4.010  0.00  0.00     0.277 C 
ATOM     23  O3  NON d   1     -41.983  17.188  -3.090  0.00  0.00    -0.263 OA
BRANCH  22  24
ATOM     24  O4  NON d   1     -43.413  17.538  -4.844  0.00  0.00    -0.312 OA
BRANCH  24  25
ATOM     25  C17 NON d   1     -44.683  17.377  -4.206  0.00  0.00     0.263 C 
BRANCH  25  26
ATOM     26  C18 NON d   1     -45.902  17.282  -5.135  0.00  0.00     0.190 C 
ATOM     27  O5  NON d   1     -45.939  17.929  -6.185  0.00  0.00    -0.289 OA
BRANCH  26  28
ATOM     28  C19 NON d   1     -47.023  16.443  -4.700  0.00  0.00     0.052 A 
ATOM     29  C20 NON d   1     -47.347  16.091  -3.400  0.00  0.00     0.023 A 
ATOM     30  C21 NON d   1     -48.506  15.259  -3.325  0.00  0.00     0.009 A 
ATOM     31  C22 NON d   1     -49.039  15.007  -4.570  0.00  0.00     0.050 A 
ATOM     32  S1  NON d   1     -48.138  15.755  -5.810  0.00  0.00    -0.098 SA
ENDBRANCH  26  28
ENDBRANCH  25  26
ENDBRANCH  24  25
ENDBRANCH  22  24
ENDBRANCH   1  22
TORSDOF 12
ENDMDL
MODEL 7
REMARK VINA RESULT:   -17.734      1.889      2.380
REMARK INTER + INTRA:         -23.606
REMARK INTER:                 -21.313
REMARK INTRA:                  -2.293
REMARK CONF_INDEPENDENT:        3.580
REMARK UNBOUND:                -2.293
REMARK  12 active torsions:
REMARK  status: ('A' for Active; 'I' for Inactive)
REMARK    1  A    between atoms: C2_2  and  O1_3 
REMARK    2  A    between atoms: O1_3  and  C3_4 
REMARK    3  A    between atoms: C6_7  and  N1_8 
REMARK    4  A    between atoms: C7_9  and  N1_8 
REMARK    5  A    between atoms: C7_9  and  C8_10 
REMARK    6  A    between atoms: C7_9  and  C16_19 
REMARK    7  A    between atoms: C8_10  and  C9_11 
REMARK    8  A    between atoms: C9_11  and  C10_13 
REMARK    9  A    between atoms: C16_19  and  O4_21 
REMARK   10  A    between atoms: O4_21  and  C17_22 
REMARK   11  A    between atoms: C17_22  and  C18_23 
REMARK   12  A    between atoms: C18_23  and  C19_25 
ROOT
ATOM      1  C7  NON d   1     -41.272  19.079  -4.599  0.00  0.00     0.167 C 
ENDROOT
BRANCH   1   2
ATOM      2  N1  NON d   1     -41.792  20.462  -4.736  0.00  0.00    -0.279 NA
ATOM      3  H8  NON d   1     -42.346  20.572  -5.588  0.00  0.00     0.128 HD
BRANCH   2   4
ATOM      4  C6  NON d   1     -40.909  21.529  -4.527  0.00  0.00     0.009 A 
ATOM      5  C5  NON d   1     -39.818  21.763  -5.366  0.00  0.00     0.026 A 
ATOM      6  C4  NON d   1     -38.946  22.844  -5.125  0.00  0.00     0.038 A 
ATOM      7  C3  NON d   1     -39.144  23.701  -4.034  0.00  0.00     0.068 A 
ATOM      8  C24 NON d   1     -40.221  23.458  -3.190  0.00  0.00     0.038 A 
ATOM      9  C23 NON d   1     -41.087  22.391  -3.441  0.00  0.00     0.026 A 
BRANCH   7  10
ATOM     10  O1  NON d   1     -38.259  24.738  -3.909  0.00  0.00    -0.352 OA
BRANCH  10  11
ATOM     11  C2  NON d   1     -38.542  25.686  -2.874  0.00  0.00     0.171 C 
ATOM     12  C1  NON d   1     -39.089  26.958  -3.495  0.00  0.00     0.034 C 
ENDBRANCH  10  11
ENDBRANCH   7  10
ENDBRANCH   2   4
ENDBRANCH   1   2
BRANCH   1  13
ATOM     13  C8  NON d   1     -40.582  18.494  -5.850  0.00  0.00     0.114 C 
BRANCH  13  14
ATOM     14  C9  NON d   1     -40.575  19.265  -7.165  0.00  0.00     0.161 C 
ATOM     15  O2  NON d   1     -41.536  19.912  -7.571  0.00  0.00    -0.292 OA
BRANCH  14  16
ATOM     16  C10 NON d   1     -39.284  19.337  -7.938  0.00  0.00     0.010 A 
ATOM     17  C11 NON d   1     -39.072  20.425  -8.798  0.00  0.00     0.015 A 
ATOM     18  C12 NON d   1     -37.860  20.568  -9.480  0.00  0.00     0.001 A 
ATOM     19  C13 NON d   1     -36.850  19.621  -9.317  0.00  0.00     0.000 A 
ATOM     20  C14 NON d   1     -37.054  18.527  -8.480  0.00  0.00     0.001 A 
ATOM     21  C15 NON d   1     -38.266  18.383  -7.793  0.00  0.00     0.015 A 
ENDBRANCH  14  16
ENDBRANCH  13  14
ENDBRANCH   1  13
BRANCH   1  22
ATOM     22  C16 NON d   1     -42.337  18.072  -4.133  0.00  0.00     0.277 C 
ATOM     23  O3  NON d   1     -42.216  17.367  -3.135  0.00  0.00    -0.263 OA
BRANCH  22  24
ATOM     24  O4  NON d   1     -43.438  18.077  -4.937  0.00  0.00    -0.312 OA
BRANCH  24  25
ATOM     25  C17 NON d   1     -44.447  17.129  -4.579  0.00  0.00     0.263 C 
BRANCH  25  26
ATOM     26  C18 NON d   1     -45.784  17.248  -5.325  0.00  0.00     0.190 C 
ATOM     27  O5  NON d   1     -45.894  18.003  -6.294  0.00  0.00    -0.289 OA
BRANCH  26  28
ATOM     28  C19 NON d   1     -46.919  16.476  -4.811  0.00  0.00     0.052 A 
ATOM     29  C20 NON d   1     -47.401  16.466  -3.512  0.00  0.00     0.023 A 
ATOM     30  C21 NON d   1     -48.526  15.600  -3.346  0.00  0.00     0.009 A 
ATOM     31  C22 NON d   1     -48.877  14.982  -4.526  0.00  0.00     0.050 A 
ATOM     32  S1  NON d   1     -47.848  15.433  -5.810  0.00  0.00    -0.098 SA
ENDBRANCH  26  28
ENDBRANCH  25  26
ENDBRANCH  24  25
ENDBRANCH  22  24
ENDBRANCH   1  22
TORSDOF 12
ENDMDL
MODEL 8
REMARK VINA RESULT:   -17.593      1.826      5.049
REMARK INTER + INTRA:         -23.240
REMARK INTER:                 -21.172
REMARK INTRA:                  -2.068
REMARK CONF_INDEPENDENT:        3.580
REMARK UNBOUND:                -2.068
REMARK  12 active torsions:
REMARK  status: ('A' for Active; 'I' for Inactive)
REMARK    1  A    between atoms: C2_2  and  O1_3 
REMARK    2  A    between atoms: O1_3  and  C3_4 
REMARK    3  A    between atoms: C6_7  and  N1_8 
REMARK    4  A    between atoms: C7_9  and  N1_8 
REMARK    5  A    between atoms: C7_9  and  C8_10 
REMARK    6  A    between atoms: C7_9  and  C16_19 
REMARK    7  A    between atoms: C8_10  and  C9_11 
REMARK    8  A    between atoms: C9_11  and  C10_13 
REMARK    9  A    between atoms: C16_19  and  O4_21 
REMARK   10  A    between atoms: O4_21  and  C17_22 
REMARK   11  A    between atoms: C17_22  and  C18_23 
REMARK   12  A    between atoms: C18_23  and  C19_25 
ROOT
ATOM      1  C7  NON d   1     -42.237  18.394  -4.085  0.00  0.00     0.167 C 
ENDROOT
BRANCH   1   2
ATOM      2  N1  NON d   1     -41.924  19.794  -4.465  0.00  0.00    -0.279 NA
ATOM      3  H8  NON d   1     -42.752  20.392  -4.411  0.00  0.00     0.128 HD
BRANCH   2   4
ATOM      4  C6  NON d   1     -41.177  20.016  -5.630  0.00  0.00     0.009 A 
ATOM      5  C5  NON d   1     -41.776  20.111  -6.887  0.00  0.00     0.026 A 
ATOM      6  C4  NON d   1     -40.995  20.331  -8.040  0.00  0.00     0.038 A 
ATOM      7  C3  NON d   1     -39.601  20.447  -7.954  0.00  0.00     0.068 A 
ATOM      8  C24 NON d   1     -39.004  20.337  -6.705  0.00  0.00     0.038 A 
ATOM      9  C23 NON d   1     -39.786  20.130  -5.566  0.00  0.00     0.026 A 
BRANCH   7  10
ATOM     10  O1  NON d   1     -38.940  20.692  -9.128  0.00  0.00    -0.352 OA
BRANCH  10  11
ATOM     11  C2  NON d   1     -39.554  21.635 -10.012  0.00  0.00     0.171 C 
ATOM     12  C1  NON d   1     -39.414  23.031  -9.433  0.00  0.00     0.034 C 
ENDBRANCH  10  11
ENDBRANCH   7  10
ENDBRANCH   2   4
ENDBRANCH   1   2
BRANCH   1  13
ATOM     13  C8  NON d   1     -41.344  17.782  -2.984  0.00  0.00     0.114 C 
BRANCH  13  14
ATOM     14  C9  NON d   1     -40.953  18.598  -1.758  0.00  0.00     0.161 C 
ATOM     15  O2  NON d   1     -41.439  18.414  -0.645  0.00  0.00    -0.292 OA
BRANCH  14  16
ATOM     16  C10 NON d   1     -39.828  19.589  -1.893  0.00  0.00     0.010 A 
ATOM     17  C11 NON d   1     -38.604  19.154  -2.425  0.00  0.00     0.015 A 
ATOM     18  C12 NON d   1     -37.557  20.056  -2.635  0.00  0.00     0.001 A 
ATOM     19  C13 NON d   1     -37.718  21.401  -2.308  0.00  0.00     0.000 A 
ATOM     20  C14 NON d   1     -38.920  21.844  -1.763  0.00  0.00     0.001 A 
ATOM     21  C15 NON d   1     -39.972  20.943  -1.556  0.00  0.00     0.015 A 
ENDBRANCH  14  16
ENDBRANCH  13  14
ENDBRANCH   1  13
BRANCH   1  22
ATOM     22  C16 NON d   1     -42.243  17.427  -5.280  0.00  0.00     0.277 C 
ATOM     23  O3  NON d   1     -41.289  17.275  -6.038  0.00  0.00    -0.263 OA
BRANCH  22  24
ATOM     24  O4  NON d   1     -43.416  16.740  -5.381  0.00  0.00    -0.312 OA
BRANCH  24  25
ATOM     25  C17 NON d   1     -44.517  17.323  -4.679  0.00  0.00     0.263 C 
BRANCH  25  26
ATOM     26  C18 NON d   1     -45.869  17.311  -5.407  0.00  0.00     0.190 C 
ATOM     27  O5  NON d   1     -46.043  18.005  -6.412  0.00  0.00    -0.289 OA
BRANCH  26  28
ATOM     28  C19 NON d   1     -46.942  16.494  -4.833  0.00  0.00     0.052 A 
ATOM     29  C20 NON d   1     -47.221  16.306  -3.490  0.00  0.00     0.023 A 
ATOM     30  C21 NON d   1     -48.341  15.445  -3.271  0.00  0.00     0.009 A 
ATOM     31  C22 NON d   1     -48.890  15.008  -4.456  0.00  0.00     0.050 A 
ATOM     32  S1  NON d   1     -48.051  15.620  -5.810  0.00  0.00    -0.098 SA
ENDBRANCH  26  28
ENDBRANCH  25  26
ENDBRANCH  24  25
ENDBRANCH  22  24
ENDBRANCH   1  22
TORSDOF 12
ENDMDL
MODEL 9
REMARK VINA RESULT:   -17.282      2.708      4.618
REMARK INTER + INTRA:         -24.023
REMARK INTER:                 -20.862
REMARK INTRA:                  -3.161
REMARK CONF_INDEPENDENT:        3.580
REMARK UNBOUND:                -3.161
REMARK  12 active torsions:
REMARK  status: ('A' for Active; 'I' for Inactive)
REMARK    1  A    between atoms: C2_2  and  O1_3 
REMARK    2  A    between atoms: O1_3  and  C3_4 
REMARK    3  A    between atoms: C6_7  and  N1_8 
REMARK    4  A    between atoms: C7_9  and  N1_8 
REMARK    5  A    between atoms: C7_9  and  C8_10 
REMARK    6  A    between atoms: C7_9  and  C16_19 
REMARK    7  A    between atoms: C8_10  and  C9_11 
REMARK    8  A    between atoms: C9_11  and  C10_13 
REMARK    9  A    between atoms: C16_19  and  O4_21 
REMARK   10  A    between atoms: O4_21  and  C17_22 
REMARK   11  A    between atoms: C17_22  and  C18_23 
REMARK   12  A    between atoms: C18_23  and  C19_25 
ROOT
ATOM      1  C7  NON d   1     -41.285  19.002  -4.698  0.00  0.00     0.167 C 
ENDROOT
BRANCH   1   2
ATOM      2  N1  NON d   1     -41.901  20.100  -5.483  0.00  0.00    -0.279 NA
ATOM      3  H8  NON d   1     -42.845  19.857  -5.792  0.00  0.00     0.128 HD
BRANCH   2   4
ATOM      4  C6  NON d   1     -41.142  20.700  -6.497  0.00  0.00     0.009 A 
ATOM      5  C5  NON d   1     -41.192  20.258  -7.820  0.00  0.00     0.026 A 
ATOM      6  C4  NON d   1     -40.412  20.882  -8.815  0.00  0.00     0.038 A 
ATOM      7  C3  NON d   1     -39.561  21.950  -8.500  0.00  0.00     0.068 A 
ATOM      8  C24 NON d   1     -39.500  22.379  -7.180  0.00  0.00     0.038 A 
ATOM      9  C23 NON d   1     -40.284  21.763  -6.201  0.00  0.00     0.026 A 
BRANCH   7  10
ATOM     10  O1  NON d   1     -38.872  22.505  -9.545  0.00  0.00    -0.352 OA
BRANCH  10  11
ATOM     11  C2  NON d   1     -38.350  21.590 -10.513  0.00  0.00     0.171 C 
ATOM     12  C1  NON d   1     -38.686  22.088 -11.906  0.00  0.00     0.034 C 
ENDBRANCH  10  11
ENDBRANCH   7  10
ENDBRANCH   2   4
ENDBRANCH   1   2
BRANCH   1  13
ATOM     13  C8  NON d   1     -40.077  18.301  -5.356  0.00  0.00     0.114 C 
BRANCH  13  14
ATOM     14  C9  NON d   1     -38.659  18.798  -5.105  0.00  0.00     0.161 C 
ATOM     15  O2  NON d   1     -38.137  18.812  -3.993  0.00  0.00    -0.292 OA
BRANCH  14  16
ATOM     16  C10 NON d   1     -37.816  19.170  -6.296  0.00  0.00     0.010 A 
ATOM     17  C11 NON d   1     -37.927  18.405  -7.467  0.00  0.00     0.015 A 
ATOM     18  C12 NON d   1     -37.217  18.757  -8.619  0.00  0.00     0.001 A 
ATOM     19  C13 NON d   1     -36.383  19.873  -8.611  0.00  0.00     0.000 A 
ATOM     20  C14 NON d   1     -36.249  20.632  -7.451  0.00  0.00     0.001 A 
ATOM     21  C15 NON d   1     -36.963  20.283  -6.297  0.00  0.00     0.015 A 
ENDBRANCH  14  16
ENDBRANCH  13  14
ENDBRANCH   1  13
BRANCH   1  22
ATOM     22  C16 NON d   1     -42.290  17.917  -4.279  0.00  0.00     0.277 C 
ATOM     23  O3  NON d   1     -42.114  17.155  -3.332  0.00  0.00    -0.263 OA
BRANCH  22  24
ATOM     24  O4  NON d   1     -43.408  17.920  -5.059  0.00  0.00    -0.312 OA
BRANCH  24  25
ATOM     25  C17 NON d   1     -44.602  17.486  -4.402  0.00  0.00     0.263 C 
BRANCH  25  26
ATOM     26  C18 NON d   1     -45.857  17.373  -5.279  0.00  0.00     0.190 C 
ATOM     27  O5  NON d   1     -45.939  18.005  -6.335  0.00  0.00    -0.289 OA
BRANCH  26  28
ATOM     28  C19 NON d   1     -46.955  16.537  -4.788  0.00  0.00     0.052 A 
ATOM     29  C20 NON d   1     -47.453  16.485  -3.496  0.00  0.00     0.023 A 
ATOM     30  C21 NON d   1     -48.532  15.560  -3.353  0.00  0.00     0.009 A 
ATOM     31  C22 NON d   1     -48.834  14.937  -4.545  0.00  0.00     0.050 A 
ATOM     32  S1  NON d   1     -47.815  15.457  -5.810  0.00  0.00    -0.098 SA
ENDBRANCH  26  28
ENDBRANCH  25  26
ENDBRANCH  24  25
ENDBRANCH  22  24
ENDBRANCH   1  22
TORSDOF 12
ENDMDL
