MODEL 1
REMARK VINA RESULT:   -10.951      0.000      0.000
REMARK INTER + INTRA:         -18.056
REMARK INTER:                 -14.829
REMARK INTRA:                  -3.228
REMARK CONF_INDEPENDENT:        3.878
REMARK UNBOUND:                -3.228
REMARK  13 active torsions:
REMARK  status: ('A' for Active; 'I' for Inactive)
REMARK    1  A    between atoms: O1_2  and  C2_3 
REMARK    2  A    between atoms: C2_3  and  C3_4 
REMARK    3  A    between atoms: C3_4  and  O2_5 
REMARK    4  A    between atoms: O2_5  and  C4_6 
REMARK    5  A    between atoms: C9_11  and  C10_12 
REMARK       I    between atoms: C10_12  and  N1_14 
REMARK    6  A    between atoms: N1_14  and  C11_15 
REMARK    7  A    between atoms: C11_15  and  N2_17 
REMARK    8  A    between atoms: N2_17  and  C12_18 
REMARK    9  A    between atoms: C17_23  and  C18_24 
REMARK       I    between atoms: C18_24  and  N3_26 
REMARK   10  A    between atoms: N3_26  and  C19_27 
REMARK   11  A    between atoms: C19_27  and  C20_28 
REMARK   12  A    between atoms: C20_28  and  C21_29 
REMARK   13  A    between atoms: C21_29  and  O5_30 
ROOT
ATOM      1  C11 NON d   1     -39.964  18.737  -7.084  0.00  0.00     0.179 C 
ATOM      2  S1  NON d   1     -38.877  18.017  -8.116  0.00  0.00    -0.040 SA
ENDROOT
BRANCH   1   3
ATOM      3  N1  NON d   1     -39.983  20.115  -7.129  0.00  0.00    -0.299 N 
ATOM      4  C10 NON d   1     -40.394  20.817  -8.251  0.00  0.00     0.260 C 
ATOM      5  O3  NON d   1     -40.982  20.250  -9.168  0.00  0.00    -0.267 OA
ATOM      6  H12 NON d   1     -39.250  20.516  -6.570  0.00  0.00     0.171 HD
BRANCH   4   7
ATOM      7  C9  NON d   1     -40.117  22.293  -8.279  0.00  0.00     0.065 A 
ATOM      8  C8  NON d   1     -40.033  23.017  -9.483  0.00  0.00     0.020 A 
ATOM      9  C7  NON d   1     -39.757  24.391  -9.481  0.00  0.00     0.001 A 
ATOM     10  C6  NON d   1     -39.576  25.067  -8.279  0.00  0.00     0.003 A 
ATOM     11  C5  NON d   1     -39.680  24.373  -7.077  0.00  0.00     0.038 A 
ATOM     12  C4  NON d   1     -39.934  22.996  -7.076  0.00  0.00     0.084 A 
BRANCH  12  13
ATOM     13  O2  NON d   1     -40.084  22.420  -5.842  0.00  0.00    -0.348 OA
BRANCH  13  14
ATOM     14  C3  NON d   1     -39.183  22.992  -4.886  0.00  0.00     0.201 C 
BRANCH  14  15
ATOM     15  C2  NON d   1     -38.371  21.859  -4.264  0.00  0.00     0.193 C 
BRANCH  15  16
ATOM     16  O1  NON d   1     -37.978  20.919  -5.265  0.00  0.00    -0.394 OA
ATOM     17  C1  NON d   1     -37.045  21.482  -6.181  0.00  0.00     0.201 C 
ENDBRANCH  15  16
ENDBRANCH  14  15
ENDBRANCH  13  14
ENDBRANCH  12  13
ENDBRANCH   4   7
ENDBRANCH   1   3
BRANCH   1  18
ATOM     18  N2  NON d   1     -40.896  18.190  -6.235  0.00  0.00    -0.332 N 
ATOM     19  H13 NON d   1     -41.442  17.473  -6.715  0.00  0.00     0.168 HD
BRANCH  18  20
ATOM     20  C12 NON d   1     -41.090  18.232  -4.833  0.00  0.00     0.050 A 
ATOM     21  C13 NON d   1     -39.962  18.687  -4.113  0.00  0.00     0.030 A 
ATOM     22  C14 NON d   1     -39.978  18.823  -2.723  0.00  0.00     0.002 A 
ATOM     23  C15 NON d   1     -41.122  18.497  -2.009  0.00  0.00     0.001 A 
ATOM     24  C16 NON d   1     -42.235  17.997  -2.687  0.00  0.00     0.019 A 
ATOM     25  C17 NON d   1     -42.218  17.843  -4.089  0.00  0.00     0.058 A 
BRANCH  25  26
ATOM     26  C18 NON d   1     -43.353  17.074  -4.650  0.00  0.00     0.253 C 
ATOM     27  O4  NON d   1     -43.143  16.152  -5.431  0.00  0.00    -0.268 OA
ATOM     28  N3  NON d   1     -44.605  17.473  -4.215  0.00  0.00    -0.357 N 
ATOM     29  H18 NON d   1     -44.652  18.353  -3.719  0.00  0.00     0.162 HD
BRANCH  28  30
ATOM     30  C19 NON d   1     -45.782  17.112  -4.986  0.00  0.00     0.125 C 
BRANCH  30  31
ATOM     31  C20 NON d   1     -46.874  16.472  -4.141  0.00  0.00     0.046 C 
BRANCH  31  32
ATOM     32  C21 NON d   1     -47.696  15.506  -4.985  0.00  0.00     0.165 C 
BRANCH  32  33
ATOM     33  O5  NON d   1     -46.996  15.199  -6.185  0.00  0.00    -0.401 OA
ATOM     34  H25 NON d   1     -47.372  15.756  -6.888  0.00  0.00     0.209 HD
ENDBRANCH  32  33
ENDBRANCH  31  32
ENDBRANCH  30  31
ENDBRANCH  28  30
ENDBRANCH  25  26
ENDBRANCH  18  20
ENDBRANCH   1  18
TORSDOF 13
ENDMDL
MODEL 2
REMARK VINA RESULT:   -10.581      1.432      1.920
REMARK INTER + INTRA:         -17.462
REMARK INTER:                 -14.459
REMARK INTRA:                  -3.003
REMARK CONF_INDEPENDENT:        3.878
REMARK UNBOUND:                -3.003
REMARK  13 active torsions:
REMARK  status: ('A' for Active; 'I' for Inactive)
REMARK    1  A    between atoms: O1_2  and  C2_3 
REMARK    2  A    between atoms: C2_3  and  C3_4 
REMARK    3  A    between atoms: C3_4  and  O2_5 
REMARK    4  A    between atoms: O2_5  and  C4_6 
REMARK    5  A    between atoms: C9_11  and  C10_12 
REMARK       I    between atoms: C10_12  and  N1_14 
REMARK    6  A    between atoms: N1_14  and  C11_15 
REMARK    7  A    between atoms: C11_15  and  N2_17 
REMARK    8  A    between atoms: N2_17  and  C12_18 
REMARK    9  A    between atoms: C17_23  and  C18_24 
REMARK       I    between atoms: C18_24  and  N3_26 
REMARK   10  A    between atoms: N3_26  and  C19_27 
REMARK   11  A    between atoms: C19_27  and  C20_28 
REMARK   12  A    between atoms: C20_28  and  C21_29 
REMARK   13  A    between atoms: C21_29  and  O5_30 
ROOT
ATOM      1  C11 NON d   1     -40.251  19.468  -7.458  0.00  0.00     0.179 C 
ATOM      2  S1  NON d   1     -39.568  18.118  -8.149  0.00  0.00    -0.040 SA
ENDROOT
BRANCH   1   3
ATOM      3  N1  NON d   1     -40.370  20.555  -8.298  0.00  0.00    -0.299 N 
ATOM      4  C10 NON d   1     -39.345  20.961  -9.139  0.00  0.00     0.260 C 
ATOM      5  O3  NON d   1     -38.377  20.235  -9.348  0.00  0.00    -0.267 OA
ATOM      6  H12 NON d   1     -40.961  21.266  -7.904  0.00  0.00     0.171 HD
BRANCH   4   7
ATOM      7  C9  NON d   1     -39.488  22.302  -9.799  0.00  0.00     0.065 A 
ATOM      8  C8  NON d   1     -39.199  22.501 -11.163  0.00  0.00     0.020 A 
ATOM      9  C7  NON d   1     -39.326  23.766 -11.750  0.00  0.00     0.001 A 
ATOM     10  C6  NON d   1     -39.755  24.851 -10.992  0.00  0.00     0.003 A 
ATOM     11  C5  NON d   1     -40.067  24.669  -9.648  0.00  0.00     0.038 A 
ATOM     12  C4  NON d   1     -39.922  23.410  -9.052  0.00  0.00     0.084 A 
BRANCH  12  13
ATOM     13  O2  NON d   1     -40.319  23.322  -7.744  0.00  0.00    -0.348 OA
BRANCH  13  14
ATOM     14  C3  NON d   1     -39.203  23.420  -6.852  0.00  0.00     0.201 C 
BRANCH  14  15
ATOM     15  C2  NON d   1     -39.382  22.376  -5.753  0.00  0.00     0.193 C 
BRANCH  15  16
ATOM     16  O1  NON d   1     -40.767  22.207  -5.446  0.00  0.00    -0.394 OA
ATOM     17  C1  NON d   1     -40.982  22.058  -4.046  0.00  0.00     0.201 C 
ENDBRANCH  15  16
ENDBRANCH  14  15
ENDBRANCH  13  14
ENDBRANCH  12  13
ENDBRANCH   4   7
ENDBRANCH   1   3
BRANCH   1  18
ATOM     18  N2  NON d   1     -40.781  19.667  -6.205  0.00  0.00    -0.332 N 
ATOM     19  H13 NON d   1     -41.565  20.319  -6.245  0.00  0.00     0.168 HD
BRANCH  18  20
ATOM     20  C12 NON d   1     -40.635  19.002  -4.964  0.00  0.00     0.050 A 
ATOM     21  C13 NON d   1     -39.292  18.823  -4.564  0.00  0.00     0.030 A 
ATOM     22  C14 NON d   1     -38.955  18.213  -3.353  0.00  0.00     0.002 A 
ATOM     23  C15 NON d   1     -39.956  17.755  -2.508  0.00  0.00     0.001 A 
ATOM     24  C16 NON d   1     -41.290  17.873  -2.898  0.00  0.00     0.019 A 
ATOM     25  C17 NON d   1     -41.635  18.473  -4.127  0.00  0.00     0.058 A 
BRANCH  25  26
ATOM     26  C18 NON d   1     -43.050  18.309  -4.532  0.00  0.00     0.253 C 
ATOM     27  O4  NON d   1     -43.567  19.119  -5.294  0.00  0.00    -0.268 OA
ATOM     28  N3  NON d   1     -43.688  17.201  -4.002  0.00  0.00    -0.357 N 
ATOM     29  H18 NON d   1     -43.210  16.719  -3.253  0.00  0.00     0.162 HD
BRANCH  28  30
ATOM     30  C19 NON d   1     -45.139  17.157  -3.965  0.00  0.00     0.125 C 
BRANCH  30  31
ATOM     31  C20 NON d   1     -45.762  16.889  -5.328  0.00  0.00     0.046 C 
BRANCH  31  32
ATOM     32  C21 NON d   1     -47.171  16.334  -5.162  0.00  0.00     0.165 C 
BRANCH  32  33
ATOM     33  O5  NON d   1     -47.437  15.380  -6.183  0.00  0.00    -0.401 OA
ATOM     34  H25 NON d   1     -48.369  15.118  -6.097  0.00  0.00     0.209 HD
ENDBRANCH  32  33
ENDBRANCH  31  32
ENDBRANCH  30  31
ENDBRANCH  28  30
ENDBRANCH  25  26
ENDBRANCH  18  20
ENDBRANCH   1  18
TORSDOF 13
ENDMDL
MODEL 3
REMARK VINA RESULT:   -10.535      2.057      8.149
REMARK INTER + INTRA:         -16.704
REMARK INTER:                 -14.413
REMARK INTRA:                  -2.291
REMARK CONF_INDEPENDENT:        3.878
REMARK UNBOUND:                -2.291
REMARK  13 active torsions:
REMARK  status: ('A' for Active; 'I' for Inactive)
REMARK    1  A    between atoms: O1_2  and  C2_3 
REMARK    2  A    between atoms: C2_3  and  C3_4 
REMARK    3  A    between atoms: C3_4  and  O2_5 
REMARK    4  A    between atoms: O2_5  and  C4_6 
REMARK    5  A    between atoms: C9_11  and  C10_12 
REMARK       I    between atoms: C10_12  and  N1_14 
REMARK    6  A    between atoms: N1_14  and  C11_15 
REMARK    7  A    between atoms: C11_15  and  N2_17 
REMARK    8  A    between atoms: N2_17  and  C12_18 
REMARK    9  A    between atoms: C17_23  and  C18_24 
REMARK       I    between atoms: C18_24  and  N3_26 
REMARK   10  A    between atoms: N3_26  and  C19_27 
REMARK   11  A    between atoms: C19_27  and  C20_28 
REMARK   12  A    between atoms: C20_28  and  C21_29 
REMARK   13  A    between atoms: C21_29  and  O5_30 
ROOT
ATOM      1  C11 NON d   1     -39.192  19.269  -7.962  0.00  0.00     0.179 C 
ATOM      2  S1  NON d   1     -38.064  18.353  -8.772  0.00  0.00    -0.040 SA
ENDROOT
BRANCH   1   3
ATOM      3  N1  NON d   1     -39.558  18.782  -6.725  0.00  0.00    -0.299 N 
ATOM      4  C10 NON d   1     -40.784  19.067  -6.147  0.00  0.00     0.260 C 
ATOM      5  O3  NON d   1     -41.692  19.566  -6.807  0.00  0.00    -0.267 OA
ATOM      6  H12 NON d   1     -38.764  18.685  -6.116  0.00  0.00     0.171 HD
BRANCH   4   7
ATOM      7  C9  NON d   1     -40.961  18.711  -4.698  0.00  0.00     0.065 A 
ATOM      8  C8  NON d   1     -39.937  18.898  -3.750  0.00  0.00     0.020 A 
ATOM      9  C7  NON d   1     -40.123  18.542  -2.408  0.00  0.00     0.001 A 
ATOM     10  C6  NON d   1     -41.336  18.008  -1.987  0.00  0.00     0.003 A 
ATOM     11  C5  NON d   1     -42.368  17.838  -2.905  0.00  0.00     0.038 A 
ATOM     12  C4  NON d   1     -42.179  18.172  -4.251  0.00  0.00     0.084 A 
BRANCH  12  13
ATOM     13  O2  NON d   1     -43.277  18.030  -5.059  0.00  0.00    -0.348 OA
BRANCH  13  14
ATOM     14  C3  NON d   1     -44.226  17.119  -4.493  0.00  0.00     0.201 C 
BRANCH  14  15
ATOM     15  C2  NON d   1     -45.552  17.301  -5.227  0.00  0.00     0.193 C 
BRANCH  15  16
ATOM     16  O1  NON d   1     -45.968  16.069  -5.818  0.00  0.00    -0.394 OA
ATOM     17  C1  NON d   1     -47.309  15.743  -5.472  0.00  0.00     0.201 C 
ENDBRANCH  15  16
ENDBRANCH  14  15
ENDBRANCH  13  14
ENDBRANCH  12  13
ENDBRANCH   4   7
ENDBRANCH   1   3
BRANCH   1  18
ATOM     18  N2  NON d   1     -39.777  20.470  -8.289  0.00  0.00    -0.332 N 
ATOM     19  H13 NON d   1     -40.733  20.327  -8.616  0.00  0.00     0.168 HD
BRANCH  18  20
ATOM     20  C12 NON d   1     -39.438  21.823  -8.046  0.00  0.00     0.050 A 
ATOM     21  C13 NON d   1     -39.907  22.318  -6.809  0.00  0.00     0.030 A 
ATOM     22  C14 NON d   1     -39.643  23.623  -6.385  0.00  0.00     0.002 A 
ATOM     23  C15 NON d   1     -38.906  24.476  -7.195  0.00  0.00     0.001 A 
ATOM     24  C16 NON d   1     -38.472  24.032  -8.445  0.00  0.00     0.019 A 
ATOM     25  C17 NON d   1     -38.750  22.721  -8.883  0.00  0.00     0.058 A 
BRANCH  25  26
ATOM     26  C18 NON d   1     -38.459  22.461 -10.312  0.00  0.00     0.253 C 
ATOM     27  O4  NON d   1     -37.301  22.490 -10.716  0.00  0.00    -0.268 OA
ATOM     28  N3  NON d   1     -39.565  22.183 -11.096  0.00  0.00    -0.357 N 
ATOM     29  H18 NON d   1     -40.470  22.367 -10.683  0.00  0.00     0.162 HD
BRANCH  28  30
ATOM     30  C19 NON d   1     -39.479  22.334 -12.538  0.00  0.00     0.125 C 
BRANCH  30  31
ATOM     31  C20 NON d   1     -40.302  23.500 -13.065  0.00  0.00     0.046 C 
BRANCH  31  32
ATOM     32  C21 NON d   1     -40.090  24.731 -12.194  0.00  0.00     0.165 C 
BRANCH  32  33
ATOM     33  O5  NON d   1     -40.666  24.520 -10.911  0.00  0.00    -0.401 OA
ATOM     34  H25 NON d   1     -41.617  24.706 -10.988  0.00  0.00     0.209 HD
ENDBRANCH  32  33
ENDBRANCH  31  32
ENDBRANCH  30  31
ENDBRANCH  28  30
ENDBRANCH  25  26
ENDBRANCH  18  20
ENDBRANCH   1  18
TORSDOF 13
ENDMDL
MODEL 4
REMARK VINA RESULT:   -10.384      2.328      2.997
REMARK INTER + INTRA:         -17.533
REMARK INTER:                 -14.261
REMARK INTRA:                  -3.272
REMARK CONF_INDEPENDENT:        3.878
REMARK UNBOUND:                -3.272
REMARK  13 active torsions:
REMARK  status: ('A' for Active; 'I' for Inactive)
REMARK    1  A    between atoms: O1_2  and  C2_3 
REMARK    2  A    between atoms: C2_3  and  C3_4 
REMARK    3  A    between atoms: C3_4  and  O2_5 
REMARK    4  A    between atoms: O2_5  and  C4_6 
REMARK    5  A    between atoms: C9_11  and  C10_12 
REMARK       I    between atoms: C10_12  and  N1_14 
REMARK    6  A    between atoms: N1_14  and  C11_15 
REMARK    7  A    between atoms: C11_15  and  N2_17 
REMARK    8  A    between atoms: N2_17  and  C12_18 
REMARK    9  A    between atoms: C17_23  and  C18_24 
REMARK       I    between atoms: C18_24  and  N3_26 
REMARK   10  A    between atoms: N3_26  and  C19_27 
REMARK   11  A    between atoms: C19_27  and  C20_28 
REMARK   12  A    between atoms: C20_28  and  C21_29 
REMARK   13  A    between atoms: C21_29  and  O5_30 
ROOT
ATOM      1  C11 NON d   1     -40.612  21.378  -5.558  0.00  0.00     0.179 C 
ATOM      2  S1  NON d   1     -40.736  22.815  -4.729  0.00  0.00    -0.040 SA
ENDROOT
BRANCH   1   3
ATOM      3  N1  NON d   1     -39.720  21.389  -6.609  0.00  0.00    -0.299 N 
ATOM      4  C10 NON d   1     -39.951  20.697  -7.788  0.00  0.00     0.260 C 
ATOM      5  O3  NON d   1     -41.062  20.239  -8.042  0.00  0.00    -0.267 OA
ATOM      6  H12 NON d   1     -38.770  21.464  -6.290  0.00  0.00     0.171 HD
BRANCH   4   7
ATOM      7  C9  NON d   1     -38.800  20.562  -8.743  0.00  0.00     0.065 A 
ATOM      8  C8  NON d   1     -38.556  21.503  -9.761  0.00  0.00     0.020 A 
ATOM      9  C7  NON d   1     -37.484  21.344 -10.649  0.00  0.00     0.001 A 
ATOM     10  C6  NON d   1     -36.630  20.253 -10.528  0.00  0.00     0.003 A 
ATOM     11  C5  NON d   1     -36.841  19.325  -9.513  0.00  0.00     0.038 A 
ATOM     12  C4  NON d   1     -37.924  19.468  -8.637  0.00  0.00     0.084 A 
BRANCH  12  13
ATOM     13  O2  NON d   1     -38.004  18.539  -7.633  0.00  0.00    -0.348 OA
BRANCH  13  14
ATOM     14  C3  NON d   1     -36.725  18.309  -7.033  0.00  0.00     0.201 C 
BRANCH  14  15
ATOM     15  C2  NON d   1     -36.761  18.867  -5.613  0.00  0.00     0.193 C 
BRANCH  15  16
ATOM     16  O1  NON d   1     -37.365  20.162  -5.601  0.00  0.00    -0.394 OA
ATOM     17  C1  NON d   1     -36.453  21.167  -5.173  0.00  0.00     0.201 C 
ENDBRANCH  15  16
ENDBRANCH  14  15
ENDBRANCH  13  14
ENDBRANCH  12  13
ENDBRANCH   4   7
ENDBRANCH   1   3
BRANCH   1  18
ATOM     18  N2  NON d   1     -41.200  20.156  -5.333  0.00  0.00    -0.332 N 
ATOM     19  H13 NON d   1     -41.746  19.865  -6.144  0.00  0.00     0.168 HD
BRANCH  18  20
ATOM     20  C12 NON d   1     -41.019  19.147  -4.356  0.00  0.00     0.050 A 
ATOM     21  C13 NON d   1     -39.683  19.007  -3.918  0.00  0.00     0.030 A 
ATOM     22  C14 NON d   1     -39.319  18.082  -2.936  0.00  0.00     0.002 A 
ATOM     23  C15 NON d   1     -40.284  17.261  -2.368  0.00  0.00     0.001 A 
ATOM     24  C16 NON d   1     -41.603  17.342  -2.816  0.00  0.00     0.019 A 
ATOM     25  C17 NON d   1     -41.972  18.262  -3.819  0.00  0.00     0.058 A 
BRANCH  25  26
ATOM     26  C18 NON d   1     -43.331  18.073  -4.376  0.00  0.00     0.253 C 
ATOM     27  O4  NON d   1     -43.772  18.870  -5.198  0.00  0.00    -0.268 OA
ATOM     28  N3  NON d   1     -44.007  16.959  -3.911  0.00  0.00    -0.357 N 
ATOM     29  H18 NON d   1     -43.608  16.490  -3.109  0.00  0.00     0.162 HD
BRANCH  28  30
ATOM     30  C19 NON d   1     -45.452  16.893  -4.035  0.00  0.00     0.125 C 
BRANCH  30  31
ATOM     31  C20 NON d   1     -45.947  17.228  -5.435  0.00  0.00     0.046 C 
BRANCH  31  32
ATOM     32  C21 NON d   1     -47.351  16.677  -5.644  0.00  0.00     0.165 C 
BRANCH  32  33
ATOM     33  O5  NON d   1     -47.279  15.360  -6.177  0.00  0.00    -0.401 OA
ATOM     34  H25 NON d   1     -48.169  15.126  -6.490  0.00  0.00     0.209 HD
ENDBRANCH  32  33
ENDBRANCH  31  32
ENDBRANCH  30  31
ENDBRANCH  28  30
ENDBRANCH  25  26
ENDBRANCH  18  20
ENDBRANCH   1  18
TORSDOF 13
ENDMDL
MODEL 5
REMARK VINA RESULT:   -10.372      1.679      2.566
REMARK INTER + INTRA:         -17.481
REMARK INTER:                 -14.250
REMARK INTRA:                  -3.231
REMARK CONF_INDEPENDENT:        3.878
REMARK UNBOUND:                -3.231
REMARK  13 active torsions:
REMARK  status: ('A' for Active; 'I' for Inactive)
REMARK    1  A    between atoms: O1_2  and  C2_3 
REMARK    2  A    between atoms: C2_3  and  C3_4 
REMARK    3  A    between atoms: C3_4  and  O2_5 
REMARK    4  A    between atoms: O2_5  and  C4_6 
REMARK    5  A    between atoms: C9_11  and  C10_12 
REMARK       I    between atoms: C10_12  and  N1_14 
REMARK    6  A    between atoms: N1_14  and  C11_15 
REMARK    7  A    between atoms: C11_15  and  N2_17 
REMARK    8  A    between atoms: N2_17  and  C12_18 
REMARK    9  A    between atoms: C17_23  and  C18_24 
REMARK       I    between atoms: C18_24  and  N3_26 
REMARK   10  A    between atoms: N3_26  and  C19_27 
REMARK   11  A    between atoms: C19_27  and  C20_28 
REMARK   12  A    between atoms: C20_28  and  C21_29 
REMARK   13  A    between atoms: C21_29  and  O5_30 
ROOT
ATOM      1  C11 NON d   1     -40.025  19.327  -7.528  0.00  0.00     0.179 C 
ATOM      2  S1  NON d   1     -39.526  17.995  -8.390  0.00  0.00    -0.040 SA
ENDROOT
BRANCH   1   3
ATOM      3  N1  NON d   1     -39.666  20.541  -8.074  0.00  0.00    -0.299 N 
ATOM      4  C10 NON d   1     -40.134  21.748  -7.578  0.00  0.00     0.260 C 
ATOM      5  O3  NON d   1     -40.697  21.805  -6.488  0.00  0.00    -0.267 OA
ATOM      6  H12 NON d   1     -39.511  20.471  -9.065  0.00  0.00     0.171 HD
BRANCH   4   7
ATOM      7  C9  NON d   1     -39.895  22.973  -8.413  0.00  0.00     0.065 A 
ATOM      8  C8  NON d   1     -39.940  24.271  -7.869  0.00  0.00     0.020 A 
ATOM      9  C7  NON d   1     -39.729  25.398  -8.673  0.00  0.00     0.001 A 
ATOM     10  C6  NON d   1     -39.457  25.250 -10.029  0.00  0.00     0.003 A 
ATOM     11  C5  NON d   1     -39.385  23.974 -10.580  0.00  0.00     0.038 A 
ATOM     12  C4  NON d   1     -39.616  22.846  -9.784  0.00  0.00     0.084 A 
BRANCH  12  13
ATOM     13  O2  NON d   1     -39.456  21.636 -10.406  0.00  0.00    -0.348 OA
BRANCH  13  14
ATOM     14  C3  NON d   1     -38.162  21.527 -11.010  0.00  0.00     0.201 C 
BRANCH  14  15
ATOM     15  C2  NON d   1     -37.147  21.239  -9.907  0.00  0.00     0.193 C 
BRANCH  15  16
ATOM     16  O1  NON d   1     -37.454  20.004  -9.257  0.00  0.00    -0.394 OA
ATOM     17  C1  NON d   1     -36.405  19.054  -9.406  0.00  0.00     0.201 C 
ENDBRANCH  15  16
ENDBRANCH  14  15
ENDBRANCH  13  14
ENDBRANCH  12  13
ENDBRANCH   4   7
ENDBRANCH   1   3
BRANCH   1  18
ATOM     18  N2  NON d   1     -40.793  19.427  -6.393  0.00  0.00    -0.332 N 
ATOM     19  H13 NON d   1     -41.690  19.867  -6.604  0.00  0.00     0.168 HD
BRANCH  18  20
ATOM     20  C12 NON d   1     -40.712  18.854  -5.101  0.00  0.00     0.050 A 
ATOM     21  C13 NON d   1     -39.390  18.621  -4.660  0.00  0.00     0.030 A 
ATOM     22  C14 NON d   1     -39.114  18.088  -3.398  0.00  0.00     0.002 A 
ATOM     23  C15 NON d   1     -40.156  17.762  -2.542  0.00  0.00     0.001 A 
ATOM     24  C16 NON d   1     -41.474  17.934  -2.969  0.00  0.00     0.019 A 
ATOM     25  C17 NON d   1     -41.758  18.456  -4.248  0.00  0.00     0.058 A 
BRANCH  25  26
ATOM     26  C18 NON d   1     -43.173  18.351  -4.669  0.00  0.00     0.253 C 
ATOM     27  O4  NON d   1     -43.623  19.125  -5.508  0.00  0.00    -0.268 OA
ATOM     28  N3  NON d   1     -43.893  17.335  -4.064  0.00  0.00    -0.357 N 
ATOM     29  H18 NON d   1     -43.461  16.888  -3.266  0.00  0.00     0.162 HD
BRANCH  28  30
ATOM     30  C19 NON d   1     -45.344  17.389  -4.056  0.00  0.00     0.125 C 
BRANCH  30  31
ATOM     31  C20 NON d   1     -45.959  17.095  -5.417  0.00  0.00     0.046 C 
BRANCH  31  32
ATOM     32  C21 NON d   1     -46.667  15.747  -5.395  0.00  0.00     0.165 C 
BRANCH  32  33
ATOM     33  O5  NON d   1     -46.329  15.004  -6.560  0.00  0.00    -0.401 OA
ATOM     34  H25 NON d   1     -46.858  15.361  -7.293  0.00  0.00     0.209 HD
ENDBRANCH  32  33
ENDBRANCH  31  32
ENDBRANCH  30  31
ENDBRANCH  28  30
ENDBRANCH  25  26
ENDBRANCH  18  20
ENDBRANCH   1  18
TORSDOF 13
ENDMDL
MODEL 6
REMARK VINA RESULT:   -10.316      2.214      3.096
REMARK INTER + INTRA:         -17.260
REMARK INTER:                 -14.194
REMARK INTRA:                  -3.066
REMARK CONF_INDEPENDENT:        3.878
REMARK UNBOUND:                -3.066
REMARK  13 active torsions:
REMARK  status: ('A' for Active; 'I' for Inactive)
REMARK    1  A    between atoms: O1_2  and  C2_3 
REMARK    2  A    between atoms: C2_3  and  C3_4 
REMARK    3  A    between atoms: C3_4  and  O2_5 
REMARK    4  A    between atoms: O2_5  and  C4_6 
REMARK    5  A    between atoms: C9_11  and  C10_12 
REMARK       I    between atoms: C10_12  and  N1_14 
REMARK    6  A    between atoms: N1_14  and  C11_15 
REMARK    7  A    between atoms: C11_15  and  N2_17 
REMARK    8  A    between atoms: N2_17  and  C12_18 
REMARK    9  A    between atoms: C17_23  and  C18_24 
REMARK       I    between atoms: C18_24  and  N3_26 
REMARK   10  A    between atoms: N3_26  and  C19_27 
REMARK   11  A    between atoms: C19_27  and  C20_28 
REMARK   12  A    between atoms: C20_28  and  C21_29 
REMARK   13  A    between atoms: C21_29  and  O5_30 
ROOT
ATOM      1  C11 NON d   1     -40.683  21.649  -5.238  0.00  0.00     0.179 C 
ATOM      2  S1  NON d   1     -40.451  22.981  -4.270  0.00  0.00    -0.040 SA
ENDROOT
BRANCH   1   3
ATOM      3  N1  NON d   1     -39.894  21.606  -6.368  0.00  0.00    -0.299 N 
ATOM      4  C10 NON d   1     -40.043  20.634  -7.344  0.00  0.00     0.260 C 
ATOM      5  O3  NON d   1     -41.035  19.909  -7.364  0.00  0.00    -0.267 OA
ATOM      6  H12 NON d   1     -38.966  21.948  -6.186  0.00  0.00     0.171 HD
BRANCH   4   7
ATOM      7  C9  NON d   1     -38.963  20.528  -8.382  0.00  0.00     0.065 A 
ATOM      8  C8  NON d   1     -37.948  19.555  -8.311  0.00  0.00     0.020 A 
ATOM      9  C7  NON d   1     -36.943  19.489  -9.285  0.00  0.00     0.001 A 
ATOM     10  C6  NON d   1     -36.940  20.383 -10.350  0.00  0.00     0.003 A 
ATOM     11  C5  NON d   1     -37.949  21.337 -10.450  0.00  0.00     0.038 A 
ATOM     12  C4  NON d   1     -38.943  21.420  -9.467  0.00  0.00     0.084 A 
BRANCH  12  13
ATOM     13  O2  NON d   1     -39.925  22.348  -9.693  0.00  0.00    -0.348 OA
BRANCH  13  14
ATOM     14  C3  NON d   1     -39.423  23.682  -9.559  0.00  0.00     0.201 C 
BRANCH  14  15
ATOM     15  C2  NON d   1     -39.718  24.160  -8.140  0.00  0.00     0.193 C 
BRANCH  15  16
ATOM     16  O1  NON d   1     -38.651  23.803  -7.261  0.00  0.00    -0.394 OA
ATOM     17  C1  NON d   1     -37.381  23.945  -7.889  0.00  0.00     0.201 C 
ENDBRANCH  15  16
ENDBRANCH  14  15
ENDBRANCH  13  14
ENDBRANCH  12  13
ENDBRANCH   4   7
ENDBRANCH   1   3
BRANCH   1  18
ATOM     18  N2  NON d   1     -41.483  20.544  -5.070  0.00  0.00    -0.332 N 
ATOM     19  H13 NON d   1     -42.159  20.470  -5.831  0.00  0.00     0.168 HD
BRANCH  18  20
ATOM     20  C12 NON d   1     -41.413  19.401  -4.237  0.00  0.00     0.050 A 
ATOM     21  C13 NON d   1     -40.171  19.246  -3.581  0.00  0.00     0.030 A 
ATOM     22  C14 NON d   1     -39.928  18.192  -2.696  0.00  0.00     0.002 A 
ATOM     23  C15 NON d   1     -40.922  17.255  -2.448  0.00  0.00     0.001 A 
ATOM     24  C16 NON d   1     -42.141  17.353  -3.119  0.00  0.00     0.019 A 
ATOM     25  C17 NON d   1     -42.385  18.406  -4.026  0.00  0.00     0.058 A 
BRANCH  25  26
ATOM     26  C18 NON d   1     -43.605  18.254  -4.851  0.00  0.00     0.253 C 
ATOM     27  O4  NON d   1     -43.922  19.134  -5.645  0.00  0.00    -0.268 OA
ATOM     28  N3  NON d   1     -44.304  17.076  -4.656  0.00  0.00    -0.357 N 
ATOM     29  H18 NON d   1     -44.041  16.521  -3.852  0.00  0.00     0.162 HD
BRANCH  28  30
ATOM     30  C19 NON d   1     -45.696  16.991  -5.060  0.00  0.00     0.125 C 
BRANCH  30  31
ATOM     31  C20 NON d   1     -46.588  16.360  -4.000  0.00  0.00     0.046 C 
BRANCH  31  32
ATOM     32  C21 NON d   1     -47.743  15.616  -4.658  0.00  0.00     0.165 C 
BRANCH  32  33
ATOM     33  O5  NON d   1     -47.447  15.380  -6.029  0.00  0.00    -0.401 OA
ATOM     34  H25 NON d   1     -48.196  15.718  -6.548  0.00  0.00     0.209 HD
ENDBRANCH  32  33
ENDBRANCH  31  32
ENDBRANCH  30  31
ENDBRANCH  28  30
ENDBRANCH  25  26
ENDBRANCH  18  20
ENDBRANCH   1  18
TORSDOF 13
ENDMDL
MODEL 7
REMARK VINA RESULT:    -9.901      2.054      3.067
REMARK INTER + INTRA:         -17.781
REMARK INTER:                 -13.778
REMARK INTRA:                  -4.002
REMARK CONF_INDEPENDENT:        3.878
REMARK UNBOUND:                -4.002
REMARK  13 active torsions:
REMARK  status: ('A' for Active; 'I' for Inactive)
REMARK    1  A    between atoms: O1_2  and  C2_3 
REMARK    2  A    between atoms: C2_3  and  C3_4 
REMARK    3  A    between atoms: C3_4  and  O2_5 
REMARK    4  A    between atoms: O2_5  and  C4_6 
REMARK    5  A    between atoms: C9_11  and  C10_12 
REMARK       I    between atoms: C10_12  and  N1_14 
REMARK    6  A    between atoms: N1_14  and  C11_15 
REMARK    7  A    between atoms: C11_15  and  N2_17 
REMARK    8  A    between atoms: N2_17  and  C12_18 
REMARK    9  A    between atoms: C17_23  and  C18_24 
REMARK       I    between atoms: C18_24  and  N3_26 
REMARK   10  A    between atoms: N3_26  and  C19_27 
REMARK   11  A    between atoms: C19_27  and  C20_28 
REMARK   12  A    between atoms: C20_28  and  C21_29 
REMARK   13  A    between atoms: C21_29  and  O5_30 
ROOT
ATOM      1  C11 NON d   1     -40.151  21.861  -5.266  0.00  0.00     0.179 C 
ATOM      2  S1  NON d   1     -39.846  23.138  -4.245  0.00  0.00    -0.040 SA
ENDROOT
BRANCH   1   3
ATOM      3  N1  NON d   1     -39.442  21.879  -6.448  0.00  0.00    -0.299 N 
ATOM      4  C10 NON d   1     -39.655  22.833  -7.430  0.00  0.00     0.260 C 
ATOM      5  O3  NON d   1     -40.315  23.843  -7.194  0.00  0.00    -0.267 OA
ATOM      6  H12 NON d   1     -39.191  20.952  -6.744  0.00  0.00     0.171 HD
BRANCH   4   7
ATOM      7  C9  NON d   1     -39.024  22.594  -8.771  0.00  0.00     0.065 A 
ATOM      8  C8  NON d   1     -39.045  23.562  -9.793  0.00  0.00     0.020 A 
ATOM      9  C7  NON d   1     -38.463  23.306 -11.041  0.00  0.00     0.001 A 
ATOM     10  C6  NON d   1     -37.837  22.088 -11.286  0.00  0.00     0.003 A 
ATOM     11  C5  NON d   1     -37.785  21.128 -10.279  0.00  0.00     0.038 A 
ATOM     12  C4  NON d   1     -38.385  21.371  -9.038  0.00  0.00     0.084 A 
BRANCH  12  13
ATOM     13  O2  NON d   1     -38.220  20.391  -8.096  0.00  0.00    -0.348 OA
BRANCH  13  14
ATOM     14  C3  NON d   1     -38.581  19.105  -8.612  0.00  0.00     0.201 C 
BRANCH  14  15
ATOM     15  C2  NON d   1     -39.850  18.647  -7.899  0.00  0.00     0.193 C 
BRANCH  15  16
ATOM     16  O1  NON d   1     -40.700  19.763  -7.627  0.00  0.00    -0.394 OA
ATOM     17  C1  NON d   1     -41.320  20.255  -8.810  0.00  0.00     0.201 C 
ENDBRANCH  15  16
ENDBRANCH  14  15
ENDBRANCH  13  14
ENDBRANCH  12  13
ENDBRANCH   4   7
ENDBRANCH   1   3
BRANCH   1  18
ATOM     18  N2  NON d   1     -40.945  20.751  -5.104  0.00  0.00    -0.332 N 
ATOM     19  H13 NON d   1     -41.595  20.656  -5.886  0.00  0.00     0.168 HD
BRANCH  18  20
ATOM     20  C12 NON d   1     -40.891  19.624  -4.249  0.00  0.00     0.050 A 
ATOM     21  C13 NON d   1     -39.662  19.481  -3.567  0.00  0.00     0.030 A 
ATOM     22  C14 NON d   1     -39.436  18.444  -2.658  0.00  0.00     0.002 A 
ATOM     23  C15 NON d   1     -40.434  17.512  -2.411  0.00  0.00     0.001 A 
ATOM     24  C16 NON d   1     -41.640  17.597  -3.106  0.00  0.00     0.019 A 
ATOM     25  C17 NON d   1     -41.867  18.632  -4.037  0.00  0.00     0.058 A 
BRANCH  25  26
ATOM     26  C18 NON d   1     -43.072  18.465  -4.881  0.00  0.00     0.253 C 
ATOM     27  O4  NON d   1     -43.340  19.300  -5.740  0.00  0.00    -0.268 OA
ATOM     28  N3  NON d   1     -43.815  17.326  -4.626  0.00  0.00    -0.357 N 
ATOM     29  H18 NON d   1     -43.590  16.819  -3.781  0.00  0.00     0.162 HD
BRANCH  28  30
ATOM     30  C19 NON d   1     -45.199  17.260  -5.060  0.00  0.00     0.125 C 
BRANCH  30  31
ATOM     31  C20 NON d   1     -46.098  16.523  -4.077  0.00  0.00     0.046 C 
BRANCH  31  32
ATOM     32  C21 NON d   1     -47.438  16.203  -4.725  0.00  0.00     0.165 C 
BRANCH  32  33
ATOM     33  O5  NON d   1     -47.237  15.380  -5.868  0.00  0.00    -0.401 OA
ATOM     34  H25 NON d   1     -48.110  15.220  -6.265  0.00  0.00     0.209 HD
ENDBRANCH  32  33
ENDBRANCH  31  32
ENDBRANCH  30  31
ENDBRANCH  28  30
ENDBRANCH  25  26
ENDBRANCH  18  20
ENDBRANCH   1  18
TORSDOF 13
ENDMDL
MODEL 8
REMARK VINA RESULT:    -9.554      1.769      7.566
REMARK INTER + INTRA:         -16.662
REMARK INTER:                 -13.432
REMARK INTRA:                  -3.230
REMARK CONF_INDEPENDENT:        3.878
REMARK UNBOUND:                -3.230
REMARK  13 active torsions:
REMARK  status: ('A' for Active; 'I' for Inactive)
REMARK    1  A    between atoms: O1_2  and  C2_3 
REMARK    2  A    between atoms: C2_3  and  C3_4 
REMARK    3  A    between atoms: C3_4  and  O2_5 
REMARK    4  A    between atoms: O2_5  and  C4_6 
REMARK    5  A    between atoms: C9_11  and  C10_12 
REMARK       I    between atoms: C10_12  and  N1_14 
REMARK    6  A    between atoms: N1_14  and  C11_15 
REMARK    7  A    between atoms: C11_15  and  N2_17 
REMARK    8  A    between atoms: N2_17  and  C12_18 
REMARK    9  A    between atoms: C17_23  and  C18_24 
REMARK       I    between atoms: C18_24  and  N3_26 
REMARK   10  A    between atoms: N3_26  and  C19_27 
REMARK   11  A    between atoms: C19_27  and  C20_28 
REMARK   12  A    between atoms: C20_28  and  C21_29 
REMARK   13  A    between atoms: C21_29  and  O5_30 
ROOT
ATOM      1  C11 NON d   1     -39.237  19.304  -7.989  0.00  0.00     0.179 C 
ATOM      2  S1  NON d   1     -37.927  18.577  -8.712  0.00  0.00    -0.040 SA
ENDROOT
BRANCH   1   3
ATOM      3  N1  NON d   1     -39.562  18.809  -6.743  0.00  0.00    -0.299 N 
ATOM      4  C10 NON d   1     -40.783  19.062  -6.138  0.00  0.00     0.260 C 
ATOM      5  O3  NON d   1     -41.718  19.536  -6.778  0.00  0.00    -0.267 OA
ATOM      6  H12 NON d   1     -38.754  18.733  -6.151  0.00  0.00     0.171 HD
BRANCH   4   7
ATOM      7  C9  NON d   1     -40.918  18.703  -4.685  0.00  0.00     0.065 A 
ATOM      8  C8  NON d   1     -39.847  18.826  -3.780  0.00  0.00     0.020 A 
ATOM      9  C7  NON d   1     -39.996  18.470  -2.434  0.00  0.00     0.001 A 
ATOM     10  C6  NON d   1     -41.217  17.999  -1.965  0.00  0.00     0.003 A 
ATOM     11  C5  NON d   1     -42.295  17.893  -2.840  0.00  0.00     0.038 A 
ATOM     12  C4  NON d   1     -42.144  18.228  -4.191  0.00  0.00     0.084 A 
BRANCH  12  13
ATOM     13  O2  NON d   1     -43.281  18.153  -4.952  0.00  0.00    -0.348 OA
BRANCH  13  14
ATOM     14  C3  NON d   1     -43.944  16.896  -4.776  0.00  0.00     0.201 C 
BRANCH  14  15
ATOM     15  C2  NON d   1     -45.442  17.120  -4.969  0.00  0.00     0.193 C 
BRANCH  15  16
ATOM     16  O1  NON d   1     -45.993  16.107  -5.812  0.00  0.00    -0.394 OA
ATOM     17  C1  NON d   1     -47.333  15.792  -5.450  0.00  0.00     0.201 C 
ENDBRANCH  15  16
ENDBRANCH  14  15
ENDBRANCH  13  14
ENDBRANCH  12  13
ENDBRANCH   4   7
ENDBRANCH   1   3
BRANCH   1  18
ATOM     18  N2  NON d   1     -40.015  20.362  -8.393  0.00  0.00    -0.332 N 
ATOM     19  H13 NON d   1     -40.981  20.237  -8.086  0.00  0.00     0.168 HD
BRANCH  18  20
ATOM     20  C12 NON d   1     -39.727  21.649  -8.909  0.00  0.00     0.050 A 
ATOM     21  C13 NON d   1     -39.503  21.670 -10.303  0.00  0.00     0.030 A 
ATOM     22  C14 NON d   1     -39.235  22.856 -10.992  0.00  0.00     0.002 A 
ATOM     23  C15 NON d   1     -39.173  24.058 -10.301  0.00  0.00     0.001 A 
ATOM     24  C16 NON d   1     -39.340  24.062  -8.915  0.00  0.00     0.019 A 
ATOM     25  C17 NON d   1     -39.595  22.865  -8.214  0.00  0.00     0.058 A 
BRANCH  25  26
ATOM     26  C18 NON d   1     -39.500  22.969  -6.740  0.00  0.00     0.253 C 
ATOM     27  O4  NON d   1     -38.637  23.674  -6.229  0.00  0.00    -0.268 OA
ATOM     28  N3  NON d   1     -40.443  22.239  -6.038  0.00  0.00    -0.357 N 
ATOM     29  H18 NON d   1     -40.978  21.563  -6.567  0.00  0.00     0.162 HD
BRANCH  28  30
ATOM     30  C19 NON d   1     -40.206  21.913  -4.643  0.00  0.00     0.125 C 
BRANCH  30  31
ATOM     31  C20 NON d   1     -41.309  22.409  -3.718  0.00  0.00     0.046 C 
BRANCH  31  32
ATOM     32  C21 NON d   1     -41.074  23.869  -3.354  0.00  0.00     0.165 C 
BRANCH  32  33
ATOM     33  O5  NON d   1     -40.675  24.596  -4.509  0.00  0.00    -0.401 OA
ATOM     34  H25 NON d   1     -39.730  24.414  -4.652  0.00  0.00     0.209 HD
ENDBRANCH  32  33
ENDBRANCH  31  32
ENDBRANCH  30  31
ENDBRANCH  28  30
ENDBRANCH  25  26
ENDBRANCH  18  20
ENDBRANCH   1  18
TORSDOF 13
ENDMDL
MODEL 9
REMARK VINA RESULT:    -9.518      3.898      5.293
REMARK INTER + INTRA:         -16.744
REMARK INTER:                 -13.396
REMARK INTRA:                  -3.347
REMARK CONF_INDEPENDENT:        3.878
REMARK UNBOUND:                -3.347
REMARK  13 active torsions:
REMARK  status: ('A' for Active; 'I' for Inactive)
REMARK    1  A    between atoms: O1_2  and  C2_3 
REMARK    2  A    between atoms: C2_3  and  C3_4 
REMARK    3  A    between atoms: C3_4  and  O2_5 
REMARK    4  A    between atoms: O2_5  and  C4_6 
REMARK    5  A    between atoms: C9_11  and  C10_12 
REMARK       I    between atoms: C10_12  and  N1_14 
REMARK    6  A    between atoms: N1_14  and  C11_15 
REMARK    7  A    between atoms: C11_15  and  N2_17 
REMARK    8  A    between atoms: N2_17  and  C12_18 
REMARK    9  A    between atoms: C17_23  and  C18_24 
REMARK       I    between atoms: C18_24  and  N3_26 
REMARK   10  A    between atoms: N3_26  and  C19_27 
REMARK   11  A    between atoms: C19_27  and  C20_28 
REMARK   12  A    between atoms: C20_28  and  C21_29 
REMARK   13  A    between atoms: C21_29  and  O5_30 
ROOT
ATOM      1  C11 NON d   1     -40.128  22.315  -3.815  0.00  0.00     0.179 C 
ATOM      2  S1  NON d   1     -39.093  23.198  -4.772  0.00  0.00    -0.040 SA
ENDROOT
BRANCH   1   3
ATOM      3  N1  NON d   1     -40.447  22.901  -2.608  0.00  0.00    -0.299 N 
ATOM      4  C10 NON d   1     -40.960  24.185  -2.517  0.00  0.00     0.260 C 
ATOM      5  O3  NON d   1     -41.375  24.770  -3.514  0.00  0.00    -0.267 OA
ATOM      6  H12 NON d   1     -39.841  22.585  -1.871  0.00  0.00     0.171 HD
BRANCH   4   7
ATOM      7  C9  NON d   1     -41.012  24.809  -1.152  0.00  0.00     0.065 A 
ATOM      8  C8  NON d   1     -41.061  26.204  -0.966  0.00  0.00     0.020 A 
ATOM      9  C7  NON d   1     -41.093  26.760   0.319  0.00  0.00     0.001 A 
ATOM     10  C6  NON d   1     -41.090  25.936   1.439  0.00  0.00     0.003 A 
ATOM     11  C5  NON d   1     -41.065  24.554   1.276  0.00  0.00     0.038 A 
ATOM     12  C4  NON d   1     -41.012  23.994  -0.007  0.00  0.00     0.084 A 
BRANCH  12  13
ATOM     13  O2  NON d   1     -41.058  22.626  -0.061  0.00  0.00    -0.348 OA
BRANCH  13  14
ATOM     14  C3  NON d   1     -40.200  22.036   0.921  0.00  0.00     0.201 C 
BRANCH  14  15
ATOM     15  C2  NON d   1     -39.008  21.415   0.198  0.00  0.00     0.193 C 
BRANCH  15  16
ATOM     16  O1  NON d   1     -38.232  22.428  -0.444  0.00  0.00    -0.394 OA
ATOM     17  C1  NON d   1     -37.456  21.901  -1.514  0.00  0.00     0.201 C 
ENDBRANCH  15  16
ENDBRANCH  14  15
ENDBRANCH  13  14
ENDBRANCH  12  13
ENDBRANCH   4   7
ENDBRANCH   1   3
BRANCH   1  18
ATOM     18  N2  NON d   1     -40.775  21.126  -4.051  0.00  0.00    -0.332 N 
ATOM     19  H13 NON d   1     -41.392  21.205  -4.860  0.00  0.00     0.168 HD
BRANCH  18  20
ATOM     20  C12 NON d   1     -40.593  19.802  -3.582  0.00  0.00     0.050 A 
ATOM     21  C13 NON d   1     -39.335  19.576  -2.980  0.00  0.00     0.030 A 
ATOM     22  C14 NON d   1     -38.988  18.338  -2.433  0.00  0.00     0.002 A 
ATOM     23  C15 NON d   1     -39.889  17.283  -2.482  0.00  0.00     0.001 A 
ATOM     24  C16 NON d   1     -41.119  17.462  -3.116  0.00  0.00     0.019 A 
ATOM     25  C17 NON d   1     -41.468  18.705  -3.683  0.00  0.00     0.058 A 
BRANCH  25  26
ATOM     26  C18 NON d   1     -42.678  18.689  -4.536  0.00  0.00     0.253 C 
ATOM     27  O4  NON d   1     -42.801  19.507  -5.442  0.00  0.00    -0.268 OA
ATOM     28  N3  NON d   1     -43.599  17.701  -4.232  0.00  0.00    -0.357 N 
ATOM     29  H18 NON d   1     -43.465  17.212  -3.357  0.00  0.00     0.162 HD
BRANCH  28  30
ATOM     30  C19 NON d   1     -44.973  17.837  -4.682  0.00  0.00     0.125 C 
BRANCH  30  31
ATOM     31  C20 NON d   1     -45.703  16.505  -4.776  0.00  0.00     0.046 C 
BRANCH  31  32
ATOM     32  C21 NON d   1     -47.064  16.696  -5.433  0.00  0.00     0.165 C 
BRANCH  32  33
ATOM     33  O5  NON d   1     -47.465  15.491  -6.073  0.00  0.00    -0.401 OA
ATOM     34  H25 NON d   1     -47.845  15.734  -6.934  0.00  0.00     0.209 HD
ENDBRANCH  32  33
ENDBRANCH  31  32
ENDBRANCH  30  31
ENDBRANCH  28  30
ENDBRANCH  25  26
ENDBRANCH  18  20
ENDBRANCH   1  18
TORSDOF 13
ENDMDL
