MODEL 1
REMARK VINA RESULT:   -14.560      0.000      0.000
REMARK INTER + INTRA:         -19.595
REMARK INTER:                 -17.245
REMARK INTRA:                  -2.350
REMARK CONF_INDEPENDENT:        2.685
REMARK UNBOUND:                -2.350
REMARK  9 active torsions:
REMARK  status: ('A' for Active; 'I' for Inactive)
REMARK    1  A    between atoms: O1_2  and  C2_3 
REMARK    2  A    between atoms: C5_6  and  C6_7 
REMARK    3  A    between atoms: C6_7  and  C7_8 
REMARK    4  A    between atoms: C7_8  and  N1_9 
REMARK    5  A    between atoms: C10_13  and  C11_14 
REMARK    6  A    between atoms: C11_14  and  C12_15 
REMARK    7  A    between atoms: C15_18  and  O3_19 
REMARK    8  A    between atoms: C16_20  and  O4_21 
REMARK    9  A    between atoms: C29_38  and  O7_39 
ROOT
ATOM      1  N1  NON d   1     -39.611  22.756  -4.501  0.00  0.00    -0.287 N 
ATOM      2  C8  NON d   1     -40.311  21.752  -3.802  0.00  0.00     0.233 C 
ATOM      3  O2  NON d   1     -40.778  21.838  -2.684  0.00  0.00    -0.272 OA
ATOM      4  C9  NON d   1     -40.292  20.505  -4.739  0.00  0.00     0.128 C 
ATOM      5  C10 NON d   1     -41.219  19.349  -5.018  0.00  0.00     0.240 C 
ATOM      6  N2  NON d   1     -41.790  19.541  -6.411  0.00  0.00     0.114 N 
ATOM      7  C18 NON d   1     -40.917  20.514  -7.226  0.00  0.00     0.279 C 
ATOM      8  C19 NON d   1     -39.951  19.182  -7.791  0.00  0.00     0.267 C 
ATOM      9  O5  NON d   1     -40.057  18.005  -7.454  0.00  0.00    -0.270 OA
ATOM     10  N3  NON d   1     -39.141  19.558  -8.816  0.00  0.00    -0.324 N 
ATOM     11  C20 NON d   1     -39.203  20.904  -8.990  0.00  0.00     0.044 C 
ATOM     12  C21 NON d   1     -38.567  21.577 -10.025  0.00  0.00     0.030 C 
ATOM     13  C22 NON d   1     -38.752  22.949 -10.119  0.00  0.00     0.002 C 
ATOM     14  C23 NON d   1     -39.615  23.588  -9.228  0.00  0.00     0.001 C 
ATOM     15  C24 NON d   1     -40.314  22.856  -8.255  0.00  0.00     0.012 C 
ATOM     16  C25 NON d   1     -40.044  21.488  -8.039  0.00  0.00     0.017 C 
ATOM     17  C26 NON d   1     -40.470  21.305  -5.975  0.00  0.00     0.147 C 
ATOM     18  C27 NON d   1     -39.259  22.199  -5.695  0.00  0.00     0.234 C 
ATOM     19  O6  NON d   1     -38.175  22.252  -6.235  0.00  0.00    -0.272 OA
ATOM     20  H19 NON d   1     -41.840  18.624  -6.875  0.00  0.00     0.318 HD
ATOM     21  H20 NON d   1     -38.615  18.901  -9.371  0.00  0.00     0.169 HD
ENDROOT
BRANCH   1  22
ATOM     22  C7  NON d   1     -39.123  24.045  -4.006  0.00  0.00     0.139 C 
BRANCH  22  23
ATOM     23  C6  NON d   1     -40.170  25.132  -3.558  0.00  0.00     0.059 C 
BRANCH  23  24
ATOM     24  C5  NON d   1     -40.651  25.316  -2.116  0.00  0.00    -0.054 A 
ATOM     25  C4  NON d   1     -41.052  26.532  -1.567  0.00  0.00     0.010 A 
ATOM     26  C3  NON d   1     -41.438  26.608  -0.211  0.00  0.00     0.040 A 
ATOM     27  C2  NON d   1     -41.441  25.479   0.618  0.00  0.00     0.101 A 
ATOM     28  C29 NON d   1     -41.149  24.234   0.065  0.00  0.00     0.102 A 
ATOM     29  C28 NON d   1     -40.723  24.171  -1.278  0.00  0.00     0.046 A 
BRANCH  27  30
ATOM     30  O1  NON d   1     -41.764  25.696   1.930  0.00  0.00    -0.353 OA
ATOM     31  C1  NON d   1     -41.413  27.001   2.397  0.00  0.00     0.210 C 
ENDBRANCH  27  30
BRANCH  28  32
ATOM     32  O7  NON d   1     -41.161  23.041   0.739  0.00  0.00    -0.353 OA
ATOM     33  C30 NON d   1     -39.964  22.254   0.642  0.00  0.00     0.210 C 
ENDBRANCH  28  32
ENDBRANCH  23  24
ENDBRANCH  22  23
ENDBRANCH   1  22
BRANCH   5  34
ATOM     34  C11 NON d   1     -42.202  19.032  -3.883  0.00  0.00     0.075 C 
BRANCH  34  35
ATOM     35  C12 NON d   1     -43.488  18.322  -4.306  0.00  0.00    -0.053 A 
ATOM     36  C13 NON d   1     -43.924  17.215  -3.558  0.00  0.00     0.010 A 
ATOM     37  C14 NON d   1     -45.082  16.505  -3.910  0.00  0.00     0.040 A 
ATOM     38  C15 NON d   1     -45.807  16.898  -5.025  0.00  0.00     0.098 A 
ATOM     39  C16 NON d   1     -45.401  17.997  -5.768  0.00  0.00     0.099 A 
ATOM     40  C17 NON d   1     -44.271  18.718  -5.406  0.00  0.00     0.046 A 
BRANCH  38  41
ATOM     41  O3  NON d   1     -46.930  16.236  -5.435  0.00  0.00    -0.358 OA
ATOM     42  H16 NON d   1     -47.308  16.711  -6.187  0.00  0.00     0.217 HD
ENDBRANCH  38  41
BRANCH  39  43
ATOM     43  O4  NON d   1     -46.106  18.380  -6.873  0.00  0.00    -0.358 OA
ATOM     44  H17 NON d   1     -46.689  17.619  -7.065  0.00  0.00     0.217 HD
ENDBRANCH  39  43
ENDBRANCH  34  35
ENDBRANCH   5  34
TORSDOF 9
ENDMDL
MODEL 2
REMARK VINA RESULT:   -13.939      2.063      3.047
REMARK INTER + INTRA:         -18.659
REMARK INTER:                 -16.623
REMARK INTRA:                  -2.036
REMARK CONF_INDEPENDENT:        2.685
REMARK UNBOUND:                -2.036
REMARK  9 active torsions:
REMARK  status: ('A' for Active; 'I' for Inactive)
REMARK    1  A    between atoms: O1_2  and  C2_3 
REMARK    2  A    between atoms: C5_6  and  C6_7 
REMARK    3  A    between atoms: C6_7  and  C7_8 
REMARK    4  A    between atoms: C7_8  and  N1_9 
REMARK    5  A    between atoms: C10_13  and  C11_14 
REMARK    6  A    between atoms: C11_14  and  C12_15 
REMARK    7  A    between atoms: C15_18  and  O3_19 
REMARK    8  A    between atoms: C16_20  and  O4_21 
REMARK    9  A    between atoms: C29_38  and  O7_39 
ROOT
ATOM      1  N1  NON d   1     -39.756  20.644  -1.697  0.00  0.00    -0.287 N 
ATOM      2  C8  NON d   1     -40.598  19.515  -1.687  0.00  0.00     0.233 C 
ATOM      3  O2  NON d   1     -41.063  18.965  -0.709  0.00  0.00    -0.272 OA
ATOM      4  C9  NON d   1     -40.743  19.092  -3.182  0.00  0.00     0.128 C 
ATOM      5  C10 NON d   1     -41.819  18.458  -4.027  0.00  0.00     0.240 C 
ATOM      6  N2  NON d   1     -42.339  19.517  -4.982  0.00  0.00     0.114 N 
ATOM      7  C18 NON d   1     -41.328  20.671  -5.115  0.00  0.00     0.279 C 
ATOM      8  C19 NON d   1     -40.552  19.844  -6.435  0.00  0.00     0.267 C 
ATOM      9  O5  NON d   1     -40.825  18.724  -6.861  0.00  0.00    -0.270 OA
ATOM     10  N3  NON d   1     -39.684  20.661  -7.088  0.00  0.00    -0.324 N 
ATOM     11  C20 NON d   1     -39.553  21.836  -6.418  0.00  0.00     0.044 C 
ATOM     12  C21 NON d   1     -38.816  22.915  -6.889  0.00  0.00     0.030 C 
ATOM     13  C22 NON d   1     -38.805  24.076  -6.131  0.00  0.00     0.002 C 
ATOM     14  C23 NON d   1     -39.582  24.148  -4.973  0.00  0.00     0.001 C 
ATOM     15  C24 NON d   1     -40.389  23.067  -4.582  0.00  0.00     0.012 C 
ATOM     16  C25 NON d   1     -40.316  21.825  -5.247  0.00  0.00     0.017 C 
ATOM     17  C26 NON d   1     -40.791  20.489  -3.677  0.00  0.00     0.147 C 
ATOM     18  C27 NON d   1     -39.470  20.881  -3.009  0.00  0.00     0.234 C 
ATOM     19  O6  NON d   1     -38.382  21.118  -3.489  0.00  0.00    -0.272 OA
ATOM     20  H19 NON d   1     -42.511  19.079  -5.897  0.00  0.00     0.318 HD
ATOM     21  H20 NON d   1     -39.248  20.414  -7.963  0.00  0.00     0.169 HD
ENDROOT
BRANCH   1  22
ATOM     22  C7  NON d   1     -39.098  21.305  -0.568  0.00  0.00     0.139 C 
BRANCH  22  23
ATOM     23  C6  NON d   1     -39.985  21.857   0.610  0.00  0.00     0.059 C 
BRANCH  23  24
ATOM     24  C5  NON d   1     -39.712  23.172   1.345  0.00  0.00    -0.054 A 
ATOM     25  C4  NON d   1     -38.456  23.763   1.466  0.00  0.00     0.010 A 
ATOM     26  C3  NON d   1     -38.300  24.956   2.203  0.00  0.00     0.040 A 
ATOM     27  C2  NON d   1     -39.385  25.586   2.824  0.00  0.00     0.101 A 
ATOM     28  C29 NON d   1     -40.666  25.074   2.628  0.00  0.00     0.102 A 
ATOM     29  C28 NON d   1     -40.811  23.860   1.927  0.00  0.00     0.046 A 
BRANCH  27  30
ATOM     30  O1  NON d   1     -39.092  26.695   3.571  0.00  0.00    -0.353 OA
ATOM     31  C1  NON d   1     -37.696  27.000   3.618  0.00  0.00     0.210 C 
ENDBRANCH  27  30
BRANCH  28  32
ATOM     32  O7  NON d   1     -41.823  25.611   3.129  0.00  0.00    -0.353 OA
ATOM     33  C30 NON d   1     -42.083  26.979   2.778  0.00  0.00     0.210 C 
ENDBRANCH  28  32
ENDBRANCH  23  24
ENDBRANCH  22  23
ENDBRANCH   1  22
BRANCH   5  34
ATOM     34  C11 NON d   1     -42.852  17.643  -3.237  0.00  0.00     0.075 C 
BRANCH  34  35
ATOM     35  C12 NON d   1     -44.187  17.412  -3.944  0.00  0.00    -0.053 A 
ATOM     36  C13 NON d   1     -45.100  16.505  -3.379  0.00  0.00     0.010 A 
ATOM     37  C14 NON d   1     -46.332  16.230  -3.993  0.00  0.00     0.040 A 
ATOM     38  C15 NON d   1     -46.651  16.859  -5.187  0.00  0.00     0.098 A 
ATOM     39  C16 NON d   1     -45.768  17.767  -5.753  0.00  0.00     0.099 A 
ATOM     40  C17 NON d   1     -44.562  18.062  -5.134  0.00  0.00     0.046 A 
BRANCH  38  41
ATOM     41  O3  NON d   1     -47.822  16.618  -5.847  0.00  0.00    -0.358 OA
ATOM     42  H16 NON d   1     -47.807  17.101  -6.684  0.00  0.00     0.217 HD
ENDBRANCH  38  41
BRANCH  39  43
ATOM     43  O4  NON d   1     -46.075  18.380  -6.935  0.00  0.00    -0.358 OA
ATOM     44  H17 NON d   1     -47.045  18.290  -7.011  0.00  0.00     0.217 HD
ENDBRANCH  39  43
ENDBRANCH  34  35
ENDBRANCH   5  34
TORSDOF 9
ENDMDL
MODEL 3
REMARK VINA RESULT:   -13.858      1.638      2.407
REMARK INTER + INTRA:         -18.692
REMARK INTER:                 -16.543
REMARK INTRA:                  -2.150
REMARK CONF_INDEPENDENT:        2.685
REMARK UNBOUND:                -2.150
REMARK  9 active torsions:
REMARK  status: ('A' for Active; 'I' for Inactive)
REMARK    1  A    between atoms: O1_2  and  C2_3 
REMARK    2  A    between atoms: C5_6  and  C6_7 
REMARK    3  A    between atoms: C6_7  and  C7_8 
REMARK    4  A    between atoms: C7_8  and  N1_9 
REMARK    5  A    between atoms: C10_13  and  C11_14 
REMARK    6  A    between atoms: C11_14  and  C12_15 
REMARK    7  A    between atoms: C15_18  and  O3_19 
REMARK    8  A    between atoms: C16_20  and  O4_21 
REMARK    9  A    between atoms: C29_38  and  O7_39 
ROOT
ATOM      1  N1  NON d   1     -39.475  20.630  -2.278  0.00  0.00    -0.287 N 
ATOM      2  C8  NON d   1     -40.448  19.634  -2.060  0.00  0.00     0.233 C 
ATOM      3  O2  NON d   1     -40.991  19.370  -1.006  0.00  0.00    -0.272 OA
ATOM      4  C9  NON d   1     -40.619  18.913  -3.432  0.00  0.00     0.128 C 
ATOM      5  C10 NON d   1     -41.750  18.236  -4.164  0.00  0.00     0.240 C 
ATOM      6  N2  NON d   1     -42.125  19.111  -5.346  0.00  0.00     0.114 N 
ATOM      7  C18 NON d   1     -40.980  20.085  -5.684  0.00  0.00     0.279 C 
ATOM      8  C19 NON d   1     -40.289  18.906  -6.760  0.00  0.00     0.267 C 
ATOM      9  O5  NON d   1     -40.689  17.758  -6.945  0.00  0.00    -0.270 OA
ATOM     10  N3  NON d   1     -39.320  19.455  -7.538  0.00  0.00    -0.324 N 
ATOM     11  C20 NON d   1     -39.059  20.725  -7.133  0.00  0.00     0.044 C 
ATOM     12  C21 NON d   1     -38.190  21.583  -7.795  0.00  0.00     0.030 C 
ATOM     13  C22 NON d   1     -38.051  22.873  -7.306  0.00  0.00     0.002 C 
ATOM     14  C23 NON d   1     -38.831  23.286  -6.225  0.00  0.00     0.001 C 
ATOM     15  C24 NON d   1     -39.769  22.417  -5.643  0.00  0.00     0.012 C 
ATOM     16  C25 NON d   1     -39.835  21.059  -6.020  0.00  0.00     0.017 C 
ATOM     17  C26 NON d   1     -40.492  20.163  -4.219  0.00  0.00     0.147 C 
ATOM     18  C27 NON d   1     -39.143  20.539  -3.598  0.00  0.00     0.234 C 
ATOM     19  O6  NON d   1     -38.027  20.539  -4.073  0.00  0.00    -0.272 OA
ATOM     20  H19 NON d   1     -42.335  18.506  -6.150  0.00  0.00     0.318 HD
ATOM     21  H20 NON d   1     -38.903  18.974  -8.320  0.00  0.00     0.169 HD
ENDROOT
BRANCH   1  22
ATOM     22  C7  NON d   1     -38.761  21.443  -1.293  0.00  0.00     0.139 C 
BRANCH  22  23
ATOM     23  C6  NON d   1     -39.457  21.754   0.084  0.00  0.00     0.059 C 
BRANCH  23  24
ATOM     24  C5  NON d   1     -40.043  23.117   0.460  0.00  0.00    -0.054 A 
ATOM     25  C4  NON d   1     -40.475  23.465   1.738  0.00  0.00     0.010 A 
ATOM     26  C3  NON d   1     -41.044  24.735   1.976  0.00  0.00     0.040 A 
ATOM     27  C2  NON d   1     -41.185  25.682   0.954  0.00  0.00     0.101 A 
ATOM     28  C29 NON d   1     -40.662  25.398  -0.307  0.00  0.00     0.102 A 
ATOM     29  C28 NON d   1     -40.134  24.114  -0.548  0.00  0.00     0.046 A 
BRANCH  27  30
ATOM     30  O1  NON d   1     -41.818  26.847   1.294  0.00  0.00    -0.353 OA
ATOM     31  C1  NON d   1     -42.013  27.000   2.702  0.00  0.00     0.210 C 
ENDBRANCH  27  30
BRANCH  28  32
ATOM     32  O7  NON d   1     -40.681  26.244  -1.384  0.00  0.00    -0.353 OA
ATOM     33  C30 NON d   1     -41.054  25.652  -2.639  0.00  0.00     0.210 C 
ENDBRANCH  28  32
ENDBRANCH  23  24
ENDBRANCH  22  23
ENDBRANCH   1  22
BRANCH   5  34
ATOM     34  C11 NON d   1     -42.886  17.737  -3.260  0.00  0.00     0.075 C 
BRANCH  34  35
ATOM     35  C12 NON d   1     -44.213  17.457  -3.965  0.00  0.00    -0.053 A 
ATOM     36  C13 NON d   1     -45.083  16.504  -3.408  0.00  0.00     0.010 A 
ATOM     37  C14 NON d   1     -46.305  16.183  -4.021  0.00  0.00     0.040 A 
ATOM     38  C15 NON d   1     -46.656  16.812  -5.205  0.00  0.00     0.098 A 
ATOM     39  C16 NON d   1     -45.816  17.766  -5.763  0.00  0.00     0.099 A 
ATOM     40  C17 NON d   1     -44.621  18.105  -5.145  0.00  0.00     0.046 A 
BRANCH  38  41
ATOM     41  O3  NON d   1     -47.819  16.528  -5.864  0.00  0.00    -0.358 OA
ATOM     42  H16 NON d   1     -47.721  16.799  -6.787  0.00  0.00     0.217 HD
ENDBRANCH  38  41
BRANCH  39  43
ATOM     43  O4  NON d   1     -46.155  18.379  -6.935  0.00  0.00    -0.358 OA
ATOM     44  H17 NON d   1     -47.127  18.466  -6.893  0.00  0.00     0.217 HD
ENDBRANCH  39  43
ENDBRANCH  34  35
ENDBRANCH   5  34
TORSDOF 9
ENDMDL
MODEL 4
REMARK VINA RESULT:   -13.728      2.909      7.834
REMARK INTER + INTRA:         -18.226
REMARK INTER:                 -16.413
REMARK INTRA:                  -1.813
REMARK CONF_INDEPENDENT:        2.685
REMARK UNBOUND:                -1.813
REMARK  9 active torsions:
REMARK  status: ('A' for Active; 'I' for Inactive)
REMARK    1  A    between atoms: O1_2  and  C2_3 
REMARK    2  A    between atoms: C5_6  and  C6_7 
REMARK    3  A    between atoms: C6_7  and  C7_8 
REMARK    4  A    between atoms: C7_8  and  N1_9 
REMARK    5  A    between atoms: C10_13  and  C11_14 
REMARK    6  A    between atoms: C11_14  and  C12_15 
REMARK    7  A    between atoms: C15_18  and  O3_19 
REMARK    8  A    between atoms: C16_20  and  O4_21 
REMARK    9  A    between atoms: C29_38  and  O7_39 
ROOT
ATOM      1  N1  NON d   1     -40.054  20.673  -6.120  0.00  0.00    -0.287 N 
ATOM      2  C8  NON d   1     -40.916  19.609  -5.787  0.00  0.00     0.233 C 
ATOM      3  O2  NON d   1     -41.492  18.873  -6.563  0.00  0.00    -0.272 OA
ATOM      4  C9  NON d   1     -41.019  19.629  -4.231  0.00  0.00     0.128 C 
ATOM      5  C10 NON d   1     -41.200  18.598  -3.146  0.00  0.00     0.240 C 
ATOM      6  N2  NON d   1     -39.893  18.499  -2.380  0.00  0.00     0.114 N 
ATOM      7  C18 NON d   1     -39.029  19.751  -2.619  0.00  0.00     0.279 C 
ATOM      8  C19 NON d   1     -39.780  20.534  -1.259  0.00  0.00     0.267 C 
ATOM      9  O5  NON d   1     -40.701  20.092  -0.575  0.00  0.00    -0.270 OA
ATOM     10  N3  NON d   1     -39.109  21.661  -0.905  0.00  0.00    -0.324 N 
ATOM     11  C20 NON d   1     -38.143  21.936  -1.819  0.00  0.00     0.044 C 
ATOM     12  C21 NON d   1     -37.221  22.966  -1.680  0.00  0.00     0.030 C 
ATOM     13  C22 NON d   1     -36.252  23.109  -2.663  0.00  0.00     0.002 C 
ATOM     14  C23 NON d   1     -36.190  22.183  -3.705  0.00  0.00     0.001 C 
ATOM     15  C24 NON d   1     -37.081  21.099  -3.757  0.00  0.00     0.012 C 
ATOM     16  C25 NON d   1     -38.165  21.003  -2.858  0.00  0.00     0.017 C 
ATOM     17  C26 NON d   1     -39.591  19.981  -4.040  0.00  0.00     0.147 C 
ATOM     18  C27 NON d   1     -39.670  21.223  -4.932  0.00  0.00     0.234 C 
ATOM     19  O6  NON d   1     -39.637  22.402  -4.650  0.00  0.00    -0.272 OA
ATOM     20  H19 NON d   1     -40.106  18.390  -1.380  0.00  0.00     0.318 HD
ATOM     21  H20 NON d   1     -39.301  22.173  -0.057  0.00  0.00     0.169 HD
ENDROOT
BRANCH   1  22
ATOM     22  C7  NON d   1     -39.791  21.260  -7.434  0.00  0.00     0.139 C 
BRANCH  22  23
ATOM     23  C6  NON d   1     -38.547  20.755  -8.256  0.00  0.00     0.059 C 
BRANCH  23  24
ATOM     24  C5  NON d   1     -38.262  21.146  -9.709  0.00  0.00    -0.054 A 
ATOM     25  C4  NON d   1     -37.053  20.926 -10.364  0.00  0.00     0.010 A 
ATOM     26  C3  NON d   1     -36.874  21.364 -11.694  0.00  0.00     0.040 A 
ATOM     27  C2  NON d   1     -37.892  22.018 -12.397  0.00  0.00     0.101 A 
ATOM     28  C29 NON d   1     -39.145  22.154 -11.802  0.00  0.00     0.102 A 
ATOM     29  C28 NON d   1     -39.305  21.753 -10.460  0.00  0.00     0.046 A 
BRANCH  27  30
ATOM     30  O1  NON d   1     -37.570  22.459 -13.653  0.00  0.00    -0.353 OA
ATOM     31  C1  NON d   1     -37.413  21.406 -14.605  0.00  0.00     0.210 C 
ENDBRANCH  27  30
BRANCH  28  32
ATOM     32  O7  NON d   1     -40.246  22.724 -12.386  0.00  0.00    -0.353 OA
ATOM     33  C30 NON d   1     -40.100  24.094 -12.794  0.00  0.00     0.210 C 
ENDBRANCH  28  32
ENDBRANCH  23  24
ENDBRANCH  22  23
ENDBRANCH   1  22
BRANCH   5  34
ATOM     34  C11 NON d   1     -41.852  17.289  -3.613  0.00  0.00     0.075 C 
BRANCH  34  35
ATOM     35  C12 NON d   1     -43.166  17.446  -4.379  0.00  0.00    -0.053 A 
ATOM     36  C13 NON d   1     -43.610  18.741  -4.697  0.00  0.00     0.010 A 
ATOM     37  C14 NON d   1     -44.820  18.953  -5.376  0.00  0.00     0.040 A 
ATOM     38  C15 NON d   1     -45.599  17.863  -5.732  0.00  0.00     0.098 A 
ATOM     39  C16 NON d   1     -45.170  16.576  -5.439  0.00  0.00     0.099 A 
ATOM     40  C17 NON d   1     -43.961  16.362  -4.792  0.00  0.00     0.046 A 
BRANCH  38  41
ATOM     41  O3  NON d   1     -46.797  18.001  -6.373  0.00  0.00    -0.358 OA
ATOM     42  H16 NON d   1     -46.938  17.224  -6.930  0.00  0.00     0.217 HD
ENDBRANCH  38  41
BRANCH  39  43
ATOM     43  O4  NON d   1     -45.941  15.500  -5.779  0.00  0.00    -0.358 OA
ATOM     44  H17 NON d   1     -46.637  15.872  -6.355  0.00  0.00     0.217 HD
ENDBRANCH  39  43
ENDBRANCH  34  35
ENDBRANCH   5  34
TORSDOF 9
ENDMDL
MODEL 5
REMARK VINA RESULT:   -13.511      2.900      7.127
REMARK INTER + INTRA:         -17.776
REMARK INTER:                 -16.196
REMARK INTRA:                  -1.580
REMARK CONF_INDEPENDENT:        2.685
REMARK UNBOUND:                -1.580
REMARK  9 active torsions:
REMARK  status: ('A' for Active; 'I' for Inactive)
REMARK    1  A    between atoms: O1_2  and  C2_3 
REMARK    2  A    between atoms: C5_6  and  C6_7 
REMARK    3  A    between atoms: C6_7  and  C7_8 
REMARK    4  A    between atoms: C7_8  and  N1_9 
REMARK    5  A    between atoms: C10_13  and  C11_14 
REMARK    6  A    between atoms: C11_14  and  C12_15 
REMARK    7  A    between atoms: C15_18  and  O3_19 
REMARK    8  A    between atoms: C16_20  and  O4_21 
REMARK    9  A    between atoms: C29_38  and  O7_39 
ROOT
ATOM      1  N1  NON d   1     -40.053  20.685  -6.081  0.00  0.00    -0.287 N 
ATOM      2  C8  NON d   1     -40.913  19.616  -5.760  0.00  0.00     0.233 C 
ATOM      3  O2  NON d   1     -41.488  18.888  -6.544  0.00  0.00    -0.272 OA
ATOM      4  C9  NON d   1     -41.016  19.619  -4.204  0.00  0.00     0.128 C 
ATOM      5  C10 NON d   1     -41.195  18.576  -3.130  0.00  0.00     0.240 C 
ATOM      6  N2  NON d   1     -39.888  18.471  -2.365  0.00  0.00     0.114 N 
ATOM      7  C18 NON d   1     -39.026  19.727  -2.590  0.00  0.00     0.279 C 
ATOM      8  C19 NON d   1     -39.779  20.494  -1.222  0.00  0.00     0.267 C 
ATOM      9  O5  NON d   1     -40.699  20.043  -0.543  0.00  0.00    -0.270 OA
ATOM     10  N3  NON d   1     -39.109  21.618  -0.856  0.00  0.00    -0.324 N 
ATOM     11  C20 NON d   1     -38.143  21.905  -1.767  0.00  0.00     0.044 C 
ATOM     12  C21 NON d   1     -37.223  22.935  -1.617  0.00  0.00     0.030 C 
ATOM     13  C22 NON d   1     -36.255  23.089  -2.598  0.00  0.00     0.002 C 
ATOM     14  C23 NON d   1     -36.191  22.176  -3.651  0.00  0.00     0.001 C 
ATOM     15  C24 NON d   1     -37.081  21.091  -3.715  0.00  0.00     0.012 C 
ATOM     16  C25 NON d   1     -38.164  20.983  -2.817  0.00  0.00     0.017 C 
ATOM     17  C26 NON d   1     -39.589  19.971  -4.009  0.00  0.00     0.147 C 
ATOM     18  C27 NON d   1     -39.670  21.223  -4.888  0.00  0.00     0.234 C 
ATOM     19  O6  NON d   1     -39.638  22.399  -4.593  0.00  0.00    -0.272 OA
ATOM     20  H19 NON d   1     -40.101  18.351  -1.366  0.00  0.00     0.318 HD
ATOM     21  H20 NON d   1     -39.302  22.120  -0.003  0.00  0.00     0.169 HD
ENDROOT
BRANCH   1  22
ATOM     22  C7  NON d   1     -39.791  21.287  -7.389  0.00  0.00     0.139 C 
BRANCH  22  23
ATOM     23  C6  NON d   1     -39.437  22.819  -7.464  0.00  0.00     0.059 C 
BRANCH  23  24
ATOM     24  C5  NON d   1     -39.568  23.669  -8.730  0.00  0.00    -0.054 A 
ATOM     25  C4  NON d   1     -39.889  25.025  -8.742  0.00  0.00     0.010 A 
ATOM     26  C3  NON d   1     -40.030  25.712  -9.967  0.00  0.00     0.040 A 
ATOM     27  C2  NON d   1     -39.845  25.070 -11.197  0.00  0.00     0.101 A 
ATOM     28  C29 NON d   1     -39.418  23.743 -11.210  0.00  0.00     0.102 A 
ATOM     29  C28 NON d   1     -39.321  23.051  -9.985  0.00  0.00     0.046 A 
BRANCH  27  30
ATOM     30  O1  NON d   1     -40.083  25.826 -12.314  0.00  0.00    -0.353 OA
ATOM     31  C1  NON d   1     -41.024  25.237 -13.213  0.00  0.00     0.210 C 
ENDBRANCH  27  30
BRANCH  28  32
ATOM     32  O7  NON d   1     -39.150  23.005 -12.332  0.00  0.00    -0.353 OA
ATOM     33  C30 NON d   1     -38.362  23.659 -13.340  0.00  0.00     0.210 C 
ENDBRANCH  28  32
ENDBRANCH  23  24
ENDBRANCH  22  23
ENDBRANCH   1  22
BRANCH   5  34
ATOM     34  C11 NON d   1     -41.846  17.272  -3.611  0.00  0.00     0.075 C 
BRANCH  34  35
ATOM     35  C12 NON d   1     -43.160  17.435  -4.373  0.00  0.00    -0.053 A 
ATOM     36  C13 NON d   1     -43.605  18.732  -4.681  0.00  0.00     0.010 A 
ATOM     37  C14 NON d   1     -44.816  18.950  -5.356  0.00  0.00     0.040 A 
ATOM     38  C15 NON d   1     -45.596  17.862  -5.719  0.00  0.00     0.098 A 
ATOM     39  C16 NON d   1     -45.168  16.573  -5.436  0.00  0.00     0.099 A 
ATOM     40  C17 NON d   1     -43.957  16.354  -4.793  0.00  0.00     0.046 A 
BRANCH  38  41
ATOM     41  O3  NON d   1     -46.795  18.006  -6.357  0.00  0.00    -0.358 OA
ATOM     42  H16 NON d   1     -46.885  17.294  -7.004  0.00  0.00     0.217 HD
ENDBRANCH  38  41
BRANCH  39  43
ATOM     43  O4  NON d   1     -45.939  15.500  -5.782  0.00  0.00    -0.358 OA
ATOM     44  H17 NON d   1     -46.857  15.820  -5.685  0.00  0.00     0.217 HD
ENDBRANCH  39  43
ENDBRANCH  34  35
ENDBRANCH   5  34
TORSDOF 9
ENDMDL
MODEL 6
REMARK VINA RESULT:   -13.448      1.316      1.476
REMARK INTER + INTRA:         -18.502
REMARK INTER:                 -16.133
REMARK INTRA:                  -2.369
REMARK CONF_INDEPENDENT:        2.685
REMARK UNBOUND:                -2.369
REMARK  9 active torsions:
REMARK  status: ('A' for Active; 'I' for Inactive)
REMARK    1  A    between atoms: O1_2  and  C2_3 
REMARK    2  A    between atoms: C5_6  and  C6_7 
REMARK    3  A    between atoms: C6_7  and  C7_8 
REMARK    4  A    between atoms: C7_8  and  N1_9 
REMARK    5  A    between atoms: C10_13  and  C11_14 
REMARK    6  A    between atoms: C11_14  and  C12_15 
REMARK    7  A    between atoms: C15_18  and  O3_19 
REMARK    8  A    between atoms: C16_20  and  O4_21 
REMARK    9  A    between atoms: C29_38  and  O7_39 
ROOT
ATOM      1  N1  NON d   1     -38.926  21.648  -3.624  0.00  0.00    -0.287 N 
ATOM      2  C8  NON d   1     -39.846  20.724  -3.089  0.00  0.00     0.233 C 
ATOM      3  O2  NON d   1     -40.312  20.732  -1.968  0.00  0.00    -0.272 OA
ATOM      4  C9  NON d   1     -40.074  19.668  -4.214  0.00  0.00     0.128 C 
ATOM      5  C10 NON d   1     -41.223  18.802  -4.667  0.00  0.00     0.240 C 
ATOM      6  N2  NON d   1     -41.701  19.333  -6.006  0.00  0.00     0.114 N 
ATOM      7  C18 NON d   1     -40.616  20.208  -6.662  0.00  0.00     0.279 C 
ATOM      8  C19 NON d   1     -39.950  18.804  -7.443  0.00  0.00     0.267 C 
ATOM      9  O5  NON d   1     -40.317  17.640  -7.297  0.00  0.00    -0.270 OA
ATOM     10  N3  NON d   1     -39.051  19.151  -8.401  0.00  0.00    -0.324 N 
ATOM     11  C20 NON d   1     -38.813  20.488  -8.356  0.00  0.00     0.044 C 
ATOM     12  C21 NON d   1     -38.019  21.161  -9.275  0.00  0.00     0.030 C 
ATOM     13  C22 NON d   1     -37.898  22.537  -9.146  0.00  0.00     0.002 C 
ATOM     14  C23 NON d   1     -38.624  23.200  -8.157  0.00  0.00     0.001 C 
ATOM     15  C24 NON d   1     -39.492  22.494  -7.307  0.00  0.00     0.012 C 
ATOM     16  C25 NON d   1     -39.531  21.083  -7.316  0.00  0.00     0.017 C 
ATOM     17  C26 NON d   1     -40.042  20.673  -5.304  0.00  0.00     0.147 C 
ATOM     18  C27 NON d   1     -38.673  21.224  -4.896  0.00  0.00     0.234 C 
ATOM     19  O6  NON d   1     -37.589  21.124  -5.430  0.00  0.00    -0.272 OA
ATOM     20  H19 NON d   1     -41.938  18.535  -6.611  0.00  0.00     0.318 HD
ATOM     21  H20 NON d   1     -38.665  18.491  -9.059  0.00  0.00     0.169 HD
ENDROOT
BRANCH   1  22
ATOM     22  C7  NON d   1     -38.183  22.703  -2.934  0.00  0.00     0.139 C 
BRANCH  22  23
ATOM     23  C6  NON d   1     -38.963  23.970  -2.419  0.00  0.00     0.059 C 
BRANCH  23  24
ATOM     24  C5  NON d   1     -39.642  24.062  -1.051  0.00  0.00    -0.054 A 
ATOM     25  C4  NON d   1     -41.010  24.244  -0.859  0.00  0.00     0.010 A 
ATOM     26  C3  NON d   1     -41.536  24.361   0.445  0.00  0.00     0.040 A 
ATOM     27  C2  NON d   1     -40.718  24.290   1.579  0.00  0.00     0.101 A 
ATOM     28  C29 NON d   1     -39.364  24.001   1.418  0.00  0.00     0.102 A 
ATOM     29  C28 NON d   1     -38.837  23.928   0.112  0.00  0.00     0.046 A 
BRANCH  27  30
ATOM     30  O1  NON d   1     -41.337  24.492   2.784  0.00  0.00    -0.353 OA
ATOM     31  C1  NON d   1     -40.631  25.388   3.645  0.00  0.00     0.210 C 
ENDBRANCH  27  30
BRANCH  28  32
ATOM     32  O7  NON d   1     -38.456  23.853   2.433  0.00  0.00    -0.353 OA
ATOM     33  C30 NON d   1     -37.629  22.679   2.368  0.00  0.00     0.210 C 
ENDBRANCH  28  32
ENDBRANCH  23  24
ENDBRANCH  22  23
ENDBRANCH   1  22
BRANCH   5  34
ATOM     34  C11 NON d   1     -42.281  18.533  -3.589  0.00  0.00     0.075 C 
BRANCH  34  35
ATOM     35  C12 NON d   1     -43.627  18.021  -4.102  0.00  0.00    -0.053 A 
ATOM     36  C13 NON d   1     -44.300  17.035  -3.360  0.00  0.00     0.010 A 
ATOM     37  C14 NON d   1     -45.526  16.506  -3.790  0.00  0.00     0.040 A 
ATOM     38  C15 NON d   1     -46.082  16.958  -4.978  0.00  0.00     0.098 A 
ATOM     39  C16 NON d   1     -45.439  17.941  -5.717  0.00  0.00     0.099 A 
ATOM     40  C17 NON d   1     -44.240  18.486  -5.280  0.00  0.00     0.046 A 
BRANCH  38  41
ATOM     41  O3  NON d   1     -47.260  16.468  -5.464  0.00  0.00    -0.358 OA
ATOM     42  H16 NON d   1     -47.483  16.951  -6.271  0.00  0.00     0.217 HD
ENDBRANCH  38  41
BRANCH  39  43
ATOM     43  O4  NON d   1     -45.978  18.380  -6.893  0.00  0.00    -0.358 OA
ATOM     44  H17 NON d   1     -46.523  17.632  -7.205  0.00  0.00     0.217 HD
ENDBRANCH  39  43
ENDBRANCH  34  35
ENDBRANCH   5  34
TORSDOF 9
ENDMDL
MODEL 7
REMARK VINA RESULT:   -12.893      2.071      3.327
REMARK INTER + INTRA:         -19.001
REMARK INTER:                 -15.578
REMARK INTRA:                  -3.424
REMARK CONF_INDEPENDENT:        2.685
REMARK UNBOUND:                -3.424
REMARK  9 active torsions:
REMARK  status: ('A' for Active; 'I' for Inactive)
REMARK    1  A    between atoms: O1_2  and  C2_3 
REMARK    2  A    between atoms: C5_6  and  C6_7 
REMARK    3  A    between atoms: C6_7  and  C7_8 
REMARK    4  A    between atoms: C7_8  and  N1_9 
REMARK    5  A    between atoms: C10_13  and  C11_14 
REMARK    6  A    between atoms: C11_14  and  C12_15 
REMARK    7  A    between atoms: C15_18  and  O3_19 
REMARK    8  A    between atoms: C16_20  and  O4_21 
REMARK    9  A    between atoms: C29_38  and  O7_39 
ROOT
ATOM      1  N1  NON d   1     -38.331  18.917  -2.866  0.00  0.00    -0.287 N 
ATOM      2  C8  NON d   1     -39.535  18.192  -2.763  0.00  0.00     0.233 C 
ATOM      3  O2  NON d   1     -39.854  17.439  -1.865  0.00  0.00    -0.272 OA
ATOM      4  C9  NON d   1     -40.323  18.510  -4.071  0.00  0.00     0.128 C 
ATOM      5  C10 NON d   1     -41.776  18.643  -4.452  0.00  0.00     0.240 C 
ATOM      6  N2  NON d   1     -42.047  20.108  -4.738  0.00  0.00     0.114 N 
ATOM      7  C18 NON d   1     -40.731  20.859  -5.017  0.00  0.00     0.279 C 
ATOM      8  C19 NON d   1     -40.874  20.488  -6.711  0.00  0.00     0.267 C 
ATOM      9  O5  NON d   1     -41.738  19.792  -7.239  0.00  0.00    -0.270 OA
ATOM     10  N3  NON d   1     -39.995  21.214  -7.450  0.00  0.00    -0.324 N 
ATOM     11  C20 NON d   1     -39.148  21.895  -6.635  0.00  0.00     0.044 C 
ATOM     12  C21 NON d   1     -38.203  22.805  -7.092  0.00  0.00     0.030 C 
ATOM     13  C22 NON d   1     -37.434  23.472  -6.150  0.00  0.00     0.002 C 
ATOM     14  C23 NON d   1     -37.680  23.265  -4.792  0.00  0.00     0.001 C 
ATOM     15  C24 NON d   1     -38.710  22.409  -4.371  0.00  0.00     0.012 C 
ATOM     16  C25 NON d   1     -39.415  21.608  -5.294  0.00  0.00     0.017 C 
ATOM     17  C26 NON d   1     -39.902  19.932  -4.099  0.00  0.00     0.147 C 
ATOM     18  C27 NON d   1     -38.408  19.598  -4.045  0.00  0.00     0.234 C 
ATOM     19  O6  NON d   1     -37.547  19.689  -4.894  0.00  0.00    -0.272 OA
ATOM     20  H19 NON d   1     -42.680  20.174  -5.546  0.00  0.00     0.318 HD
ATOM     21  H20 NON d   1     -40.021  21.249  -8.458  0.00  0.00     0.169 HD
ENDROOT
BRANCH   1  22
ATOM     22  C7  NON d   1     -37.125  18.809  -2.043  0.00  0.00     0.139 C 
BRANCH  22  23
ATOM     23  C6  NON d   1     -36.818  19.941  -0.993  0.00  0.00     0.059 C 
BRANCH  23  24
ATOM     24  C5  NON d   1     -37.864  20.923  -0.459  0.00  0.00    -0.054 A 
ATOM     25  C4  NON d   1     -37.862  21.456   0.828  0.00  0.00     0.010 A 
ATOM     26  C3  NON d   1     -38.898  22.321   1.241  0.00  0.00     0.040 A 
ATOM     27  C2  NON d   1     -39.946  22.678   0.384  0.00  0.00     0.101 A 
ATOM     28  C29 NON d   1     -39.913  22.245  -0.940  0.00  0.00     0.102 A 
ATOM     29  C28 NON d   1     -38.899  21.348  -1.335  0.00  0.00     0.046 A 
BRANCH  27  30
ATOM     30  O1  NON d   1     -40.928  23.463   0.926  0.00  0.00    -0.353 OA
ATOM     31  C1  NON d   1     -40.653  23.877   2.266  0.00  0.00     0.210 C 
ENDBRANCH  27  30
BRANCH  28  32
ATOM     32  O7  NON d   1     -40.838  22.555  -1.902  0.00  0.00    -0.353 OA
ATOM     33  C30 NON d   1     -40.766  23.886  -2.436  0.00  0.00     0.210 C 
ENDBRANCH  28  32
ENDBRANCH  23  24
ENDBRANCH  22  23
ENDBRANCH   1  22
BRANCH   5  34
ATOM     34  C11 NON d   1     -42.749  17.908  -3.519  0.00  0.00     0.075 C 
BRANCH  34  35
ATOM     35  C12 NON d   1     -44.102  17.547  -4.132  0.00  0.00    -0.053 A 
ATOM     36  C13 NON d   1     -44.862  16.526  -3.535  0.00  0.00     0.010 A 
ATOM     37  C14 NON d   1     -46.099  16.130  -4.065  0.00  0.00     0.040 A 
ATOM     38  C15 NON d   1     -46.580  16.753  -5.207  0.00  0.00     0.098 A 
ATOM     39  C16 NON d   1     -45.850  17.772  -5.803  0.00  0.00     0.099 A 
ATOM     40  C17 NON d   1     -44.639  18.184  -5.266  0.00  0.00     0.046 A 
BRANCH  38  41
ATOM     41  O3  NON d   1     -47.765  16.399  -5.786  0.00  0.00    -0.358 OA
ATOM     42  H16 NON d   1     -47.780  16.746  -6.688  0.00  0.00     0.217 HD
ENDBRANCH  38  41
BRANCH  39  43
ATOM     43  O4  NON d   1     -46.315  18.380  -6.935  0.00  0.00    -0.358 OA
ATOM     44  H17 NON d   1     -47.287  18.361  -6.839  0.00  0.00     0.217 HD
ENDBRANCH  39  43
ENDBRANCH  34  35
ENDBRANCH   5  34
TORSDOF 9
ENDMDL
MODEL 8
REMARK VINA RESULT:   -12.347      2.701      6.834
REMARK INTER + INTRA:         -17.889
REMARK INTER:                 -15.032
REMARK INTRA:                  -2.857
REMARK CONF_INDEPENDENT:        2.685
REMARK UNBOUND:                -2.857
REMARK  9 active torsions:
REMARK  status: ('A' for Active; 'I' for Inactive)
REMARK    1  A    between atoms: O1_2  and  C2_3 
REMARK    2  A    between atoms: C5_6  and  C6_7 
REMARK    3  A    between atoms: C6_7  and  C7_8 
REMARK    4  A    between atoms: C7_8  and  N1_9 
REMARK    5  A    between atoms: C10_13  and  C11_14 
REMARK    6  A    between atoms: C11_14  and  C12_15 
REMARK    7  A    between atoms: C15_18  and  O3_19 
REMARK    8  A    between atoms: C16_20  and  O4_21 
REMARK    9  A    between atoms: C29_38  and  O7_39 
ROOT
ATOM      1  N1  NON d   1     -39.688  20.071  -7.516  0.00  0.00    -0.287 N 
ATOM      2  C8  NON d   1     -40.521  19.232  -6.749  0.00  0.00     0.233 C 
ATOM      3  O2  NON d   1     -40.683  18.038  -6.898  0.00  0.00    -0.272 OA
ATOM      4  C9  NON d   1     -41.232  20.174  -5.729  0.00  0.00     0.128 C 
ATOM      5  C10 NON d   1     -41.741  20.049  -4.315  0.00  0.00     0.240 C 
ATOM      6  N2  NON d   1     -40.840  20.883  -3.423  0.00  0.00     0.114 N 
ATOM      7  C18 NON d   1     -40.056  21.915  -4.257  0.00  0.00     0.279 C 
ATOM      8  C19 NON d   1     -41.345  23.065  -4.051  0.00  0.00     0.267 C 
ATOM      9  O5  NON d   1     -42.421  22.868  -3.491  0.00  0.00    -0.270 OA
ATOM     10  N3  NON d   1     -40.962  24.310  -4.439  0.00  0.00    -0.324 N 
ATOM     11  C20 NON d   1     -39.739  24.261  -5.028  0.00  0.00     0.044 C 
ATOM     12  C21 NON d   1     -39.034  25.385  -5.437  0.00  0.00     0.030 C 
ATOM     13  C22 NON d   1     -37.772  25.200  -5.981  0.00  0.00     0.002 C 
ATOM     14  C23 NON d   1     -37.228  23.916  -6.031  0.00  0.00     0.001 C 
ATOM     15  C24 NON d   1     -37.934  22.816  -5.519  0.00  0.00     0.012 C 
ATOM     16  C25 NON d   1     -39.273  22.945  -5.091  0.00  0.00     0.017 C 
ATOM     17  C26 NON d   1     -40.029  21.015  -5.513  0.00  0.00     0.147 C 
ATOM     18  C27 NON d   1     -39.851  21.324  -7.002  0.00  0.00     0.234 C 
ATOM     19  O6  NON d   1     -40.027  22.351  -7.623  0.00  0.00    -0.272 OA
ATOM     20  H19 NON d   1     -41.420  21.354  -2.717  0.00  0.00     0.318 HD
ATOM     21  H20 NON d   1     -41.514  25.136  -4.263  0.00  0.00     0.169 HD
ENDROOT
BRANCH   1  22
ATOM     22  C7  NON d   1     -38.976  19.765  -8.758  0.00  0.00     0.139 C 
BRANCH  22  23
ATOM     23  C6  NON d   1     -38.140  20.902  -9.455  0.00  0.00     0.059 C 
BRANCH  23  24
ATOM     24  C5  NON d   1     -38.739  21.955 -10.391  0.00  0.00    -0.054 A 
ATOM     25  C4  NON d   1     -39.055  21.733 -11.730  0.00  0.00     0.010 A 
ATOM     26  C3  NON d   1     -39.563  22.782 -12.525  0.00  0.00     0.040 A 
ATOM     27  C2  NON d   1     -39.774  24.065 -12.004  0.00  0.00     0.101 A 
ATOM     28  C29 NON d   1     -39.568  24.284 -10.643  0.00  0.00     0.102 A 
ATOM     29  C28 NON d   1     -39.021  23.244  -9.864  0.00  0.00     0.046 A 
BRANCH  27  30
ATOM     30  O1  NON d   1     -40.200  25.014 -12.894  0.00  0.00    -0.353 OA
ATOM     31  C1  NON d   1     -41.622  25.094 -13.007  0.00  0.00     0.210 C 
ENDBRANCH  27  30
BRANCH  28  32
ATOM     32  O7  NON d   1     -39.780  25.468  -9.987  0.00  0.00    -0.353 OA
ATOM     33  C30 NON d   1     -40.130  25.361  -8.598  0.00  0.00     0.210 C 
ENDBRANCH  28  32
ENDBRANCH  23  24
ENDBRANCH  22  23
ENDBRANCH   1  22
BRANCH   5  34
ATOM     34  C11 NON d   1     -42.048  18.612  -3.873  0.00  0.00     0.075 C 
BRANCH  34  35
ATOM     35  C12 NON d   1     -43.411  18.068  -4.301  0.00  0.00    -0.053 A 
ATOM     36  C13 NON d   1     -44.010  17.063  -3.523  0.00  0.00     0.010 A 
ATOM     37  C14 NON d   1     -45.248  16.505  -3.876  0.00  0.00     0.040 A 
ATOM     38  C15 NON d   1     -45.890  16.948  -5.023  0.00  0.00     0.098 A 
ATOM     39  C16 NON d   1     -45.321  17.949  -5.797  0.00  0.00     0.099 A 
ATOM     40  C17 NON d   1     -44.110  18.522  -5.435  0.00  0.00     0.046 A 
BRANCH  38  41
ATOM     41  O3  NON d   1     -47.085  16.430  -5.435  0.00  0.00    -0.358 OA
ATOM     42  H16 NON d   1     -47.360  16.895  -6.236  0.00  0.00     0.217 HD
ENDBRANCH  38  41
BRANCH  39  43
ATOM     43  O4  NON d   1     -45.945  18.379  -6.933  0.00  0.00    -0.358 OA
ATOM     44  H17 NON d   1     -46.387  17.582  -7.285  0.00  0.00     0.217 HD
ENDBRANCH  39  43
ENDBRANCH  34  35
ENDBRANCH   5  34
TORSDOF 9
ENDMDL
MODEL 9
REMARK VINA RESULT:   -12.240      2.422      3.254
REMARK INTER + INTRA:         -18.234
REMARK INTER:                 -14.924
REMARK INTRA:                  -3.310
REMARK CONF_INDEPENDENT:        2.685
REMARK UNBOUND:                -3.310
REMARK  9 active torsions:
REMARK  status: ('A' for Active; 'I' for Inactive)
REMARK    1  A    between atoms: O1_2  and  C2_3 
REMARK    2  A    between atoms: C5_6  and  C6_7 
REMARK    3  A    between atoms: C6_7  and  C7_8 
REMARK    4  A    between atoms: C7_8  and  N1_9 
REMARK    5  A    between atoms: C10_13  and  C11_14 
REMARK    6  A    between atoms: C11_14  and  C12_15 
REMARK    7  A    between atoms: C15_18  and  O3_19 
REMARK    8  A    between atoms: C16_20  and  O4_21 
REMARK    9  A    between atoms: C29_38  and  O7_39 
ROOT
ATOM      1  N1  NON d   1     -39.383  20.516  -2.285  0.00  0.00    -0.287 N 
ATOM      2  C8  NON d   1     -40.387  19.554  -2.060  0.00  0.00     0.233 C 
ATOM      3  O2  NON d   1     -40.939  19.315  -1.004  0.00  0.00    -0.272 OA
ATOM      4  C9  NON d   1     -40.582  18.829  -3.427  0.00  0.00     0.128 C 
ATOM      5  C10 NON d   1     -41.735  18.185  -4.155  0.00  0.00     0.240 C 
ATOM      6  N2  NON d   1     -42.081  19.064  -5.343  0.00  0.00     0.114 N 
ATOM      7  C18 NON d   1     -40.904  19.998  -5.687  0.00  0.00     0.279 C 
ATOM      8  C19 NON d   1     -40.253  18.789  -6.755  0.00  0.00     0.267 C 
ATOM      9  O5  NON d   1     -40.690  17.654  -6.933  0.00  0.00    -0.270 OA
ATOM     10  N3  NON d   1     -39.265  19.301  -7.536  0.00  0.00    -0.324 N 
ATOM     11  C20 NON d   1     -38.963  20.564  -7.140  0.00  0.00     0.044 C 
ATOM     12  C21 NON d   1     -38.067  21.388  -7.808  0.00  0.00     0.030 C 
ATOM     13  C22 NON d   1     -37.885  22.677  -7.328  0.00  0.00     0.002 C 
ATOM     14  C23 NON d   1     -38.651  23.122  -6.249  0.00  0.00     0.001 C 
ATOM     15  C24 NON d   1     -39.617  22.289  -5.662  0.00  0.00     0.012 C 
ATOM     16  C25 NON d   1     -39.728  20.931  -6.030  0.00  0.00     0.017 C 
ATOM     17  C26 NON d   1     -40.414  20.069  -4.223  0.00  0.00     0.147 C 
ATOM     18  C27 NON d   1     -39.054  20.405  -3.604  0.00  0.00     0.234 C 
ATOM     19  O6  NON d   1     -37.938  20.365  -4.078  0.00  0.00    -0.272 OA
ATOM     20  H19 NON d   1     -42.310  18.460  -6.143  0.00  0.00     0.318 HD
ATOM     21  H20 NON d   1     -38.865  18.800  -8.315  0.00  0.00     0.169 HD
ENDROOT
BRANCH   1  22
ATOM     22  C7  NON d   1     -38.642  21.312  -1.305  0.00  0.00     0.139 C 
BRANCH  22  23
ATOM     23  C6  NON d   1     -39.086  22.799  -1.042  0.00  0.00     0.059 C 
BRANCH  23  24
ATOM     24  C5  NON d   1     -39.676  23.720  -2.113  0.00  0.00    -0.054 A 
ATOM     25  C4  NON d   1     -41.002  23.690  -2.538  0.00  0.00     0.010 A 
ATOM     26  C3  NON d   1     -41.440  24.553  -3.565  0.00  0.00     0.040 A 
ATOM     27  C2  NON d   1     -40.574  25.464  -4.181  0.00  0.00     0.101 A 
ATOM     28  C29 NON d   1     -39.272  25.589  -3.700  0.00  0.00     0.102 A 
ATOM     29  C28 NON d   1     -38.828  24.696  -2.704  0.00  0.00     0.046 A 
BRANCH  27  30
ATOM     30  O1  NON d   1     -41.100  26.193  -5.214  0.00  0.00    -0.353 OA
ATOM     31  C1  NON d   1     -42.138  27.088  -4.811  0.00  0.00     0.210 C 
ENDBRANCH  27  30
BRANCH  28  32
ATOM     32  O7  NON d   1     -38.332  26.469  -4.168  0.00  0.00    -0.353 OA
ATOM     33  C30 NON d   1     -37.899  26.262  -5.523  0.00  0.00     0.210 C 
ENDBRANCH  28  32
ENDBRANCH  23  24
ENDBRANCH  22  23
ENDBRANCH   1  22
BRANCH   5  34
ATOM     34  C11 NON d   1     -42.887  17.730  -3.248  0.00  0.00     0.075 C 
BRANCH  34  35
ATOM     35  C12 NON d   1     -44.212  17.454  -3.957  0.00  0.00    -0.053 A 
ATOM     36  C13 NON d   1     -45.088  16.505  -3.402  0.00  0.00     0.010 A 
ATOM     37  C14 NON d   1     -46.309  16.188  -4.018  0.00  0.00     0.040 A 
ATOM     38  C15 NON d   1     -46.654  16.817  -5.204  0.00  0.00     0.098 A 
ATOM     39  C16 NON d   1     -45.809  17.767  -5.761  0.00  0.00     0.099 A 
ATOM     40  C17 NON d   1     -44.614  18.103  -5.139  0.00  0.00     0.046 A 
BRANCH  38  41
ATOM     41  O3  NON d   1     -47.816  16.537  -5.866  0.00  0.00    -0.358 OA
ATOM     42  H16 NON d   1     -47.883  17.127  -6.629  0.00  0.00     0.217 HD
ENDBRANCH  38  41
BRANCH  39  43
ATOM     43  O4  NON d   1     -46.141  18.380  -6.935  0.00  0.00    -0.358 OA
ATOM     44  H17 NON d   1     -47.118  18.371  -6.946  0.00  0.00     0.217 HD
ENDBRANCH  39  43
ENDBRANCH  34  35
ENDBRANCH   5  34
TORSDOF 9
ENDMDL
