MODEL 1
REMARK VINA RESULT:   -35.054      0.000      0.000
REMARK INTER + INTRA:         -38.472
REMARK INTER:                 -37.739
REMARK INTRA:                  -0.733
REMARK CONF_INDEPENDENT:        2.685
REMARK UNBOUND:                -0.733
REMARK  9 active torsions:
REMARK  status: ('A' for Active; 'I' for Inactive)
REMARK    1  A    between atoms: C2_2  and  C3_3 
REMARK    2  A    between atoms: C6_6  and  O1_7 
REMARK    3  A    between atoms: O1_7  and  C7_8 
REMARK    4  A    between atoms: C7_8  and  C8_9 
REMARK    5  A    between atoms: C8_9  and  C9_10 
REMARK    6  A    between atoms: C9_10  and  O2_11 
REMARK    7  A    between atoms: O2_11  and  C10_12 
REMARK    8  A    between atoms: C14_16  and  C15_17 
REMARK    9  A    between atoms: C15_17  and  C16_18 
ROOT
ATOM      1  C10 NON d   1     -41.192  17.973  -4.003  0.00  0.00     0.069 A 
ATOM      2  C11 NON d   1     -41.260  18.837  -5.099  0.00  0.00     0.037 A 
ATOM      3  C12 NON d   1     -42.499  19.187  -5.635  0.00  0.00     0.004 A 
ATOM      4  C13 NON d   1     -43.672  18.664  -5.087  0.00  0.00     0.011 A 
ATOM      5  C14 NON d   1     -43.629  17.780  -3.997  0.00  0.00    -0.032 A 
ATOM      6  C19 NON d   1     -42.375  17.432  -3.479  0.00  0.00     0.048 A 
ENDROOT
BRANCH   1   7
ATOM      7  O2  NON d   1     -40.039  17.561  -3.384  0.00  0.00    -0.351 OA
BRANCH   7   8
ATOM      8  C9  NON d   1     -39.404  18.498  -2.521  0.00  0.00     0.178 C 
BRANCH   8   9
ATOM      9  C8  NON d   1     -40.421  19.493  -1.954  0.00  0.00     0.053 C 
BRANCH   9  10
ATOM     10  C7  NON d   1     -39.876  20.905  -1.713  0.00  0.00     0.178 C 
BRANCH  10  11
ATOM     11  O1  NON d   1     -39.873  21.216  -0.320  0.00  0.00    -0.351 OA
BRANCH  11  12
ATOM     12  C6  NON d   1     -40.317  22.460   0.050  0.00  0.00     0.068 A 
ATOM     13  C5  NON d   1     -40.499  23.550  -0.796  0.00  0.00     0.037 A 
ATOM     14  C4  NON d   1     -40.958  24.773  -0.282  0.00  0.00     0.010 A 
ATOM     15  C3  NON d   1     -41.236  24.940   1.088  0.00  0.00    -0.058 A 
ATOM     16  C21 NON d   1     -41.059  23.838   1.928  0.00  0.00     0.010 A 
ATOM     17  C20 NON d   1     -40.601  22.616   1.412  0.00  0.00     0.037 A 
BRANCH  15  18
ATOM     18  C2  NON d   1     -41.697  26.305   1.553  0.00  0.00     0.034 C 
ATOM     19  C1  NON d   1     -41.408  26.736   3.002  0.00  0.00     0.010 C 
ENDBRANCH  15  18
ENDBRANCH  11  12
ENDBRANCH  10  11
ENDBRANCH   9  10
ENDBRANCH   8   9
ENDBRANCH   7   8
ENDBRANCH   1   7
BRANCH   5  20
ATOM     20  C15 NON d   1     -44.900  17.164  -3.567  0.00  0.00     0.036 C 
BRANCH  20  21
ATOM     21  C16 NON d   1     -45.962  16.703  -4.247  0.00  0.00     0.078 C 
ATOM     22  S1  NON d   1     -46.933  15.432  -3.607  0.00  0.00    -0.053 SA
ATOM     23  C17 NON d   1     -48.091  15.608  -4.901  0.00  0.00     0.169 C 
ATOM     24  S2  NON d   1     -49.513  14.724  -4.955  0.00  0.00    -0.050 SA
ATOM     25  N1  NON d   1     -47.719  16.505  -5.810  0.00  0.00    -0.190 NA
ATOM     26  C18 NON d   1     -46.542  17.093  -5.565  0.00  0.00     0.285 C 
ATOM     27  O3  NON d   1     -45.964  17.850  -6.336  0.00  0.00    -0.265 OA
ENDBRANCH  20  21
ENDBRANCH   5  20
TORSDOF 9
ENDMDL
MODEL 2
REMARK VINA RESULT:   -34.860      5.017      7.792
REMARK INTER + INTRA:         -38.337
REMARK INTER:                 -37.545
REMARK INTRA:                  -0.792
REMARK CONF_INDEPENDENT:        2.685
REMARK UNBOUND:                -0.792
REMARK  9 active torsions:
REMARK  status: ('A' for Active; 'I' for Inactive)
REMARK    1  A    between atoms: C2_2  and  C3_3 
REMARK    2  A    between atoms: C6_6  and  O1_7 
REMARK    3  A    between atoms: O1_7  and  C7_8 
REMARK    4  A    between atoms: C7_8  and  C8_9 
REMARK    5  A    between atoms: C8_9  and  C9_10 
REMARK    6  A    between atoms: C9_10  and  O2_11 
REMARK    7  A    between atoms: O2_11  and  C10_12 
REMARK    8  A    between atoms: C14_16  and  C15_17 
REMARK    9  A    between atoms: C15_17  and  C16_18 
ROOT
ATOM      1  C10 NON d   1     -42.002  19.126  -5.530  0.00  0.00     0.069 A 
ATOM      2  C11 NON d   1     -40.958  18.776  -4.669  0.00  0.00     0.037 A 
ATOM      3  C12 NON d   1     -41.216  17.996  -3.542  0.00  0.00     0.004 A 
ATOM      4  C13 NON d   1     -42.517  17.576  -3.264  0.00  0.00     0.011 A 
ATOM      5  C14 NON d   1     -43.586  17.928  -4.104  0.00  0.00    -0.032 A 
ATOM      6  C19 NON d   1     -43.309  18.720  -5.225  0.00  0.00     0.048 A 
ENDROOT
BRANCH   1   7
ATOM      7  O2  NON d   1     -41.875  19.879  -6.669  0.00  0.00    -0.351 OA
BRANCH   7   8
ATOM      8  C9  NON d   1     -40.564  20.320  -7.005  0.00  0.00     0.178 C 
BRANCH   8   9
ATOM      9  C8  NON d   1     -40.333  20.246  -8.516  0.00  0.00     0.053 C 
BRANCH   9  10
ATOM     10  C7  NON d   1     -38.878  20.436  -8.957  0.00  0.00     0.178 C 
BRANCH  10  11
ATOM     11  O1  NON d   1     -38.571  21.822  -9.108  0.00  0.00    -0.351 OA
BRANCH  11  12
ATOM     12  C6  NON d   1     -39.022  22.449 -10.241  0.00  0.00     0.068 A 
ATOM     13  C5  NON d   1     -39.241  21.850 -11.478  0.00  0.00     0.037 A 
ATOM     14  C4  NON d   1     -39.703  22.614 -12.560  0.00  0.00     0.010 A 
ATOM     15  C3  NON d   1     -39.947  23.995 -12.438  0.00  0.00    -0.058 A 
ATOM     16  C21 NON d   1     -39.732  24.587 -11.191  0.00  0.00     0.010 A 
ATOM     17  C20 NON d   1     -39.272  23.820 -10.109  0.00  0.00     0.037 A 
BRANCH  15  18
ATOM     18  C2  NON d   1     -40.413  24.741 -13.670  0.00  0.00     0.034 C 
ATOM     19  C1  NON d   1     -41.802  25.406 -13.658  0.00  0.00     0.010 C 
ENDBRANCH  15  18
ENDBRANCH  11  12
ENDBRANCH  10  11
ENDBRANCH   9  10
ENDBRANCH   8   9
ENDBRANCH   7   8
ENDBRANCH   1   7
BRANCH   5  20
ATOM     20  C15 NON d   1     -44.947  17.563  -3.667  0.00  0.00     0.036 C 
BRANCH  20  21
ATOM     21  C16 NON d   1     -45.973  16.965  -4.293  0.00  0.00     0.078 C 
ATOM     22  S1  NON d   1     -46.830  15.671  -3.544  0.00  0.00    -0.053 SA
ATOM     23  C17 NON d   1     -48.010  15.652  -4.830  0.00  0.00     0.169 C 
ATOM     24  S2  NON d   1     -49.354  14.653  -4.796  0.00  0.00    -0.050 SA
ATOM     25  N1  NON d   1     -47.722  16.505  -5.810  0.00  0.00    -0.190 NA
ATOM     26  C18 NON d   1     -46.595  17.204  -5.628  0.00  0.00     0.285 C 
ATOM     27  O3  NON d   1     -46.090  17.945  -6.463  0.00  0.00    -0.265 OA
ENDBRANCH  20  21
ENDBRANCH   5  20
TORSDOF 9
ENDMDL
MODEL 3
REMARK VINA RESULT:   -34.765      1.868      3.115
REMARK INTER + INTRA:         -38.735
REMARK INTER:                 -37.450
REMARK INTRA:                  -1.285
REMARK CONF_INDEPENDENT:        2.685
REMARK UNBOUND:                -1.285
REMARK  9 active torsions:
REMARK  status: ('A' for Active; 'I' for Inactive)
REMARK    1  A    between atoms: C2_2  and  C3_3 
REMARK    2  A    between atoms: C6_6  and  O1_7 
REMARK    3  A    between atoms: O1_7  and  C7_8 
REMARK    4  A    between atoms: C7_8  and  C8_9 
REMARK    5  A    between atoms: C8_9  and  C9_10 
REMARK    6  A    between atoms: C9_10  and  O2_11 
REMARK    7  A    between atoms: O2_11  and  C10_12 
REMARK    8  A    between atoms: C14_16  and  C15_17 
REMARK    9  A    between atoms: C15_17  and  C16_18 
ROOT
ATOM      1  C10 NON d   1     -41.877  19.077  -5.614  0.00  0.00     0.069 A 
ATOM      2  C11 NON d   1     -40.825  18.642  -4.802  0.00  0.00     0.037 A 
ATOM      3  C12 NON d   1     -41.086  17.828  -3.700  0.00  0.00     0.004 A 
ATOM      4  C13 NON d   1     -42.397  17.458  -3.398  0.00  0.00     0.011 A 
ATOM      5  C14 NON d   1     -43.473  17.895  -4.188  0.00  0.00    -0.032 A 
ATOM      6  C19 NON d   1     -43.192  18.721  -5.284  0.00  0.00     0.048 A 
ENDROOT
BRANCH   1   7
ATOM      7  O2  NON d   1     -41.749  19.872  -6.724  0.00  0.00    -0.351 OA
BRANCH   7   8
ATOM      8  C9  NON d   1     -40.436  20.036  -7.248  0.00  0.00     0.178 C 
BRANCH   8   9
ATOM      9  C8  NON d   1     -40.046  21.517  -7.291  0.00  0.00     0.053 C 
BRANCH   9  10
ATOM     10  C7  NON d   1     -39.821  22.165  -5.921  0.00  0.00     0.178 C 
BRANCH  10  11
ATOM     11  O1  NON d   1     -40.941  21.942  -5.064  0.00  0.00    -0.351 OA
BRANCH  11  12
ATOM     12  C6  NON d   1     -40.743  22.094  -3.715  0.00  0.00     0.068 A 
ATOM     13  C5  NON d   1     -41.007  23.242  -2.972  0.00  0.00     0.037 A 
ATOM     14  C4  NON d   1     -40.753  23.262  -1.593  0.00  0.00     0.010 A 
ATOM     15  C3  NON d   1     -40.222  22.144  -0.922  0.00  0.00    -0.058 A 
ATOM     16  C21 NON d   1     -39.968  20.994  -1.675  0.00  0.00     0.010 A 
ATOM     17  C20 NON d   1     -40.224  20.975  -3.054  0.00  0.00     0.037 A 
BRANCH  15  18
ATOM     18  C2  NON d   1     -39.953  22.272   0.562  0.00  0.00     0.034 C 
ATOM     19  C1  NON d   1     -40.581  23.445   1.336  0.00  0.00     0.010 C 
ENDBRANCH  15  18
ENDBRANCH  11  12
ENDBRANCH  10  11
ENDBRANCH   9  10
ENDBRANCH   8   9
ENDBRANCH   7   8
ENDBRANCH   1   7
BRANCH   5  20
ATOM     20  C15 NON d   1     -44.836  17.576  -3.722  0.00  0.00     0.036 C 
BRANCH  20  21
ATOM     21  C16 NON d   1     -45.885  16.984  -4.317  0.00  0.00     0.078 C 
ATOM     22  S1  NON d   1     -46.791  15.769  -3.499  0.00  0.00    -0.053 SA
ATOM     23  C17 NON d   1     -47.970  15.723  -4.785  0.00  0.00     0.169 C 
ATOM     24  S2  NON d   1     -49.352  14.780  -4.698  0.00  0.00    -0.050 SA
ATOM     25  N1  NON d   1     -47.649  16.508  -5.810  0.00  0.00    -0.190 NA
ATOM     26  C18 NON d   1     -46.496  17.172  -5.665  0.00  0.00     0.285 C 
ATOM     27  O3  NON d   1     -45.962  17.845  -6.538  0.00  0.00    -0.265 OA
ENDBRANCH  20  21
ENDBRANCH   5  20
TORSDOF 9
ENDMDL
MODEL 4
REMARK VINA RESULT:   -34.587      2.118      3.322
REMARK INTER + INTRA:         -38.627
REMARK INTER:                 -37.272
REMARK INTRA:                  -1.356
REMARK CONF_INDEPENDENT:        2.685
REMARK UNBOUND:                -1.356
REMARK  9 active torsions:
REMARK  status: ('A' for Active; 'I' for Inactive)
REMARK    1  A    between atoms: C2_2  and  C3_3 
REMARK    2  A    between atoms: C6_6  and  O1_7 
REMARK    3  A    between atoms: O1_7  and  C7_8 
REMARK    4  A    between atoms: C7_8  and  C8_9 
REMARK    5  A    between atoms: C8_9  and  C9_10 
REMARK    6  A    between atoms: C9_10  and  O2_11 
REMARK    7  A    between atoms: O2_11  and  C10_12 
REMARK    8  A    between atoms: C14_16  and  C15_17 
REMARK    9  A    between atoms: C15_17  and  C16_18 
ROOT
ATOM      1  C10 NON d   1     -41.711  18.909  -5.395  0.00  0.00     0.069 A 
ATOM      2  C11 NON d   1     -40.742  18.400  -4.526  0.00  0.00     0.037 A 
ATOM      3  C12 NON d   1     -41.123  17.606  -3.444  0.00  0.00     0.004 A 
ATOM      4  C13 NON d   1     -42.473  17.332  -3.219  0.00  0.00     0.011 A 
ATOM      5  C14 NON d   1     -43.467  17.846  -4.067  0.00  0.00    -0.032 A 
ATOM      6  C19 NON d   1     -43.066  18.649  -5.142  0.00  0.00     0.048 A 
ENDROOT
BRANCH   1   7
ATOM      7  O2  NON d   1     -41.463  19.692  -6.493  0.00  0.00    -0.351 OA
BRANCH   7   8
ATOM      8  C9  NON d   1     -40.140  19.663  -7.016  0.00  0.00     0.178 C 
BRANCH   8   9
ATOM      9  C8  NON d   1     -39.755  21.023  -7.605  0.00  0.00     0.053 C 
BRANCH   9  10
ATOM     10  C7  NON d   1     -39.327  22.074  -6.576  0.00  0.00     0.178 C 
BRANCH  10  11
ATOM     11  O1  NON d   1     -40.464  22.649  -5.933  0.00  0.00    -0.351 OA
BRANCH  11  12
ATOM     12  C6  NON d   1     -40.478  22.656  -4.562  0.00  0.00     0.068 A 
ATOM     13  C5  NON d   1     -40.170  21.580  -3.733  0.00  0.00     0.037 A 
ATOM     14  C4  NON d   1     -40.229  21.725  -2.339  0.00  0.00     0.010 A 
ATOM     15  C3  NON d   1     -40.606  22.941  -1.737  0.00  0.00    -0.058 A 
ATOM     16  C21 NON d   1     -40.905  24.017  -2.576  0.00  0.00     0.010 A 
ATOM     17  C20 NON d   1     -40.844  23.871  -3.971  0.00  0.00     0.037 A 
BRANCH  15  18
ATOM     18  C2  NON d   1     -40.671  22.991  -0.226  0.00  0.00     0.034 C 
ATOM     19  C1  NON d   1     -41.615  24.003   0.448  0.00  0.00     0.010 C 
ENDBRANCH  15  18
ENDBRANCH  11  12
ENDBRANCH  10  11
ENDBRANCH   9  10
ENDBRANCH   8   9
ENDBRANCH   7   8
ENDBRANCH   1   7
BRANCH   5  20
ATOM     20  C15 NON d   1     -44.875  17.626  -3.681  0.00  0.00     0.036 C 
BRANCH  20  21
ATOM     21  C16 NON d   1     -45.900  17.012  -4.293  0.00  0.00     0.078 C 
ATOM     22  S1  NON d   1     -46.780  15.762  -3.499  0.00  0.00    -0.053 SA
ATOM     23  C17 NON d   1     -47.945  15.699  -4.798  0.00  0.00     0.169 C 
ATOM     24  S2  NON d   1     -49.300  14.717  -4.737  0.00  0.00    -0.050 SA
ATOM     25  N1  NON d   1     -47.635  16.505  -5.810  0.00  0.00    -0.190 NA
ATOM     26  C18 NON d   1     -46.503  17.199  -5.645  0.00  0.00     0.285 C 
ATOM     27  O3  NON d   1     -45.979  17.897  -6.505  0.00  0.00    -0.265 OA
ENDBRANCH  20  21
ENDBRANCH   5  20
TORSDOF 9
ENDMDL
MODEL 5
REMARK VINA RESULT:   -34.355      4.858      6.584
REMARK INTER + INTRA:         -37.949
REMARK INTER:                 -37.040
REMARK INTRA:                  -0.909
REMARK CONF_INDEPENDENT:        2.685
REMARK UNBOUND:                -0.909
REMARK  9 active torsions:
REMARK  status: ('A' for Active; 'I' for Inactive)
REMARK    1  A    between atoms: C2_2  and  C3_3 
REMARK    2  A    between atoms: C6_6  and  O1_7 
REMARK    3  A    between atoms: O1_7  and  C7_8 
REMARK    4  A    between atoms: C7_8  and  C8_9 
REMARK    5  A    between atoms: C8_9  and  C9_10 
REMARK    6  A    between atoms: C9_10  and  O2_11 
REMARK    7  A    between atoms: O2_11  and  C10_12 
REMARK    8  A    between atoms: C14_16  and  C15_17 
REMARK    9  A    between atoms: C15_17  and  C16_18 
ROOT
ATOM      1  C10 NON d   1     -41.821  18.918  -5.392  0.00  0.00     0.069 A 
ATOM      2  C11 NON d   1     -40.844  18.425  -4.523  0.00  0.00     0.037 A 
ATOM      3  C12 NON d   1     -41.214  17.633  -3.436  0.00  0.00     0.004 A 
ATOM      4  C13 NON d   1     -42.561  17.344  -3.207  0.00  0.00     0.011 A 
ATOM      5  C14 NON d   1     -43.562  17.842  -4.056  0.00  0.00    -0.032 A 
ATOM      6  C19 NON d   1     -43.172  18.644  -5.136  0.00  0.00     0.048 A 
ENDROOT
BRANCH   1   7
ATOM      7  O2  NON d   1     -41.583  19.699  -6.495  0.00  0.00    -0.351 OA
BRANCH   7   8
ATOM      8  C9  NON d   1     -40.246  20.143  -6.691  0.00  0.00     0.178 C 
BRANCH   8   9
ATOM      9  C8  NON d   1     -39.423  19.088  -7.436  0.00  0.00     0.053 C 
BRANCH   9  10
ATOM     10  C7  NON d   1     -38.111  19.600  -8.038  0.00  0.00     0.178 C 
BRANCH  10  11
ATOM     11  O1  NON d   1     -38.302  20.023  -9.388  0.00  0.00    -0.351 OA
BRANCH  11  12
ATOM     12  C6  NON d   1     -38.622  21.340  -9.598  0.00  0.00     0.068 A 
ATOM     13  C5  NON d   1     -39.273  21.857 -10.715  0.00  0.00     0.037 A 
ATOM     14  C4  NON d   1     -39.536  23.233 -10.803  0.00  0.00     0.010 A 
ATOM     15  C3  NON d   1     -39.148  24.126  -9.787  0.00  0.00    -0.058 A 
ATOM     16  C21 NON d   1     -38.502  23.597  -8.666  0.00  0.00     0.010 A 
ATOM     17  C20 NON d   1     -38.242  22.221  -8.579  0.00  0.00     0.037 A 
BRANCH  15  18
ATOM     18  C2  NON d   1     -39.447  25.596  -9.986  0.00  0.00     0.034 C 
ATOM     19  C1  NON d   1     -40.348  26.319  -8.969  0.00  0.00     0.010 C 
ENDBRANCH  15  18
ENDBRANCH  11  12
ENDBRANCH  10  11
ENDBRANCH   9  10
ENDBRANCH   8   9
ENDBRANCH   7   8
ENDBRANCH   1   7
BRANCH   5  20
ATOM     20  C15 NON d   1     -44.966  17.607  -3.666  0.00  0.00     0.036 C 
BRANCH  20  21
ATOM     21  C16 NON d   1     -45.992  17.001  -4.285  0.00  0.00     0.078 C 
ATOM     22  S1  NON d   1     -46.881  15.753  -3.497  0.00  0.00    -0.053 SA
ATOM     23  C17 NON d   1     -48.041  15.699  -4.801  0.00  0.00     0.169 C 
ATOM     24  S2  NON d   1     -49.401  14.723  -4.748  0.00  0.00    -0.050 SA
ATOM     25  N1  NON d   1     -47.723  16.505  -5.810  0.00  0.00    -0.190 NA
ATOM     26  C18 NON d   1     -46.588  17.193  -5.639  0.00  0.00     0.285 C 
ATOM     27  O3  NON d   1     -46.057  17.891  -6.495  0.00  0.00    -0.265 OA
ENDBRANCH  20  21
ENDBRANCH   5  20
TORSDOF 9
ENDMDL
MODEL 6
REMARK VINA RESULT:   -34.332      2.772      5.105
REMARK INTER + INTRA:         -38.269
REMARK INTER:                 -37.017
REMARK INTRA:                  -1.253
REMARK CONF_INDEPENDENT:        2.685
REMARK UNBOUND:                -1.253
REMARK  9 active torsions:
REMARK  status: ('A' for Active; 'I' for Inactive)
REMARK    1  A    between atoms: C2_2  and  C3_3 
REMARK    2  A    between atoms: C6_6  and  O1_7 
REMARK    3  A    between atoms: O1_7  and  C7_8 
REMARK    4  A    between atoms: C7_8  and  C8_9 
REMARK    5  A    between atoms: C8_9  and  C9_10 
REMARK    6  A    between atoms: C9_10  and  O2_11 
REMARK    7  A    between atoms: O2_11  and  C10_12 
REMARK    8  A    between atoms: C14_16  and  C15_17 
REMARK    9  A    between atoms: C15_17  and  C16_18 
ROOT
ATOM      1  C10 NON d   1     -41.424  18.168  -3.167  0.00  0.00     0.069 A 
ATOM      2  C11 NON d   1     -41.026  17.951  -4.489  0.00  0.00     0.037 A 
ATOM      3  C12 NON d   1     -41.966  17.570  -5.446  0.00  0.00     0.004 A 
ATOM      4  C13 NON d   1     -43.302  17.392  -5.083  0.00  0.00     0.011 A 
ATOM      5  C14 NON d   1     -43.724  17.587  -3.758  0.00  0.00    -0.032 A 
ATOM      6  C19 NON d   1     -42.763  17.959  -2.808  0.00  0.00     0.048 A 
ENDROOT
BRANCH   1   7
ATOM      7  O2  NON d   1     -40.598  18.550  -2.140  0.00  0.00    -0.351 OA
BRANCH   7   8
ATOM      8  C9  NON d   1     -39.556  19.465  -2.461  0.00  0.00     0.178 C 
BRANCH   8   9
ATOM      9  C8  NON d   1     -39.736  20.784  -1.704  0.00  0.00     0.053 C 
BRANCH   9  10
ATOM     10  C7  NON d   1     -39.698  22.041  -2.580  0.00  0.00     0.178 C 
BRANCH  10  11
ATOM     11  O1  NON d   1     -40.808  22.069  -3.477  0.00  0.00    -0.351 OA
BRANCH  11  12
ATOM     12  C6  NON d   1     -40.575  21.715  -4.781  0.00  0.00     0.068 A 
ATOM     13  C5  NON d   1     -39.584  22.238  -5.608  0.00  0.00     0.037 A 
ATOM     14  C4  NON d   1     -39.459  21.787  -6.930  0.00  0.00     0.010 A 
ATOM     15  C3  NON d   1     -40.324  20.813  -7.464  0.00  0.00    -0.058 A 
ATOM     16  C21 NON d   1     -41.310  20.287  -6.624  0.00  0.00     0.010 A 
ATOM     17  C20 NON d   1     -41.432  20.739  -5.301  0.00  0.00     0.037 A 
BRANCH  15  18
ATOM     18  C2  NON d   1     -40.130  20.413  -8.911  0.00  0.00     0.034 C 
ATOM     19  C1  NON d   1     -39.315  21.333  -9.837  0.00  0.00     0.010 C 
ENDBRANCH  15  18
ENDBRANCH  11  12
ENDBRANCH  10  11
ENDBRANCH   9  10
ENDBRANCH   8   9
ENDBRANCH   7   8
ENDBRANCH   1   7
BRANCH   5  20
ATOM     20  C15 NON d   1     -45.121  17.244  -3.428  0.00  0.00     0.036 C 
BRANCH  20  21
ATOM     21  C16 NON d   1     -46.133  16.752  -4.161  0.00  0.00     0.078 C 
ATOM     22  S1  NON d   1     -47.096  15.451  -3.571  0.00  0.00    -0.053 SA
ATOM     23  C17 NON d   1     -48.192  15.594  -4.921  0.00  0.00     0.169 C 
ATOM     24  S2  NON d   1     -49.582  14.667  -5.048  0.00  0.00    -0.050 SA
ATOM     25  N1  NON d   1     -47.803  16.504  -5.810  0.00  0.00    -0.190 NA
ATOM     26  C18 NON d   1     -46.658  17.127  -5.506  0.00  0.00     0.285 C 
ATOM     27  O3  NON d   1     -46.065  17.903  -6.247  0.00  0.00    -0.265 OA
ENDBRANCH  20  21
ENDBRANCH   5  20
TORSDOF 9
ENDMDL
MODEL 7
REMARK VINA RESULT:   -34.183      2.360      3.925
REMARK INTER + INTRA:         -38.563
REMARK INTER:                 -36.868
REMARK INTRA:                  -1.695
REMARK CONF_INDEPENDENT:        2.685
REMARK UNBOUND:                -1.695
REMARK  9 active torsions:
REMARK  status: ('A' for Active; 'I' for Inactive)
REMARK    1  A    between atoms: C2_2  and  C3_3 
REMARK    2  A    between atoms: C6_6  and  O1_7 
REMARK    3  A    between atoms: O1_7  and  C7_8 
REMARK    4  A    between atoms: C7_8  and  C8_9 
REMARK    5  A    between atoms: C8_9  and  C9_10 
REMARK    6  A    between atoms: C9_10  and  O2_11 
REMARK    7  A    between atoms: O2_11  and  C10_12 
REMARK    8  A    between atoms: C14_16  and  C15_17 
REMARK    9  A    between atoms: C15_17  and  C16_18 
ROOT
ATOM      1  C10 NON d   1     -41.665  18.564  -5.303  0.00  0.00     0.069 A 
ATOM      2  C11 NON d   1     -40.761  18.263  -4.280  0.00  0.00     0.037 A 
ATOM      3  C12 NON d   1     -41.219  17.703  -3.087  0.00  0.00     0.004 A 
ATOM      4  C13 NON d   1     -42.581  17.455  -2.908  0.00  0.00     0.011 A 
ATOM      5  C14 NON d   1     -43.511  17.764  -3.914  0.00  0.00    -0.032 A 
ATOM      6  C19 NON d   1     -43.033  18.336  -5.100  0.00  0.00     0.048 A 
ENDROOT
BRANCH   1   7
ATOM      7  O2  NON d   1     -41.338  19.108  -6.519  0.00  0.00    -0.351 OA
BRANCH   7   8
ATOM      8  C9  NON d   1     -40.057  18.780  -7.045  0.00  0.00     0.178 C 
BRANCH   8   9
ATOM      9  C8  NON d   1     -39.604  19.824  -8.070  0.00  0.00     0.053 C 
BRANCH   9  10
ATOM     10  C7  NON d   1     -38.937  21.067  -7.472  0.00  0.00     0.178 C 
BRANCH  10  11
ATOM     11  O1  NON d   1     -39.859  21.801  -6.667  0.00  0.00    -0.351 OA
BRANCH  11  12
ATOM     12  C6  NON d   1     -39.802  21.613  -5.310  0.00  0.00     0.068 A 
ATOM     13  C5  NON d   1     -38.863  20.842  -4.629  0.00  0.00     0.037 A 
ATOM     14  C4  NON d   1     -38.923  20.732  -3.231  0.00  0.00     0.010 A 
ATOM     15  C3  NON d   1     -39.925  21.376  -2.481  0.00  0.00    -0.058 A 
ATOM     16  C21 NON d   1     -40.857  22.154  -3.173  0.00  0.00     0.010 A 
ATOM     17  C20 NON d   1     -40.795  22.265  -4.570  0.00  0.00     0.037 A 
BRANCH  15  18
ATOM     18  C2  NON d   1     -39.926  21.172  -0.981  0.00  0.00     0.034 C 
ATOM     19  C1  NON d   1     -39.737  22.392  -0.062  0.00  0.00     0.010 C 
ENDBRANCH  15  18
ENDBRANCH  11  12
ENDBRANCH  10  11
ENDBRANCH   9  10
ENDBRANCH   8   9
ENDBRANCH   7   8
ENDBRANCH   1   7
BRANCH   5  20
ATOM     20  C15 NON d   1     -44.942  17.601  -3.593  0.00  0.00     0.036 C 
BRANCH  20  21
ATOM     21  C16 NON d   1     -45.955  16.999  -4.237  0.00  0.00     0.078 C 
ATOM     22  S1  NON d   1     -46.883  15.770  -3.464  0.00  0.00    -0.053 SA
ATOM     23  C17 NON d   1     -48.001  15.714  -4.803  0.00  0.00     0.169 C 
ATOM     24  S2  NON d   1     -49.374  14.753  -4.782  0.00  0.00    -0.050 SA
ATOM     25  N1  NON d   1     -47.643  16.505  -5.810  0.00  0.00    -0.190 NA
ATOM     26  C18 NON d   1     -46.507  17.183  -5.611  0.00  0.00     0.285 C 
ATOM     27  O3  NON d   1     -45.942  17.865  -6.457  0.00  0.00    -0.265 OA
ENDBRANCH  20  21
ENDBRANCH   5  20
TORSDOF 9
ENDMDL
MODEL 8
REMARK VINA RESULT:   -34.019      3.201      4.778
REMARK INTER + INTRA:         -37.810
REMARK INTER:                 -36.704
REMARK INTRA:                  -1.106
REMARK CONF_INDEPENDENT:        2.685
REMARK UNBOUND:                -1.106
REMARK  9 active torsions:
REMARK  status: ('A' for Active; 'I' for Inactive)
REMARK    1  A    between atoms: C2_2  and  C3_3 
REMARK    2  A    between atoms: C6_6  and  O1_7 
REMARK    3  A    between atoms: O1_7  and  C7_8 
REMARK    4  A    between atoms: C7_8  and  C8_9 
REMARK    5  A    between atoms: C8_9  and  C9_10 
REMARK    6  A    between atoms: C9_10  and  O2_11 
REMARK    7  A    between atoms: O2_11  and  C10_12 
REMARK    8  A    between atoms: C14_16  and  C15_17 
REMARK    9  A    between atoms: C15_17  and  C16_18 
ROOT
ATOM      1  C10 NON d   1     -41.574  18.576  -5.343  0.00  0.00     0.069 A 
ATOM      2  C11 NON d   1     -40.679  18.194  -4.340  0.00  0.00     0.037 A 
ATOM      3  C12 NON d   1     -41.153  17.591  -3.175  0.00  0.00     0.004 A 
ATOM      4  C13 NON d   1     -42.523  17.383  -3.002  0.00  0.00     0.011 A 
ATOM      5  C14 NON d   1     -43.444  17.775  -3.988  0.00  0.00    -0.032 A 
ATOM      6  C19 NON d   1     -42.949  18.387  -5.146  0.00  0.00     0.048 A 
ENDROOT
BRANCH   1   7
ATOM      7  O2  NON d   1     -41.231  19.169  -6.532  0.00  0.00    -0.351 OA
BRANCH   7   8
ATOM      8  C9  NON d   1     -39.929  18.890  -7.036  0.00  0.00     0.178 C 
BRANCH   8   9
ATOM      9  C8  NON d   1     -39.811  19.309  -8.504  0.00  0.00     0.053 C 
BRANCH   9  10
ATOM     10  C7  NON d   1     -40.300  20.728  -8.812  0.00  0.00     0.178 C 
BRANCH  10  11
ATOM     11  O1  NON d   1     -39.294  21.691  -8.501  0.00  0.00    -0.351 OA
BRANCH  11  12
ATOM     12  C6  NON d   1     -39.488  22.471  -7.390  0.00  0.00     0.068 A 
ATOM     13  C5  NON d   1     -39.897  22.025  -6.136  0.00  0.00     0.037 A 
ATOM     14  C4  NON d   1     -40.061  22.937  -5.083  0.00  0.00     0.010 A 
ATOM     15  C3  NON d   1     -39.832  24.315  -5.255  0.00  0.00    -0.058 A 
ATOM     16  C21 NON d   1     -39.413  24.752  -6.515  0.00  0.00     0.010 A 
ATOM     17  C20 NON d   1     -39.248  23.838  -7.567  0.00  0.00     0.037 A 
BRANCH  15  18
ATOM     18  C2  NON d   1     -40.066  25.224  -4.068  0.00  0.00     0.034 C 
ATOM     19  C1  NON d   1     -41.441  25.210  -3.377  0.00  0.00     0.010 C 
ENDBRANCH  15  18
ENDBRANCH  11  12
ENDBRANCH  10  11
ENDBRANCH   9  10
ENDBRANCH   8   9
ENDBRANCH   7   8
ENDBRANCH   1   7
BRANCH   5  20
ATOM     20  C15 NON d   1     -44.879  17.647  -3.669  0.00  0.00     0.036 C 
BRANCH  20  21
ATOM     21  C16 NON d   1     -45.895  17.025  -4.288  0.00  0.00     0.078 C 
ATOM     22  S1  NON d   1     -46.761  15.758  -3.504  0.00  0.00    -0.053 SA
ATOM     23  C17 NON d   1     -47.922  15.689  -4.805  0.00  0.00     0.169 C 
ATOM     24  S2  NON d   1     -49.265  14.689  -4.753  0.00  0.00    -0.050 SA
ATOM     25  N1  NON d   1     -47.621  16.505  -5.812  0.00  0.00    -0.190 NA
ATOM     26  C18 NON d   1     -46.498  17.212  -5.640  0.00  0.00     0.285 C 
ATOM     27  O3  NON d   1     -45.982  17.923  -6.494  0.00  0.00    -0.265 OA
ENDBRANCH  20  21
ENDBRANCH   5  20
TORSDOF 9
ENDMDL
MODEL 9
REMARK VINA RESULT:   -33.979      4.174      5.524
REMARK INTER + INTRA:         -38.314
REMARK INTER:                 -36.664
REMARK INTRA:                  -1.650
REMARK CONF_INDEPENDENT:        2.685
REMARK UNBOUND:                -1.650
REMARK  9 active torsions:
REMARK  status: ('A' for Active; 'I' for Inactive)
REMARK    1  A    between atoms: C2_2  and  C3_3 
REMARK    2  A    between atoms: C6_6  and  O1_7 
REMARK    3  A    between atoms: O1_7  and  C7_8 
REMARK    4  A    between atoms: C7_8  and  C8_9 
REMARK    5  A    between atoms: C8_9  and  C9_10 
REMARK    6  A    between atoms: C9_10  and  O2_11 
REMARK    7  A    between atoms: O2_11  and  C10_12 
REMARK    8  A    between atoms: C14_16  and  C15_17 
REMARK    9  A    between atoms: C15_17  and  C16_18 
ROOT
ATOM      1  C10 NON d   1     -41.167  18.023  -4.081  0.00  0.00     0.069 A 
ATOM      2  C11 NON d   1     -41.151  18.837  -5.218  0.00  0.00     0.037 A 
ATOM      3  C12 NON d   1     -42.350  19.280  -5.775  0.00  0.00     0.004 A 
ATOM      4  C13 NON d   1     -43.568  18.901  -5.208  0.00  0.00     0.011 A 
ATOM      5  C14 NON d   1     -43.612  18.071  -4.076  0.00  0.00    -0.032 A 
ATOM      6  C19 NON d   1     -42.398  17.627  -3.537  0.00  0.00     0.048 A 
ENDROOT
BRANCH   1   7
ATOM      7  O2  NON d   1     -40.060  17.530  -3.439  0.00  0.00    -0.351 OA
BRANCH   7   8
ATOM      8  C9  NON d   1     -39.413  18.400  -2.516  0.00  0.00     0.178 C 
BRANCH   8   9
ATOM      9  C8  NON d   1     -37.905  18.138  -2.485  0.00  0.00     0.053 C 
BRANCH   9  10
ATOM     10  C7  NON d   1     -37.048  19.219  -3.152  0.00  0.00     0.178 C 
BRANCH  10  11
ATOM     11  O1  NON d   1     -36.771  18.880  -4.511  0.00  0.00    -0.351 OA
BRANCH  11  12
ATOM     12  C6  NON d   1     -37.585  19.416  -5.475  0.00  0.00     0.068 A 
ATOM     13  C5  NON d   1     -38.289  20.614  -5.380  0.00  0.00     0.037 A 
ATOM     14  C4  NON d   1     -39.093  21.045  -6.446  0.00  0.00     0.010 A 
ATOM     15  C3  NON d   1     -39.224  20.288  -7.626  0.00  0.00    -0.058 A 
ATOM     16  C21 NON d   1     -38.508  19.092  -7.715  0.00  0.00     0.010 A 
ATOM     17  C20 NON d   1     -37.703  18.663  -6.649  0.00  0.00     0.037 A 
BRANCH  15  18
ATOM     18  C2  NON d   1     -40.140  20.820  -8.707  0.00  0.00     0.034 C 
ATOM     19  C1  NON d   1     -41.573  20.266  -8.811  0.00  0.00     0.010 C 
ENDBRANCH  15  18
ENDBRANCH  11  12
ENDBRANCH  10  11
ENDBRANCH   9  10
ENDBRANCH   8   9
ENDBRANCH   7   8
ENDBRANCH   1   7
BRANCH   5  20
ATOM     20  C15 NON d   1     -44.936  17.604  -3.623  0.00  0.00     0.036 C 
BRANCH  20  21
ATOM     21  C16 NON d   1     -45.953  16.999  -4.257  0.00  0.00     0.078 C 
ATOM     22  S1  NON d   1     -46.857  15.752  -3.484  0.00  0.00    -0.053 SA
ATOM     23  C17 NON d   1     -47.995  15.700  -4.806  0.00  0.00     0.169 C 
ATOM     24  S2  NON d   1     -49.358  14.726  -4.774  0.00  0.00    -0.050 SA
ATOM     25  N1  NON d   1     -47.660  16.505  -5.810  0.00  0.00    -0.190 NA
ATOM     26  C18 NON d   1     -46.527  17.192  -5.621  0.00  0.00     0.285 C 
ATOM     27  O3  NON d   1     -45.981  17.888  -6.469  0.00  0.00    -0.265 OA
ENDBRANCH  20  21
ENDBRANCH   5  20
TORSDOF 9
ENDMDL
