@<TRIPOS>MOLECULE
*****
 46 47 0 0 0
SMALL
USER_CHARGES

@<TRIPOS>ATOM
      1 C1         -2.6671    0.1110    4.7286 C.3     1  NONAME1    -0.0397
      2 C2         -2.3337    1.0458    3.5510 C.ar    1  NONAME1    -0.0504
      3 C3         -1.1012    1.7300    3.5707 C.ar    1  NONAME1    -0.0586
      4 C4         -0.6888    2.5550    2.5097 C.ar    1  NONAME1    -0.0583
      5 C5         -1.4874    2.7087    1.3771 C.ar    1  NONAME1    -0.0473
      6 C6         -1.1261    3.5843    0.1871 C.3     1  NONAME1    -0.0277
      7 C7          0.0655    4.5666    0.2738 C.3     1  NONAME1    -0.0486
      8 C8          1.4176    3.9430   -0.1065 C.3     1  NONAME1    -0.0444
      9 C9          2.5895    4.9354   -0.0063 C.3     1  NONAME1     0.0254
     10 C10         2.8871    5.7399   -1.2687 C.2     1  NONAME1     0.2291
     11 O1          2.2561    5.6461   -2.3164 O.2     1  NONAME1    -0.2743
     12 N1          3.9760    6.5867   -1.1108 N.am    1  NONAME1    -0.2343
     13 N2          4.5506    7.2017   -2.2341 N.am    1  NONAME1    -0.2323
     14 C11         5.7200    7.9187   -2.0605 C.2     1  NONAME1     0.2579
     15 O2          6.2909    7.9871   -0.9700 O.2     1  NONAME1    -0.2714
     16 C12         6.3050    8.5042   -3.3553 C.3     1  NONAME1     0.1358
     17 C13         7.1503    9.7419   -3.1027 C.3     1  NONAME1    -0.0159
     18 C14         7.1798   10.3886   -4.4636 C.3     1  NONAME1    -0.0266
     19 C15         5.8124   10.0539   -5.0227 C.3     1  NONAME1     0.0487
     20 O3          5.3284    8.8896   -4.3302 O.3     1  NONAME1    -0.3673
     21 C16        -2.7029    1.9928    1.3420 C.ar    1  NONAME1    -0.0583
     22 C17        -3.1205    1.1698    2.4063 C.ar    1  NONAME1    -0.0586
     23 H1         -2.3731    0.8379    5.5157 H       1  NONAME1     0.0278
     24 H2         -3.0004   -0.8238    5.9061 H       1  NONAME1     0.0278
     25 H3         -3.7679    0.2088    4.6218 H       1  NONAME1     0.0278
     26 H4         -0.4401    1.6264    4.4300 H       1  NONAME1     0.0620
     27 H5          0.2663    3.0646    2.5971 H       1  NONAME1     0.0620
     28 H6         -2.0135    4.2011   -0.0131 H       1  NONAME1     0.0313
     29 H7         -0.9920    2.9343   -0.6867 H       1  NONAME1     0.0313
     30 H8          0.1176    5.0227    1.2690 H       1  NONAME1     0.0269
     31 H9         -0.1260    5.3852   -0.4318 H       1  NONAME1     0.0269
     32 H10         1.6201    3.1061    0.5717 H       1  NONAME1     0.0270
     33 H11         1.3610    3.5210   -1.1183 H       1  NONAME1     0.0270
     34 H12         2.4375    5.6290    0.8282 H       1  NONAME1     0.0359
     35 H13         3.4990    4.3579    0.2057 H       1  NONAME1     0.0359
     36 H14         4.5629    6.5632   -0.2764 H       1  NONAME1     0.1728
     37 H15         4.0060    7.2526   -3.0964 H       1  NONAME1     0.1729
     38 H16         6.9208    7.7191   -3.8126 H       1  NONAME1     0.0693
     39 H17         6.6603   10.4110   -2.3846 H       1  NONAME1     0.0296
     40 H18         8.1475    9.5078   -2.7181 H       1  NONAME1     0.0296
     41 H19         7.9598    9.9277   -5.0804 H       1  NONAME1     0.0288
     42 H20         7.3740   11.4653   -4.4334 H       1  NONAME1     0.0288
     43 H21         5.8531    9.8457   -6.0961 H       1  NONAME1     0.0560
     44 H22         5.1002   10.8686   -4.8551 H       1  NONAME1     0.0560
     45 H23        -3.3462    2.0724    0.4665 H       1  NONAME1     0.0620
     46 H24        -4.0606    0.6307    2.3204 H       1  NONAME1     0.0620
@<TRIPOS>BOND
     1     1     2    1
     2     2     3   ar
     3     3     4   ar
     4     4     5   ar
     5     5     6    1
     6     6     7    1
     7     7     8    1
     8     8     9    1
     9     9    10    1
    10    10    11    2
    11    10    12   am
    12    12    13    1
    13    13    14   am
    14    14    15    2
    15    16    14    1
    16    16    17    1
    17    17    18    1
    18    18    19    1
    19    19    20    1
    20    16    20    1
    21     5    21   ar
    22    21    22   ar
    23     2    22   ar
    24     1    23    1
    25     1    24    1
    26     1    25    1
    27     3    26    1
    28     4    27    1
    29     6    28    1
    30     6    29    1
    31     7    30    1
    32     7    31    1
    33     8    32    1
    34     8    33    1
    35     9    34    1
    36     9    35    1
    37    12    36    1
    38    13    37    1
    39    16    38    1
    40    17    39    1
    41    17    40    1
    42    18    41    1
    43    18    42    1
    44    19    43    1
    45    19    44    1
    46    21    45    1
    47    22    46    1
