@<TRIPOS>MOLECULE
*****
 47 48 0 0 0
SMALL
USER_CHARGES

@<TRIPOS>ATOM
      1 O1         10.8830   -8.1071   -0.3196 O.2     1  NONAME1    -0.2513
      2 C1         10.7723   -9.3218   -0.1856 C.2     1  NONAME1     0.3159
      3 N1          9.5685   -9.9909   -0.1270 N.am    1  NONAME1    -0.2982
      4 C2          8.3428   -9.2086   -0.1540 C.3     1  NONAME1     0.0152
      5 C3          7.0859  -10.0495    0.0767 C.3     1  NONAME1    -0.0138
      6 C4          6.5367  -10.6426   -1.2219 C.3     1  NONAME1     0.0494
      7 O2          5.2975  -10.0296   -1.5838 O.3     1  NONAME1    -0.3765
      8 C5          4.1421  -10.6297   -0.9946 C.3     1  NONAME1     0.0587
      9 C6          3.4454   -9.6511   -0.0393 C.3     1  NONAME1    -0.0266
     10 C7          2.1499   -9.2394   -0.7262 C.3     1  NONAME1    -0.0506
     11 C8          1.7889  -10.4332   -1.5901 C.3     1  NONAME1    -0.0506
     12 C9          3.1306  -10.9203   -2.1109 C.3     1  NONAME1    -0.0266
     13 N2         11.8584  -10.1753   -0.0292 N.am    1  NONAME1    -0.2203
     14 N3         13.0639   -9.4856    0.2459 N.pl3   1  NONAME1    -0.2633
     15 C10        14.2742  -10.1596   -0.0125 C.ar    1  NONAME1     0.0447
     16 C11        15.4493   -9.3956   -0.0919 C.ar    1  NONAME1    -0.0359
     17 C12        16.7144   -9.9931   -0.1652 C.ar    1  NONAME1    -0.0178
     18 C13        16.8323  -11.3789   -0.1273 C.ar    1  NONAME1     0.1301
     19 O3         17.9950  -12.0931   -0.1259 O.3     1  NONAME1    -0.4057
     20 C14        19.2029  -11.3769    0.0670 C.3     1  NONAME1     0.5752
     21 F1         19.4934  -10.6221   -1.0140 F       1  NONAME1    -0.1328
     22 F2         20.2068  -12.2651    0.2404 F       1  NONAME1    -0.1328
     23 F3         19.1516  -10.5918    1.1650 F       1  NONAME1    -0.1328
     24 C15        15.6705  -12.1523   -0.0679 C.ar    1  NONAME1    -0.0178
     25 C16        14.4067  -11.5506    0.0025 C.ar    1  NONAME1    -0.0359
     26 H1          9.5726  -10.8841   -0.5994 H       1  NONAME1     0.1503
     27 H2          8.4263   -8.4676    0.6506 H       1  NONAME1     0.0463
     28 H3          8.2972   -8.6541   -1.0979 H       1  NONAME1     0.0463
     29 H4          6.3295   -9.4091    0.5430 H       1  NONAME1     0.0302
     30 H5          7.3077  -10.8574    0.7837 H       1  NONAME1     0.0302
     31 H6          7.2271  -10.4697   -2.0543 H       1  NONAME1     0.0560
     32 H7          6.4178  -11.7293   -1.1414 H       1  NONAME1     0.0560
     33 H8          4.3952  -11.5529   -0.4597 H       1  NONAME1     0.0596
     34 H9          3.2019  -10.1735    0.8942 H       1  NONAME1     0.0290
     35 H10         4.0547   -8.7790    0.2120 H       1  NONAME1     0.0290
     36 H11         1.3613   -8.9983   -0.0060 H       1  NONAME1     0.0266
     37 H12         2.3198   -8.3552   -1.3504 H       1  NONAME1     0.0266
     38 H13         1.3069  -11.2110   -0.9873 H       1  NONAME1     0.0266
     39 H14         1.1077  -10.1612   -2.4025 H       1  NONAME1     0.0266
     40 H15         3.3971  -10.3924   -3.0333 H       1  NONAME1     0.0290
     41 H16         3.0957  -11.9884   -2.3475 H       1  NONAME1     0.0290
     42 H17        11.6818  -10.9208    0.6357 H       1  NONAME1     0.1743
     43 H18        13.0363   -8.5292   -0.1279 H       1  NONAME1     0.1700
     44 H19        15.3907   -8.3090   -0.0742 H       1  NONAME1     0.0638
     45 H20        17.5776   -9.3366   -0.2258 H       1  NONAME1     0.0655
     46 H21        15.7459  -13.2374   -0.0413 H       1  NONAME1     0.0655
     47 H22        13.5366  -12.1925    0.0915 H       1  NONAME1     0.0638
@<TRIPOS>BOND
     1     1     2    2
     2     2     3   am
     3     3     4    1
     4     4     5    1
     5     5     6    1
     6     6     7    1
     7     7     8    1
     8     8     9    1
     9     9    10    1
    10    10    11    1
    11    11    12    1
    12     8    12    1
    13     2    13   am
    14    13    14    1
    15    14    15    1
    16    15    16   ar
    17    16    17   ar
    18    17    18   ar
    19    18    19    1
    20    19    20    1
    21    20    21    1
    22    20    22    1
    23    20    23    1
    24    18    24   ar
    25    24    25   ar
    26    15    25   ar
    27     3    26    1
    28     4    27    1
    29     4    28    1
    30     5    29    1
    31     5    30    1
    32     6    31    1
    33     6    32    1
    34     8    33    1
    35     9    34    1
    36     9    35    1
    37    10    36    1
    38    10    37    1
    39    11    38    1
    40    11    39    1
    41    12    40    1
    42    12    41    1
    43    13    42    1
    44    14    43    1
    45    16    44    1
    46    17    45    1
    47    24    46    1
    48    25    47    1
