@<TRIPOS>MOLECULE
*****
 56 58 0 0 0
SMALL
USER_CHARGES

@<TRIPOS>ATOM
      1 C1         -8.0021   -9.2400    0.0000 C.3     1  NONAME1    -0.0307
      2 C2         -6.6684  -10.0100    0.0000 C.3     1  NONAME1     0.0870
      3 O1         -5.4405   -9.3345    0.1772 O.3     1  NONAME1    -0.4886
      4 C3         -4.3327  -10.1786    0.1522 C.ar    1  NONAME1     0.1623
      5 C4         -3.1278   -9.4395    0.1863 C.ar    1  NONAME1    -0.0081
      6 C5         -1.8593  -10.0506    0.1709 C.ar    1  NONAME1     0.0007
      7 C6         -0.6308   -9.1651    0.1703 C.3     1  NONAME1    -0.0075
      8 N1          0.6780   -9.8911    0.2614 N.4     1  NONAME1     0.2314
      9 C7          1.9256   -9.1088   -0.0365 C.3     1  NONAME1    -0.0174
     10 C8          2.4917   -8.3849    1.1890 C.3     1  NONAME1     0.0520
     11 N2          1.6765   -7.2860    1.6619 N.am    1  NONAME1    -0.3048
     12 C9          2.0608   -6.6168    2.8262 C.2     1  NONAME1     0.2694
     13 O2          2.9099   -7.0721    3.5866 O.2     1  NONAME1    -0.2683
     14 C10         1.4098   -5.3281    3.0111 C.ar    1  NONAME1     0.2095
     15 N3          0.4678   -4.9008    2.1533 N.ar    1  NONAME1    -0.0422
     16 O3          0.0872   -3.6537    2.6424 O.2     1  NONAME1    -0.2401
     17 N4          0.8125   -3.3139    3.7728 N.ar    1  NONAME1    -0.0334
     18 C11         1.6256   -4.3420    4.0009 C.ar    1  NONAME1     0.1925
     19 N5          2.5130   -4.3986    5.0097 N.pl3   1  NONAME1    -0.3386
     20 C12        -1.8237  -11.4463    0.1184 C.ar    1  NONAME1    -0.0499
     21 C13        -3.0089  -12.1989    0.0802 C.ar    1  NONAME1    -0.0158
     22 C14        -4.2800  -11.5983    0.0993 C.ar    1  NONAME1     0.1624
     23 O4         -5.4432  -12.3531    0.0742 O.3     1  NONAME1    -0.4837
     24 C15        -5.3349  -13.7822    0.0175 C.3     1  NONAME1     0.1162
     25 C16        -6.5898  -14.6604    0.0255 C.ar    1  NONAME1     0.0080
     26 C17        -6.3402  -16.0549    0.0530 C.ar    1  NONAME1    -0.0526
     27 C18        -7.3757  -16.9983    0.0556 C.ar    1  NONAME1    -0.0429
     28 C19        -8.6928  -16.5726    0.0299 C.ar    1  NONAME1     0.0424
     29 Cl1        -9.9764  -17.7140    0.0318 Cl      1  NONAME1    -0.0835
     30 C20        -8.9756  -15.2153   -0.0034 C.ar    1  NONAME1    -0.0247
     31 C21        -7.9363  -14.2696   -0.0094 C.ar    1  NONAME1     0.0487
     32 Cl2        -8.4675  -12.6502   -0.0735 Cl      1  NONAME1    -0.0831
     33 H1         -7.6230   -8.3866   -0.5977 H       1  NONAME1     0.0262
     34 H2         -9.3358   -8.4700    0.0000 H       1  NONAME1     0.0262
     35 H3         -8.5431   -9.9395   -0.6652 H       1  NONAME1     0.0262
     36 H4         -6.7802  -10.6868    0.8528 H       1  NONAME1     0.0694
     37 H5         -6.6160  -10.5492   -0.9555 H       1  NONAME1     0.0694
     38 H6         -3.2086   -8.3515    0.2188 H       1  NONAME1     0.0660
     39 H7         -0.6682   -8.4807    1.0225 H       1  NONAME1     0.0866
     40 H8         -0.6068   -8.5967   -0.7658 H       1  NONAME1     0.0866
     41 H9          0.6446  -10.6536   -0.4241 H       1  NONAME1     0.2017
     42 H10         0.7402  -10.3313    1.1896 H       1  NONAME1     0.2017
     43 H11         1.7051   -8.4227   -0.8604 H       1  NONAME1     0.0829
     44 H12         2.6574   -9.8463   -0.3834 H       1  NONAME1     0.0829
     45 H13         2.6389   -9.0917    2.0147 H       1  NONAME1     0.0515
     46 H14         3.4762   -7.9707    0.9397 H       1  NONAME1     0.0515
     47 H15         1.2126   -6.6631    1.0023 H       1  NONAME1     0.1493
     48 H16         3.2241   -5.1219    5.0813 H       1  NONAME1     0.1439
     49 H17         2.6770   -3.5768    5.5836 H       1  NONAME1     0.1439
     50 H18        -0.8951  -12.0095    0.1049 H       1  NONAME1     0.0623
     51 H19        -2.8916  -13.2784    0.0347 H       1  NONAME1     0.0655
     52 H20        -4.7520  -14.1032    0.8912 H       1  NONAME1     0.0748
     53 H21        -4.7965  -14.0419   -0.9038 H       1  NONAME1     0.0748
     54 H22        -5.3156  -16.4246    0.0714 H       1  NONAME1     0.0622
     55 H23        -7.1424  -18.0594    0.0752 H       1  NONAME1     0.0632
     56 H24       -10.0122  -14.8832   -0.0276 H       1  NONAME1     0.0647
@<TRIPOS>BOND
     1     1     2    1
     2     2     3    1
     3     3     4    1
     4     4     5   ar
     5     5     6   ar
     6     6     7    1
     7     7     8    1
     8     8     9    1
     9     9    10    1
    10    10    11    1
    11    11    12   am
    12    12    13    2
    13    12    14    1
    14    14    15   ar
    15    15    16   ar
    16    16    17   ar
    17    17    18   ar
    18    14    18   ar
    19    18    19    1
    20     6    20   ar
    21    20    21   ar
    22    21    22   ar
    23     4    22   ar
    24    22    23    1
    25    23    24    1
    26    24    25    1
    27    25    26   ar
    28    26    27   ar
    29    27    28   ar
    30    28    29    1
    31    28    30   ar
    32    30    31   ar
    33    25    31   ar
    34    31    32    1
    35     1    33    1
    36     1    34    1
    37     1    35    1
    38     2    36    1
    39     2    37    1
    40     5    38    1
    41     7    39    1
    42     7    40    1
    43     8    41    1
    44     8    42    1
    45     9    43    1
    46     9    44    1
    47    10    45    1
    48    10    46    1
    49    11    47    1
    50    19    48    1
    51    19    49    1
    52    20    50    1
    53    21    51    1
    54    24    52    1
    55    24    53    1
    56    26    54    1
    57    27    55    1
    58    30    56    1
