REMARK  6 active torsions:
REMARK  status: ('A' for Active; 'I' for Inactive)
REMARK    1  A    between atoms: C3_4  and  S1_5 
REMARK    2  A    between atoms: S1_5  and  C4_6 
REMARK    3  A    between atoms: C4_6  and  C5_7 
REMARK       I    between atoms: C5_7  and  N2_8 
REMARK    4  A    between atoms: C8_13  and  C9_14 
REMARK    5  A    between atoms: C13_19  and  C14_20 
REMARK       I    between atoms: C14_20  and  N4_22 
REMARK    6  A    between atoms: N4_22  and  C15_23 
ROOT
ATOM      1  C1  NON d   1      -3.422   1.538  -0.223  0.00  0.00     0.071 C 
ATOM      2  C2  NON d   1      -2.240   0.638   0.027  0.00  0.00     0.048 A 
ATOM      3  N1  NON d   1      -1.058   1.302   0.138  0.00  0.00    -0.244 NA
ATOM      4  C3  NON d   1       0.075   0.635   0.446  0.00  0.00     0.115 A 
ATOM      5  C6  NON d   1       0.069  -0.753   0.561  0.00  0.00     0.092 A 
ATOM      6  C7  NON d   1       1.252  -1.462   0.949  0.00  0.00     0.103 C 
ATOM      7  N3  NON d   1       2.215  -2.047   1.227  0.00  0.00    -0.191 NA
ATOM      8  C8  NON d   1      -1.145  -1.476   0.364  0.00  0.00     0.022 A 
ATOM      9  C13 NON d   1      -2.344  -0.755   0.163  0.00  0.00     0.069 A 
ENDROOT
BRANCH   4  10
ATOM     10  S1  NON d   1       1.420   1.758   0.797  0.00  0.00    -0.100 SA
BRANCH  10  11
ATOM     11  C4  NON d   1       2.857   0.999  -0.016  0.00  0.00     0.183 C 
BRANCH  11  12
ATOM     12  C5  NON d   1       3.983   1.998  -0.216  0.00  0.00     0.225 C 
ATOM     13  N2  NON d   1       5.239   1.468  -0.098  0.00  0.00    -0.369 N 
ATOM     14  H6  NON d   1       5.428   0.536   0.251  0.00  0.00     0.159 HD
ATOM     15  H7  NON d   1       6.020   2.106  -0.187  0.00  0.00     0.159 HD
ATOM     16  O1  NON d   1       3.846   3.179  -0.513  0.00  0.00    -0.273 OA
ENDBRANCH  11  12
ENDBRANCH  10  11
ENDBRANCH   4  10
BRANCH   8  17
ATOM     17  C9  NON d   1      -1.066  -2.950   0.349  0.00  0.00     0.017 A 
ATOM     18  C10 NON d   1      -0.365  -3.745  -0.545  0.00  0.00     0.020 A 
ATOM     19  C11 NON d   1      -0.466  -5.132  -0.244  0.00  0.00     0.008 A 
ATOM     20  C12 NON d   1      -1.257  -5.358   0.858  0.00  0.00     0.050 A 
ATOM     21  S2  NON d   1      -1.788  -3.899   1.580  0.00  0.00    -0.101 SA
ENDBRANCH   8  17
BRANCH   9  22
ATOM     22  C14 NON d   1      -3.723  -1.329   0.245  0.00  0.00     0.259 C 
ATOM     23  O2  NON d   1      -4.533  -0.706   0.930  0.00  0.00    -0.267 OA
ATOM     24  N4  NON d   1      -3.997  -2.524  -0.388  0.00  0.00    -0.323 N 
ATOM     25  H11 NON d   1      -3.225  -3.075  -0.737  0.00  0.00     0.169 HD
BRANCH  24  26
ATOM     26  C15 NON d   1      -5.242  -3.206  -0.308  0.00  0.00     0.035 A 
ATOM     27  C16 NON d   1      -5.248  -4.595  -0.471  0.00  0.00     0.029 A 
ATOM     28  C17 NON d   1      -6.439  -5.320  -0.340  0.00  0.00     0.002 A 
ATOM     29  C18 NON d   1      -7.638  -4.659  -0.083  0.00  0.00     0.000 A 
ATOM     30  C19 NON d   1      -7.649  -3.274   0.043  0.00  0.00     0.002 A 
ATOM     31  C20 NON d   1      -6.455  -2.551  -0.067  0.00  0.00     0.029 A 
ENDBRANCH  24  26
ENDBRANCH   9  22
TORSDOF 6
