REMARK  9 active torsions:
REMARK  status: ('A' for Active; 'I' for Inactive)
REMARK    1  A    between atoms: C3_3  and  N1_4 
REMARK       I    between atoms: N1_4  and  C5_6 
REMARK    2  A    between atoms: C5_6  and  C6_8 
REMARK    3  A    between atoms: C7_9  and  C6_8 
REMARK    4  A    between atoms: C9_12  and  N3_13 
REMARK    5  A    between atoms: N3_13  and  C10_14 
REMARK    6  A    between atoms: C14_18  and  O2_19 
REMARK    7  A    between atoms: C19_25  and  C21_27 
REMARK    8  A    between atoms: C21_27  and  O3_28 
REMARK    9  A    between atoms: C22_29  and  O4_30 
ROOT
ATOM      1  C1  NON d   1       8.653   8.827  -2.328  0.00  0.00     0.014 C 
ATOM      2  C2  NON d   1       9.987   8.057  -2.328  0.00  0.00    -0.098 C 
ATOM      3  C3  NON d   1      11.320   7.287  -2.328  0.00  0.00     0.218 C 
ENDROOT
BRANCH   3   4
ATOM      4  N1  NON d   1      11.749   6.515  -1.164  0.00  0.00    -0.346 N 
ATOM      5  C4  NON d   1      10.787   6.266  -0.100  0.00  0.00     0.153 C 
ATOM      6  C5  NON d   1      13.006   5.888  -1.294  0.00  0.00     0.220 C 
ATOM      7  O1  NON d   1      13.687   6.097  -2.308  0.00  0.00    -0.273 OA
BRANCH   6   8
ATOM      8  C6  NON d   1      13.527   4.955  -0.182  0.00  0.00     0.114 C 
BRANCH   8   9
ATOM      9  C7  NON d   1      14.697   4.009  -0.638  0.00  0.00     0.056 C 
ATOM     10  C8  NON d   1      16.078   4.351  -0.118  0.00  0.00     0.056 A 
ATOM     11  N2  NON d   1      16.493   5.625   0.277  0.00  0.00    -0.227 NA
ATOM     12  C16 NON d   1      17.111   3.462  -0.281  0.00  0.00     0.012 A 
ATOM     13  C9  NON d   1      17.819   5.693   0.378  0.00  0.00     0.171 A 
ATOM     14  S1  NON d   1      18.585   4.165   0.138  0.00  0.00    -0.055 SA
ATOM     15  C17 NON d   1      17.039   2.131  -0.914  0.00  0.00     0.054 C 
ATOM     16  C18 NON d   1      15.660   1.449  -0.763  0.00  0.00     0.012 C 
ATOM     17  C19 NON d   1      15.769   0.128   0.138  0.00  0.00     0.008 C 
ATOM     18  C25 NON d   1      14.395   2.418  -0.530  0.00  0.00    -0.030 C 
ATOM     19  C20 NON d   1      16.518   0.371   1.484  0.00  0.00     0.020 C 
ATOM     20  C22 NON d   1      14.378  -0.470   0.520  0.00  0.00     0.128 C 
ATOM     21  C23 NON d   1      13.267   0.540   0.802  0.00  0.00     0.033 C 
ATOM     22  C24 NON d   1      13.696   2.007   0.788  0.00  0.00     0.013 C 
ATOM     23  C26 NON d   1      13.407   2.143  -1.713  0.00  0.00     0.016 C 
BRANCH  13  24
ATOM     24  N3  NON d   1      18.477   6.873   0.593  0.00  0.00    -0.335 N 
ATOM     25  H10 NON d   1      17.854   7.672   0.551  0.00  0.00     0.168 HD
BRANCH  24  26
ATOM     26  C10 NON d   1      19.851   7.222   0.478  0.00  0.00     0.036 A 
ATOM     27  C11 NON d   1      20.179   8.554   0.146  0.00  0.00     0.029 A 
ATOM     28  C12 NON d   1      21.509   8.965  -0.043  0.00  0.00     0.005 A 
ATOM     29  C13 NON d   1      22.549   8.050   0.083  0.00  0.00     0.036 A 
ATOM     30  C14 NON d   1      22.245   6.742   0.425  0.00  0.00     0.067 A 
ATOM     31  C15 NON d   1      20.924   6.340   0.643  0.00  0.00     0.066 A 
BRANCH  30  32
ATOM     32  O2  NON d   1      23.224   5.798   0.555  0.00  0.00    -0.361 OA
ATOM     33  H14 NON d   1      24.064   6.175   0.246  0.00  0.00     0.217 HD
ENDBRANCH  30  32
ENDBRANCH  24  26
ENDBRANCH  13  24
BRANCH  17  34
ATOM     34  C21 NON d   1      16.622  -0.958  -0.615  0.00  0.00     0.176 C 
BRANCH  34  35
ATOM     35  O3  NON d   1      16.349  -0.999  -2.011  0.00  0.00    -0.400 OA
ATOM     36  H24 NON d   1      16.739  -1.814  -2.366  0.00  0.00     0.209 HD
ENDBRANCH  34  35
ENDBRANCH  17  34
BRANCH  20  37
ATOM     37  O4  NON d   1      13.898  -1.394  -0.456  0.00  0.00    -0.395 OA
ATOM     38  H26 NON d   1      13.186  -1.915  -0.046  0.00  0.00     0.210 HD
ENDBRANCH  20  37
ENDBRANCH   8   9
ENDBRANCH   6   8
ENDBRANCH   3   4
TORSDOF 9
