@<TRIPOS>MOLECULE
*****
 46 48 0 0 0
SMALL
USER_CHARGES

@<TRIPOS>ATOM
      1 O1         -2.7796   -4.0802   -0.3410 O.2     1  NONAME1    -0.2684
      2 C1         -2.7890   -2.8495   -0.3035 C.2     1  NONAME1     0.2647
      3 N1         -1.6072   -2.1445   -0.1655 N.am    1  NONAME1    -0.2025
      4 N2         -1.3990   -0.8046   -0.1088 N.2     1  NONAME1    -0.1795
      5 C2         -0.1970   -0.2824   -0.0045 C.2     1  NONAME1     0.1208
      6 C3          1.2511   -1.2647    0.1371 C.ar    1  NONAME1     0.1539
      7 N3          2.3807   -0.6363    0.4001 N.ar    1  NONAME1    -0.2384
      8 C4          3.6387   -1.2394    0.3047 C.ar    1  NONAME1     0.0881
      9 C5          4.7832   -0.4356    0.3252 C.ar    1  NONAME1    -0.0343
     10 C6          6.0535   -1.0018    0.1912 C.ar    1  NONAME1    -0.0596
     11 C7          6.1874   -2.3829    0.0452 C.ar    1  NONAME1    -0.0597
     12 C8          5.0492   -3.1925    0.0073 C.ar    1  NONAME1    -0.0362
     13 C9          3.7859   -2.6080    0.1122 C.ar    1  NONAME1     0.0676
     14 N4          2.6327   -3.3675   -0.0171 N.ar    1  NONAME1    -0.3191
     15 C10         1.3748   -2.8064   -0.0519 C.ar    1  NONAME1     0.2766
     16 O2          0.4097   -3.5345   -0.2044 O.2     1  NONAME1    -0.2655
     17 C11         0.0000    1.5400    0.0000 C.3     1  NONAME1     0.1285
     18 O3          0.1733    1.6852    1.5488 O.3     1  NONAME1    -0.3829
     19 C12        -1.3337    2.3100    0.0000 C.3     1  NONAME1     0.1097
     20 O4         -1.5368    2.8611   -1.4008 O.3     1  NONAME1    -0.3866
     21 C13        -2.6673    1.5401    0.0183 C.3     1  NONAME1     0.0729
     22 O5         -2.9170    0.8631    1.2404 O.3     1  NONAME1    -0.3924
     23 C14        -4.0941   -2.1870   -0.3173 C.ar    1  NONAME1     0.0566
     24 C15        -5.0259   -2.6453    0.6303 C.ar    1  NONAME1    -0.0482
     25 C16        -6.3103   -2.1092    0.6715 C.ar    1  NONAME1    -0.0610
     26 C17        -6.6621   -1.1010   -0.2219 C.ar    1  NONAME1    -0.0603
     27 C18        -5.7559   -0.6870   -1.2034 C.ar    1  NONAME1    -0.0427
     28 C19        -4.4864   -1.2688   -1.2880 C.ar    1  NONAME1     0.0531
     29 Cl1        -3.5308   -0.9229   -2.6875 Cl      1  NONAME1    -0.0828
     30 H1         -0.8386   -2.8050   -0.1503 H       1  NONAME1     0.1776
     31 H2          4.6835    0.6425    0.4213 H       1  NONAME1     0.0639
     32 H3          6.9358   -0.3653    0.1939 H       1  NONAME1     0.0618
     33 H4          7.1780   -2.8243   -0.0484 H       1  NONAME1     0.0618
     34 H5          5.1625   -4.2643   -0.1268 H       1  NONAME1     0.0639
     35 H6          2.6816   -4.3680   -0.1519 H       1  NONAME1     0.1690
     36 H7          1.3337    0.7700    0.0000 H       1  NONAME1     0.0687
     37 H8          1.1354    1.7415    1.6963 H       1  NONAME1     0.2104
     38 H9         -0.0001    3.0799   -0.0183 H       1  NONAME1     0.0646
     39 H10        -2.0118    3.7024   -1.2695 H       1  NONAME1     0.2100
     40 H11        -3.4754    2.2793   -0.0618 H       1  NONAME1     0.0584
     41 H12        -2.8093    0.9015   -0.8489 H       1  NONAME1     0.0584
     42 H13        -2.4505    0.0070    1.1589 H       1  NONAME1     0.2095
     43 H14        -4.7543   -3.4454    1.3180 H       1  NONAME1     0.0625
     44 H15        -7.0309   -2.4827    1.3948 H       1  NONAME1     0.0618
     45 H16        -7.6555   -0.6613   -0.1771 H       1  NONAME1     0.0618
     46 H17        -6.0583    0.0712   -1.9208 H       1  NONAME1     0.0632
@<TRIPOS>BOND
     1     1     2    2
     2     2     3   am
     3     3     4    1
     4     4     5    2
     5     5     6    1
     6     6     7   ar
     7     7     8   ar
     8     8     9   ar
     9     9    10   ar
    10    10    11   ar
    11    11    12   ar
    12    12    13   ar
    13     8    13   ar
    14    13    14   ar
    15    14    15   ar
    16     6    15   ar
    17    15    16    2
    18    17     5    1
    19    17    18    1
    20    17    19    1
    21    19    20    1
    22    19    21    1
    23    21    22    1
    24     2    23    1
    25    23    24   ar
    26    24    25   ar
    27    25    26   ar
    28    26    27   ar
    29    27    28   ar
    30    23    28   ar
    31    28    29    1
    32     3    30    1
    33     9    31    1
    34    10    32    1
    35    11    33    1
    36    12    34    1
    37    14    35    1
    38    17    36    1
    39    18    37    1
    40    19    38    1
    41    20    39    1
    42    21    40    1
    43    21    41    1
    44    22    42    1
    45    24    43    1
    46    25    44    1
    47    26    45    1
    48    27    46    1
