@<TRIPOS>MOLECULE
*****
 53 55 0 0 0
SMALL
USER_CHARGES

@<TRIPOS>ATOM
      1 C1          8.0021  -10.7800    0.0000 C.3     1  NONAME1     0.0789
      2 O1          8.0021   -9.2400    0.0000 O.3     1  NONAME1    -0.4932
      3 C2          6.9022   -8.4717   -0.0774 C.ar    1  NONAME1     0.1426
      4 C3          5.6083   -8.9828   -0.0799 C.ar    1  NONAME1     0.0002
      5 C4          4.5294   -8.1027   -0.0290 C.ar    1  NONAME1     0.0445
      6 Cl1         2.9230   -8.7204   -0.0158 Cl      1  NONAME1    -0.0834
      7 C5          4.7332   -6.7240    0.0382 C.ar    1  NONAME1    -0.0414
      8 C6          6.0312   -6.2114    0.0404 C.ar    1  NONAME1    -0.0355
      9 C7          7.1306   -7.0737   -0.0477 C.ar    1  NONAME1     0.0757
     10 N1          8.4167   -6.4628   -0.0160 N.am    1  NONAME1    -0.2798
     11 C8          9.5989   -6.9549   -0.5773 C.2     1  NONAME1     0.2549
     12 O2          9.6746   -7.8471   -1.4169 O.2     1  NONAME1    -0.2717
     13 C9         10.8374   -6.1355   -0.1548 C.3     1  NONAME1     0.1655
     14 O3         12.0363   -6.8999   -0.0897 O.3     1  NONAME1    -0.4820
     15 C10        13.2455   -6.2534    0.0034 C.ar    1  NONAME1     0.1333
     16 C11        13.3465   -4.8504    0.0393 C.ar    1  NONAME1    -0.0192
     17 C12        14.5873   -4.2120    0.0458 C.ar    1  NONAME1    -0.0583
     18 C13        15.7507   -4.9635    0.0294 C.ar    1  NONAME1    -0.0608
     19 C14        15.6761   -6.3578    0.0395 C.ar    1  NONAME1    -0.0460
     20 C15        14.4330   -7.0307    0.0358 C.ar    1  NONAME1     0.0799
     21 C16        14.3851   -8.5451    0.1158 C.2     1  NONAME1     0.2668
     22 O4         13.3337   -9.1399    0.3338 O.2     1  NONAME1    -0.2683
     23 N2         15.5965   -9.2303   -0.0249 N.am    1  NONAME1    -0.2029
     24 N3         15.6080  -10.5965    0.0395 N.2     1  NONAME1    -0.1873
     25 C17        16.7742  -11.1567   -0.0025 C.2     1  NONAME1     0.0564
     26 C18        16.9122  -12.6270    0.0213 C.ar    1  NONAME1     0.0396
     27 C19        18.2048  -13.1720    0.0207 C.ar    1  NONAME1    -0.0494
     28 C20        18.3806  -14.5603    0.0236 C.ar    1  NONAME1    -0.0575
     29 C21        17.2731  -15.4071    0.0254 C.ar    1  NONAME1    -0.0165
     30 C22        15.9963  -14.8579    0.0290 C.ar    1  NONAME1     0.1589
     31 O5         14.9194  -15.6976    0.0267 O.3     1  NONAME1    -0.5033
     32 C23        15.8032  -13.4755    0.0291 C.ar    1  NONAME1     0.1670
     33 O6         14.5033  -13.0395    0.0313 O.3     1  NONAME1    -0.5029
     34 H1          7.8683  -10.8515   -1.0952 H       1  NONAME1     0.0660
     35 H2          8.0021  -12.3200    0.0000 H       1  NONAME1     0.0660
     36 H3          9.0834  -10.8409    0.2147 H       1  NONAME1     0.0660
     37 H4          5.4342  -10.0540   -0.0980 H       1  NONAME1     0.0669
     38 H5          3.8868   -6.0438    0.0914 H       1  NONAME1     0.0633
     39 H6          6.1693   -5.1346    0.0901 H       1  NONAME1     0.0638
     40 H7          8.4408   -5.4985    0.2831 H       1  NONAME1     0.1550
     41 H8         10.6520   -5.6848    0.8276 H       1  NONAME1     0.0795
     42 H9         10.9200   -5.3490   -0.9149 H       1  NONAME1     0.0795
     43 H10        12.4699   -4.2118    0.0592 H       1  NONAME1     0.0654
     44 H11        14.6406   -3.1260    0.0598 H       1  NONAME1     0.0619
     45 H12        16.7188   -4.4681    0.0246 H       1  NONAME1     0.0618
     46 H13        16.6244   -6.8806    0.0671 H       1  NONAME1     0.0626
     47 H14        16.4697   -8.7603   -0.2061 H       1  NONAME1     0.1776
     48 H15        17.7061  -10.5650   -0.0548 H       1  NONAME1     0.0852
     49 H16        19.0820  -12.5300    0.0183 H       1  NONAME1     0.0625
     50 H17        19.3819  -14.9861    0.0235 H       1  NONAME1     0.0619
     51 H18        17.3971  -16.4860    0.0232 H       1  NONAME1     0.0655
     52 H19        14.1454  -15.0964    0.0224 H       1  NONAME1     0.2923
     53 H20        14.5077  -12.0512    0.0500 H       1  NONAME1     0.2923
@<TRIPOS>BOND
     1     1     2    1
     2     2     3    1
     3     3     4   ar
     4     4     5   ar
     5     5     6    1
     6     5     7   ar
     7     7     8   ar
     8     8     9   ar
     9     3     9   ar
    10     9    10    1
    11    10    11   am
    12    11    12    2
    13    11    13    1
    14    13    14    1
    15    14    15    1
    16    15    16   ar
    17    16    17   ar
    18    17    18   ar
    19    18    19   ar
    20    19    20   ar
    21    15    20   ar
    22    20    21    1
    23    21    22    2
    24    21    23   am
    25    23    24    1
    26    24    25    2
    27    25    26    1
    28    26    27   ar
    29    27    28   ar
    30    28    29   ar
    31    29    30   ar
    32    30    31    1
    33    30    32   ar
    34    26    32   ar
    35    32    33    1
    36     1    34    1
    37     1    35    1
    38     1    36    1
    39     4    37    1
    40     7    38    1
    41     8    39    1
    42    10    40    1
    43    13    41    1
    44    13    42    1
    45    16    43    1
    46    17    44    1
    47    18    45    1
    48    19    46    1
    49    23    47    1
    50    25    48    1
    51    27    49    1
    52    28    50    1
    53    29    51    1
    54    31    52    1
    55    33    53    1
