REMARK  6 active torsions:
REMARK  status: ('A' for Active; 'I' for Inactive)
REMARK    1  A    between atoms: N1_1  and  S1_2 
REMARK    2  A    between atoms: S1_2  and  C1_5 
REMARK    3  A    between atoms: C4_8  and  N2_9 
REMARK    4  A    between atoms: N2_9  and  C5_10 
REMARK    5  A    between atoms: C9_14  and  N3_15 
REMARK    6  A    between atoms: C14_22  and  N4_23 
ROOT
ATOM      1  C1  NON d   1       2.468  13.515   0.000  0.00  0.00     0.076 A 
ATOM      2  C2  NON d   1       3.625  12.898  -0.509  0.00  0.00     0.027 A 
ATOM      3  C3  NON d   1       3.778  11.504  -0.553  0.00  0.00     0.033 A 
ATOM      4  C4  NON d   1       2.790  10.636  -0.078  0.00  0.00     0.066 A 
ATOM      5  C14 NON d   1       1.587  11.247   0.356  0.00  0.00     0.131 A 
ATOM      6  C15 NON d   1       1.440  12.658   0.415  0.00  0.00     0.063 A 
ENDROOT
BRANCH   4   7
ATOM      7  N2  NON d   1       3.013   9.239  -0.052  0.00  0.00    -0.354 N 
ATOM      8  H5  NON d   1       2.167   8.701   0.166  0.00  0.00     0.166 HD
BRANCH   7   9
ATOM      9  C5  NON d   1       4.170   8.436   0.108  0.00  0.00     0.034 A 
ATOM     10  C6  NON d   1       5.436   8.937   0.413  0.00  0.00     0.029 A 
ATOM     11  C7  NON d   1       6.542   8.090   0.489  0.00  0.00     0.004 A 
ATOM     12  C8  NON d   1       6.396   6.718   0.281  0.00  0.00     0.030 A 
ATOM     13  C9  NON d   1       5.141   6.162  -0.003  0.00  0.00     0.041 A 
ATOM     14  C13 NON d   1       4.050   7.044  -0.105  0.00  0.00     0.059 A 
BRANCH  13  15
ATOM     15  N3  NON d   1       5.003   4.754  -0.164  0.00  0.00    -0.292 N 
ATOM     16  C10 NON d   1       6.108   3.846  -0.085  0.00  0.00     0.161 C 
ATOM     17  C11 NON d   1       5.458   2.488  -0.099  0.00  0.00     0.201 C 
ATOM     18  O3  NON d   1       4.135   2.709  -0.580  0.00  0.00    -0.302 OA
ATOM     19  C12 NON d   1       3.855   4.051  -0.501  0.00  0.00     0.367 C 
ATOM     20  O4  NON d   1       2.734   4.476  -0.724  0.00  0.00    -0.238 OA
ENDBRANCH  13  15
ENDBRANCH   7   9
ENDBRANCH   4   7
BRANCH   5  21
ATOM     21  N4  NON d   1       0.411  10.436   0.722  0.00  0.00    -0.113 N 
ATOM     22  O5  NON d   1      -0.677  11.017   0.841  0.00  0.00    -0.532 OA
ATOM     23  O6  NON d   1       0.563   9.213   0.867  0.00  0.00    -0.532 OA
ENDBRANCH   5  21
BRANCH   1  24
ATOM     24  S1  NON d   1       2.468  15.055   0.000  0.00  0.00     0.239 S 
ATOM     25  O1  NON d   1       1.170  15.126  -0.679  0.00  0.00    -0.206 OA
ATOM     26  O2  NON d   1       2.551  15.109   1.463  0.00  0.00    -0.206 OA
BRANCH  24  27
ATOM     27  N1  NON d   1       2.468  16.595   0.000  0.00  0.00    -0.225 NA
ATOM     28  H1  NON d   1       2.589  16.933   0.957  0.00  0.00     0.136 HD
ATOM     29  H2  NON d   1       1.576  16.926  -0.373  0.00  0.00     0.136 HD
ENDBRANCH  24  27
ENDBRANCH   1  24
TORSDOF 6
