@<TRIPOS>MOLECULE
*****
 38 39 0 0 0
SMALL
USER_CHARGES

@<TRIPOS>ATOM
      1 O1          1.4911   -4.9704   -0.2799 O.2     1  NONAME1    -0.2699
      2 C1          1.5377   -3.7437   -0.1879 C.2     1  NONAME1     0.2512
      3 N1          2.7290   -3.0547   -0.1426 N.am    1  NONAME1    -0.3110
      4 C2          3.9935   -3.7536   -0.1406 C.3     1  NONAME1     0.0150
      5 C3          5.2014   -2.8318   -0.0985 C.3     1  NONAME1    -0.0030
      6 C4          5.3505   -1.9846   -1.3588 C.3     1  NONAME1     0.0910
      7 O2          6.6034   -1.3026   -1.2669 O.3     1  NONAME1    -0.4919
      8 C5          6.9489   -0.4834   -2.3053 C.ar    1  NONAME1     0.1205
      9 C6          8.2032    0.1203   -2.1790 C.ar    1  NONAME1    -0.0199
     10 C7          8.6758    0.9928   -3.1605 C.ar    1  NONAME1    -0.0583
     11 C8          7.8930    1.2672   -4.2794 C.ar    1  NONAME1    -0.0615
     12 C9          6.6428    0.6641   -4.4152 C.ar    1  NONAME1    -0.0583
     13 C10         6.1711   -0.2106   -3.4311 C.ar    1  NONAME1    -0.0199
     14 C11         0.2609   -2.9669   -0.1097 C.ar    1  NONAME1     0.1192
     15 C12        -0.9565   -3.6770   -0.0961 C.ar    1  NONAME1     0.1325
     16 O3         -1.0379   -5.0467   -0.1382 O.3     1  NONAME1    -0.5059
     17 C13        -2.1825   -3.0138   -0.0349 C.ar    1  NONAME1    -0.0192
     18 C14        -2.2188   -1.6236    0.0120 C.ar    1  NONAME1    -0.0548
     19 C15        -1.0287   -0.8968    0.0034 C.ar    1  NONAME1    -0.0192
     20 C16         0.2029   -1.5628   -0.0546 C.ar    1  NONAME1     0.1325
     21 O4          1.3489   -0.8059   -0.0524 O.3     1  NONAME1    -0.5059
     22 H1          2.6820   -2.0517    0.0263 H       1  NONAME1     0.1490
     23 H2          4.0017   -4.4088    0.7382 H       1  NONAME1     0.0463
     24 H3          4.0279   -4.3998   -1.0256 H       1  NONAME1     0.0463
     25 H4          5.1537   -2.1743    0.7786 H       1  NONAME1     0.0313
     26 H5          6.1070   -3.4382    0.0307 H       1  NONAME1     0.0313
     27 H6          5.3397   -2.6301   -2.2449 H       1  NONAME1     0.0697
     28 H7          4.5323   -1.2567   -1.4120 H       1  NONAME1     0.0697
     29 H8          8.8173   -0.0923   -1.3073 H       1  NONAME1     0.0654
     30 H9          9.6522    1.4564   -3.0496 H       1  NONAME1     0.0619
     31 H10         8.2558    1.9482   -5.0440 H       1  NONAME1     0.0618
     32 H11         6.0330    0.8761   -5.2893 H       1  NONAME1     0.0619
     33 H12         5.1942   -0.6593   -3.5742 H       1  NONAME1     0.0654
     34 H13        -0.1208   -5.4015   -0.1960 H       1  NONAME1     0.2922
     35 H14        -3.1066   -3.5875   -0.0253 H       1  NONAME1     0.0654
     36 H15        -3.1762   -1.1099    0.0568 H       1  NONAME1     0.0620
     37 H16        -1.0835    0.1878    0.0431 H       1  NONAME1     0.0654
     38 H17         1.1026    0.1362   -0.0245 H       1  NONAME1     0.2922
@<TRIPOS>BOND
     1     1     2    2
     2     2     3   am
     3     3     4    1
     4     4     5    1
     5     5     6    1
     6     6     7    1
     7     7     8    1
     8     8     9   ar
     9     9    10   ar
    10    10    11   ar
    11    11    12   ar
    12    12    13   ar
    13     8    13   ar
    14     2    14    1
    15    14    15   ar
    16    15    16    1
    17    15    17   ar
    18    17    18   ar
    19    18    19   ar
    20    19    20   ar
    21    14    20   ar
    22    20    21    1
    23     3    22    1
    24     4    23    1
    25     4    24    1
    26     5    25    1
    27     5    26    1
    28     6    27    1
    29     6    28    1
    30     9    29    1
    31    10    30    1
    32    11    31    1
    33    12    32    1
    34    13    33    1
    35    16    34    1
    36    17    35    1
    37    18    36    1
    38    19    37    1
    39    21    38    1
