@<TRIPOS>MOLECULE
*****
 48 49 0 0 0
SMALL
USER_CHARGES

@<TRIPOS>ATOM
      1 C1          5.3347   -3.0800    0.0000 C.3     1  NONAME1    -0.0390
      2 C2          5.3347   -4.6200    0.0000 C.ar    1  NONAME1    -0.0382
      3 C3          6.5000   -5.4340    0.0232 C.ar    1  NONAME1    -0.0563
      4 C4          6.4967   -6.9021    0.0307 C.ar    1  NONAME1    -0.0351
      5 C5          5.3347   -7.7000    0.0000 C.ar    1  NONAME1     0.1060
      6 S1          5.3347   -9.2400    0.0000 S.O2    1  NONAME1     0.0589
      7 O1          4.7316   -9.2123   -1.3362 O.2     1  NONAME1    -0.1530
      8 O2          4.5244   -9.2906    1.2225 O.2     1  NONAME1    -0.1530
      9 N1          5.3347  -10.7800    0.0000 N.3     1  NONAME1    -0.1846
     10 C6          6.2010  -11.5500   -1.0140 C.3     1  NONAME1     0.0316
     11 C7          7.0673  -12.3200   -2.0281 C.3     1  NONAME1    -0.0457
     12 C8          7.4667  -10.8958   -0.4295 C.3     1  NONAME1    -0.0457
     13 C9          4.9353  -12.2042   -1.5986 C.3     1  NONAME1    -0.0457
     14 C10         4.1636   -6.8505   -0.0422 C.ar    1  NONAME1    -0.0229
     15 C11         4.1382   -5.3753   -0.0346 C.ar    1  NONAME1     0.0429
     16 C12         2.7893   -4.6912   -0.1469 C.2     1  NONAME1     0.2604
     17 O3          1.8560   -5.2417   -0.7268 O.2     1  NONAME1    -0.2687
     18 N2          2.6688   -3.4212    0.4304 N.am    1  NONAME1    -0.2325
     19 N3          1.3951   -2.8079    0.4249 N.pl3   1  NONAME1    -0.2642
     20 C13         1.3582   -1.4051    0.1812 C.ar    1  NONAME1     0.0446
     21 C14         0.1067   -0.7933   -0.0065 C.ar    1  NONAME1    -0.0367
     22 C15        -0.0169    0.5973   -0.1490 C.ar    1  NONAME1    -0.0247
     23 C16         1.1175    1.4000   -0.1006 C.ar    1  NONAME1     0.1235
     24 F1          1.0086    2.7257   -0.2319 F       1  NONAME1    -0.2055
     25 C17         2.3649    0.8266    0.1055 C.ar    1  NONAME1    -0.0247
     26 C18         2.4727   -0.5628    0.2684 C.ar    1  NONAME1    -0.0367
     27 H1          6.2999   -2.9808    0.5350 H       1  NONAME1     0.0278
     28 H2          5.3347   -1.5400    0.0000 H       1  NONAME1     0.0278
     29 H3          5.5066   -3.0036   -1.0931 H       1  NONAME1     0.0278
     30 H4          7.4779   -4.9471    0.0359 H       1  NONAME1     0.0621
     31 H5          7.4747   -7.3874    0.0509 H       1  NONAME1     0.0637
     32 H6          4.9265  -11.2580    0.7997 H       1  NONAME1     0.1486
     33 H7          6.3521  -12.5328   -2.8602 H       1  NONAME1     0.0248
     34 H8          7.9336  -13.0900   -3.0421 H       1  NONAME1     0.0248
     35 H9          7.5744  -11.4303   -2.4896 H       1  NONAME1     0.0248
     36 H10         8.2023  -11.7392   -0.5113 H       1  NONAME1     0.0248
     37 H11         8.7324  -10.2416    0.1550 H       1  NONAME1     0.0248
     38 H12         7.2572  -11.0543    0.6623 H       1  NONAME1     0.0248
     39 H13         4.2598  -11.3400   -1.7041 H       1  NONAME1     0.0248
     40 H14         3.6696  -12.8584   -2.1831 H       1  NONAME1     0.0248
     41 H15         4.7308  -12.8857   -0.7443 H       1  NONAME1     0.0248
     42 H16         3.1898   -7.3521   -0.0931 H       1  NONAME1     0.0645
     43 H17         3.2338   -3.1959    1.2420 H       1  NONAME1     0.1730
     44 H18         0.7344   -3.3229   -0.1718 H       1  NONAME1     0.1700
     45 H19        -0.7977   -1.3954   -0.0231 H       1  NONAME1     0.0637
     46 H20        -0.9886    1.0643   -0.2779 H       1  NONAME1     0.0647
     47 H21         3.2450    1.4614    0.1528 H       1  NONAME1     0.0647
     48 H22         3.4522   -0.9680    0.4659 H       1  NONAME1     0.0637
@<TRIPOS>BOND
     1     1     2    1
     2     2     3   ar
     3     3     4   ar
     4     4     5   ar
     5     5     6    1
     6     6     7    2
     7     6     8    2
     8     6     9    1
     9     9    10    1
    10    10    11    1
    11    10    12    1
    12    10    13    1
    13     5    14   ar
    14    14    15   ar
    15     2    15   ar
    16    15    16    1
    17    16    17    2
    18    16    18   am
    19    18    19    1
    20    19    20    1
    21    20    21   ar
    22    21    22   ar
    23    22    23   ar
    24    23    24    1
    25    23    25   ar
    26    25    26   ar
    27    20    26   ar
    28     1    27    1
    29     1    28    1
    30     1    29    1
    31     3    30    1
    32     4    31    1
    33     9    32    1
    34    11    33    1
    35    11    34    1
    36    11    35    1
    37    12    36    1
    38    12    37    1
    39    12    38    1
    40    13    39    1
    41    13    40    1
    42    13    41    1
    43    14    42    1
    44    18    43    1
    45    19    44    1
    46    21    45    1
    47    22    46    1
    48    25    47    1
    49    26    48    1
