@<TRIPOS>MOLECULE
*****
 57 60 0 0 0
SMALL
USER_CHARGES

@<TRIPOS>ATOM
      1 C1         14.4713    3.7350    0.0000 C.3     1  NONAME1    -0.0014
      2 C2         14.4713    2.1950    0.0000 C.2     1  NONAME1     0.1601
      3 O1         15.5190    1.5534   -0.0847 O.2     1  NONAME1    -0.2924
      4 C3         13.1659    1.4527    0.0666 C.ar    1  NONAME1     0.0172
      5 C4         13.1946    0.0563    0.0634 C.ar    1  NONAME1    -0.0495
      6 C5         12.0066   -0.7017    0.1023 C.ar    1  NONAME1    -0.0400
      7 C6         10.7272   -0.1172    0.1267 C.ar    1  NONAME1     0.0298
      8 N1          9.5438   -0.8909    0.1985 N.pl3   1  NONAME1    -0.3269
      9 C7          9.6145   -2.2995   -0.2733 C.3     1  NONAME1     0.0280
     10 C8          8.3626   -3.1433    0.0712 C.3     1  NONAME1     0.0308
     11 N2          7.0762   -2.5056   -0.1650 N.am    1  NONAME1    -0.2933
     12 C9          5.8058   -3.1614   -0.2016 C.2     1  NONAME1     0.2656
     13 O2          4.8083   -2.4392   -0.3197 O.2     1  NONAME1    -0.2683
     14 C10         5.6377   -4.6423   -0.0887 C.ar    1  NONAME1     0.1348
     15 C11         6.5535   -5.5987    0.3053 C.ar    1  NONAME1     0.0095
     16 S1          5.8817   -7.1726    0.2937 S.2     1  NONAME1    -0.0580
     17 C12         4.3448   -6.5129   -0.1225 C.ar    1  NONAME1     0.1868
     18 N3          3.3390   -7.4136   -0.2183 N.am    1  NONAME1    -0.1371
     19 C13         2.0558   -7.0550   -0.1615 C.2     1  NONAME1     0.3297
     20 O3          1.5616   -5.9363   -0.0798 O.2     1  NONAME1    -0.2502
     21 N4          1.3022   -8.2135   -0.1692 N.am    1  NONAME1    -0.2678
     22 C14        -0.0915   -8.4070   -0.1235 C.ar    1  NONAME1     0.0351
     23 C15        -0.5552   -9.7295   -0.0912 C.ar    1  NONAME1    -0.0404
     24 C16        -1.9242  -10.0098   -0.0446 C.ar    1  NONAME1    -0.0598
     25 C17        -2.8492   -8.9668   -0.0383 C.ar    1  NONAME1    -0.0587
     26 C18        -2.4077   -7.6408   -0.0869 C.ar    1  NONAME1    -0.0487
     27 C19        -3.3935   -6.5106   -0.0511 C.3     1  NONAME1    -0.0397
     28 C20        -1.0267   -7.3705   -0.1132 C.ar    1  NONAME1    -0.0375
     29 N5          4.3655   -5.2138   -0.3286 N.ar    1  NONAME1    -0.2185
     30 C21         7.0341   -1.0858    0.1982 C.3     1  NONAME1     0.0308
     31 C22         8.2667   -0.2569   -0.2182 C.3     1  NONAME1     0.0280
     32 C23        10.7328    1.2947    0.1577 C.ar    1  NONAME1    -0.0400
     33 C24        11.9208    2.0710    0.1215 C.ar    1  NONAME1    -0.0495
     34 H1         15.5726    3.8299    0.1123 H       1  NONAME1     0.0309
     35 H2         14.4713    5.2750    0.0000 H       1  NONAME1     0.0309
     36 H3         14.2252    3.8087   -1.0816 H       1  NONAME1     0.0309
     37 H4         14.1486   -0.4689    0.0346 H       1  NONAME1     0.0625
     38 H5         12.1418   -1.7778    0.1199 H       1  NONAME1     0.0636
     39 H6          9.7588   -2.3006   -1.3611 H       1  NONAME1     0.0479
     40 H7         10.4517   -2.8362    0.1825 H       1  NONAME1     0.0479
     41 H8          8.4239   -4.0482   -0.5372 H       1  NONAME1     0.0480
     42 H9          8.3923   -3.4159    1.1328 H       1  NONAME1     0.0480
     43 H10         7.5756   -5.5153    0.6173 H       1  NONAME1     0.0717
     44 H11         1.8979   -9.0259   -0.1957 H       1  NONAME1     0.1564
     45 H12         0.1520  -10.5531   -0.0942 H       1  NONAME1     0.0636
     46 H13        -2.2638  -11.0406   -0.0114 H       1  NONAME1     0.0618
     47 H14        -3.9108   -9.1929    0.0034 H       1  NONAME1     0.0620
     48 H15        -3.0099   -5.6388   -0.5904 H       1  NONAME1     0.0278
     49 H16        -3.6006   -6.2262    0.9849 H       1  NONAME1     0.0278
     50 H17        -4.3341   -6.8001   -0.5318 H       1  NONAME1     0.0278
     51 H18        -0.6868   -6.3385   -0.1330 H       1  NONAME1     0.0639
     52 H19         6.9237   -1.0508    1.2897 H       1  NONAME1     0.0480
     53 H20         6.1466   -0.6058   -0.2289 H       1  NONAME1     0.0480
     54 H21         8.1317    0.7252    0.2436 H       1  NONAME1     0.0479
     55 H22         8.2695   -0.1271   -1.3079 H       1  NONAME1     0.0479
     56 H23         9.8048    1.8545    0.2213 H       1  NONAME1     0.0636
     57 H24        11.8318    3.1538    0.1399 H       1  NONAME1     0.0625
@<TRIPOS>BOND
     1     1     2    1
     2     2     3    2
     3     2     4    1
     4     4     5   ar
     5     5     6   ar
     6     6     7   ar
     7     7     8    1
     8     8     9    1
     9     9    10    1
    10    10    11    1
    11    11    12   am
    12    12    13    2
    13    12    14    1
    14    14    15   ar
    15    15    16   ar
    16    16    17   ar
    17    17    18    1
    18    18    19   am
    19    19    20    2
    20    19    21   am
    21    21    22    1
    22    22    23   ar
    23    23    24   ar
    24    24    25   ar
    25    25    26   ar
    26    26    27    1
    27    26    28   ar
    28    22    28   ar
    29    17    29   ar
    30    14    29   ar
    31    11    30    1
    32    30    31    1
    33     8    31    1
    34     7    32   ar
    35    32    33   ar
    36     4    33   ar
    37     1    34    1
    38     1    35    1
    39     1    36    1
    40     5    37    1
    41     6    38    1
    42     9    39    1
    43     9    40    1
    44    10    41    1
    45    10    42    1
    46    15    43    1
    47    21    44    1
    48    23    45    1
    49    24    46    1
    50    25    47    1
    51    27    48    1
    52    27    49    1
    53    27    50    1
    54    28    51    1
    55    30    52    1
    56    30    53    1
    57    31    54    1
    58    31    55    1
    59    32    56    1
    60    33    57    1
