REMARK  9 active torsions:
REMARK  status: ('A' for Active; 'I' for Inactive)
REMARK    1  A    between atoms: C1_2  and  C2_3 
REMARK       I    between atoms: C1_2  and  N6_20 
REMARK    2  A    between atoms: C2_3  and  S1_4 
REMARK    3  A    between atoms: S1_4  and  C3_5 
REMARK    4  A    between atoms: C4_8  and  N3_9 
REMARK    5  A    between atoms: N4_10  and  N3_9 
REMARK    6  A    between atoms: C5_11  and  C6_12 
REMARK    7  A    between atoms: C11_17  and  O2_18 
REMARK    8  A    between atoms: N6_20  and  C12_21 
REMARK    9  A    between atoms: C12_21  and  C13_22 
ROOT
ATOM      1  C3  NON d   1       2.633  -7.926  -0.009  0.00  0.00     0.203 A 
ATOM      2  N1  NON d   1       2.651  -9.172  -0.407  0.00  0.00    -0.108 NA
ATOM      3  N2  NON d   1       1.339  -9.606  -0.432  0.00  0.00     0.046 NA
ATOM      4  C4  NON d   1       0.558  -8.614  -0.049  0.00  0.00     0.741 A 
ATOM      5  N5  NON d   1       1.351  -7.527   0.210  0.00  0.00    -0.162 N 
ATOM      6  H10 NON d   1       1.058  -6.619   0.528  0.00  0.00     0.186 HD
ENDROOT
BRANCH   1   7
ATOM      7  S1  NON d   1       3.939  -6.825   0.187  0.00  0.00    -0.081 SA
BRANCH   7   8
ATOM      8  C2  NON d   1       5.377  -7.927   0.040  0.00  0.00     0.185 C 
BRANCH   8   9
ATOM      9  C1  NON d   1       5.705  -8.660   1.336  0.00  0.00     0.227 C 
ATOM     10  O1  NON d   1       5.129  -8.477   2.405  0.00  0.00    -0.273 OA
ATOM     11  N6  NON d   1       6.776  -9.537   1.209  0.00  0.00    -0.356 N 
ATOM     12  H11 NON d   1       6.986  -9.886   0.284  0.00  0.00     0.162 HD
BRANCH  11  13
ATOM     13  C12 NON d   1       7.143 -10.370   2.334  0.00  0.00     0.161 C 
BRANCH  13  14
ATOM     14  C13 NON d   1       8.476 -11.076   2.224  0.00  0.00    -0.041 A 
ATOM     15  C14 NON d   1       8.799 -12.015   3.222  0.00  0.00     0.009 A 
ATOM     16  C15 NON d   1      10.017 -12.698   3.207  0.00  0.00     0.001 A 
ATOM     17  C16 NON d   1      10.935 -12.455   2.191  0.00  0.00     0.000 A 
ATOM     18  C17 NON d   1      10.638 -11.522   1.199  0.00  0.00     0.001 A 
ATOM     19  C18 NON d   1       9.421 -10.830   1.219  0.00  0.00     0.009 A 
ENDBRANCH  13  14
ENDBRANCH  11  13
ENDBRANCH   8   9
ENDBRANCH   7   8
ENDBRANCH   1   7
BRANCH   4  20
ATOM     20  N3  NON d   1      -0.789  -8.526   0.121  0.00  0.00    -0.106 N 
ATOM     21  H3  NON d   1      -1.192  -7.596   0.232  0.00  0.00     0.208 HD
BRANCH  20  22
ATOM     22  N4  NON d   1      -1.748  -9.500  -0.005  0.00  0.00    -0.171 NA
ATOM     23  C5  NON d   1      -1.384 -10.741   0.103  0.00  0.00     0.153 C 
BRANCH  23  24
ATOM     24  C6  NON d   1      -2.359 -11.850   0.018  0.00  0.00     0.016 A 
ATOM     25  C7  NON d   1      -1.850 -13.155   0.031  0.00  0.00     0.016 A 
ATOM     26  C8  NON d   1      -2.722 -14.246  -0.002  0.00  0.00     0.001 A 
ATOM     27  C9  NON d   1      -4.100 -14.036  -0.045  0.00  0.00     0.003 A 
ATOM     28  C10 NON d   1      -4.611 -12.737  -0.064  0.00  0.00     0.037 A 
ATOM     29  C11 NON d   1      -3.743 -11.646  -0.038  0.00  0.00     0.077 A 
BRANCH  29  30
ATOM     30  O2  NON d   1      -4.319 -10.406  -0.060  0.00  0.00    -0.360 OA
ATOM     31  H9  NON d   1      -3.583  -9.753  -0.075  0.00  0.00     0.217 HD
ENDBRANCH  29  30
ENDBRANCH  23  24
ENDBRANCH  20  22
ENDBRANCH   4  20
TORSDOF 9
