REMARK  9 active torsions:
REMARK  status: ('A' for Active; 'I' for Inactive)
REMARK    1  A    between atoms: O1_2  and  C2_3 
REMARK    2  A    between atoms: C2_3  and  C3_5 
REMARK    3  A    between atoms: C7_9  and  C8_10 
REMARK       I    between atoms: C8_10  and  N1_12 
REMARK    4  A    between atoms: N1_12  and  C9_13 
REMARK    5  A    between atoms: C9_13  and  N2_15 
REMARK    6  A    between atoms: N2_15  and  N3_16 
REMARK       I    between atoms: N3_16  and  C10_17 
REMARK    7  A    between atoms: C10_17  and  C11_19 
REMARK    8  A    between atoms: C14_22  and  N4_23 
REMARK       I    between atoms: N4_23  and  C15_24 
REMARK    9  A    between atoms: C15_24  and  C16_26 
ROOT
ATOM      1  N3  NON d   1       9.623 -14.915   0.052  0.00  0.00    -0.264 N 
ATOM      2  C10 NON d   1      10.765 -14.129   0.020  0.00  0.00     0.270 C 
ATOM      3  O4  NON d   1      10.694 -12.900  -0.022  0.00  0.00    -0.266 OA
ATOM      4  H9  NON d   1       9.627 -15.931   0.056  0.00  0.00     0.190 HD
ENDROOT
BRANCH   1   5
ATOM      5  N2  NON d   1       8.322 -14.320   0.050  0.00  0.00    -0.273 N 
ATOM      6  H8  NON d   1       8.315 -13.308  -0.054  0.00  0.00     0.189 HD
BRANCH   5   7
ATOM      7  C9  NON d   1       7.187 -15.144   0.032  0.00  0.00     0.193 C 
ATOM      8  S1  NON d   1       7.352 -16.822   0.068  0.00  0.00    -0.039 SA
BRANCH   7   9
ATOM      9  N1  NON d   1       5.975 -14.424  -0.004  0.00  0.00    -0.298 N 
ATOM     10  C8  NON d   1       4.668 -14.944  -0.059  0.00  0.00     0.257 C 
ATOM     11  O3  NON d   1       4.415 -16.142  -0.169  0.00  0.00    -0.267 OA
ATOM     12  H7  NON d   1       6.070 -13.425   0.060  0.00  0.00     0.171 HD
BRANCH  10  13
ATOM     13  C7  NON d   1       3.476 -14.021  -0.011  0.00  0.00     0.033 A 
ATOM     14  C6  NON d   1       3.542 -12.624  -0.003  0.00  0.00     0.017 A 
ATOM     15  C5  NON d   1       2.360 -11.862   0.019  0.00  0.00     0.002 A 
ATOM     16  C4  NON d   1       1.103 -12.478   0.032  0.00  0.00     0.017 A 
ATOM     17  C3  NON d   1       1.012 -13.871   0.028  0.00  0.00     0.040 A 
ATOM     18  C25 NON d   1       2.197 -14.627   0.009  0.00  0.00     0.034 A 
BRANCH  17  19
ATOM     19  C2  NON d   1      -0.294 -14.596   0.055  0.00  0.00     0.292 C 
ATOM     20  O2  NON d   1      -0.387 -15.806   0.183  0.00  0.00    -0.259 OA
BRANCH  19  21
ATOM     21  O1  NON d   1      -1.335 -13.734  -0.082  0.00  0.00    -0.323 OA
ATOM     22  C1  NON d   1      -2.630 -14.348  -0.067  0.00  0.00     0.213 C 
ENDBRANCH  19  21
ENDBRANCH  17  19
ENDBRANCH  10  13
ENDBRANCH   7   9
ENDBRANCH   5   7
ENDBRANCH   1   5
BRANCH   2  23
ATOM     23  C11 NON d   1      12.112 -14.830   0.036  0.00  0.00     0.033 A 
ATOM     24  C12 NON d   1      13.280 -14.053  -0.036  0.00  0.00     0.019 A 
ATOM     25  C13 NON d   1      14.571 -14.638  -0.020  0.00  0.00     0.030 A 
ATOM     26  C14 NON d   1      14.743 -16.020   0.078  0.00  0.00     0.035 A 
ATOM     27  C23 NON d   1      13.573 -16.797   0.151  0.00  0.00     0.030 A 
ATOM     28  C24 NON d   1      12.279 -16.218   0.128  0.00  0.00     0.019 A 
BRANCH  26  29
ATOM     29  N4  NON d   1      16.006 -16.701   0.113  0.00  0.00    -0.323 N 
ATOM     30  C15 NON d   1      17.289 -16.154  -0.005  0.00  0.00     0.256 C 
ATOM     31  O5  NON d   1      17.470 -14.943  -0.140  0.00  0.00    -0.267 OA
ATOM     32  H12 NON d   1      15.922 -17.690   0.255  0.00  0.00     0.169 HD
BRANCH  30  33
ATOM     33  C16 NON d   1      18.562 -17.050   0.022  0.00  0.00     0.038 A 
ATOM     34  C17 NON d   1      19.773 -16.331   0.036  0.00  0.00     0.017 A 
ATOM     35  C18 NON d   1      21.014 -16.977   0.020  0.00  0.00     0.001 A 
ATOM     36  C19 NON d   1      21.084 -18.367  -0.019  0.00  0.00     0.001 A 
ATOM     37  C20 NON d   1      19.916 -19.124  -0.033  0.00  0.00     0.007 A 
ATOM     38  C21 NON d   1      18.672 -18.480   0.000  0.00  0.00    -0.046 A 
ATOM     39  C22 NON d   1      17.338 -19.250   0.000  0.00  0.00     0.049 C 
ENDBRANCH  30  33
ENDBRANCH  26  29
ENDBRANCH   2  23
TORSDOF 9
