REMARK  7 active torsions:
REMARK  status: ('A' for Active; 'I' for Inactive)
REMARK    1  A    between atoms: O1_2  and  C2_3 
REMARK    2  A    between atoms: C2_3  and  C3_5 
REMARK    3  A    between atoms: C3_5  and  N1_8 
REMARK    4  A    between atoms: N1_8  and  C6_9 
REMARK    5  A    between atoms: C6_9  and  C7_10 
REMARK    6  A    between atoms: C11_14  and  O3_15 
REMARK    7  A    between atoms: O3_15  and  C12_16 
ROOT
ATOM      1  C7  NON d   1       1.390   2.471  -0.378  0.00  0.00    -0.028 A 
ATOM      2  C8  NON d   1       2.527   1.685  -0.159  0.00  0.00     0.009 A 
ATOM      3  C9  NON d   1       2.453   0.291  -0.160  0.00  0.00     0.003 A 
ATOM      4  C10 NON d   1       1.231  -0.348  -0.384  0.00  0.00     0.037 A 
ATOM      5  C11 NON d   1       0.088   0.415  -0.586  0.00  0.00     0.075 A 
ATOM      6  C13 NON d   1       0.163   1.812  -0.597  0.00  0.00     0.045 A 
ENDROOT
BRANCH   1   7
ATOM      7  C6  NON d   1       1.404   3.986  -0.441  0.00  0.00     0.310 C 
BRANCH   7   8
ATOM      8  N1  NON d   1       2.667   4.620   0.000  0.00  0.00     0.106 N 
ATOM      9  H10 NON d   1       3.050   4.216   0.853  0.00  0.00     0.317 HD
BRANCH   8  10
ATOM     10  C3  NON d   1       2.667   6.160   0.000  0.00  0.00     0.237 C 
ATOM     11  C4  NON d   1       1.912   6.160   1.342  0.00  0.00     0.060 C 
ATOM     12  C5  NON d   1       3.423   6.160  -1.342  0.00  0.00     0.060 C 
BRANCH  10  13
ATOM     13  C2  NON d   1       2.667   7.700   0.000  0.00  0.00     0.296 C 
ATOM     14  O2  NON d   1       2.145   8.443   0.838  0.00  0.00    -0.262 OA
BRANCH  13  15
ATOM     15  O1  NON d   1       3.322   8.470  -1.162  0.00  0.00    -0.324 OA
ATOM     16  C1  NON d   1       3.322  10.010  -1.162  0.00  0.00     0.213 C 
ENDBRANCH  13  15
ENDBRANCH  10  13
ENDBRANCH   8  10
ENDBRANCH   7   8
ENDBRANCH   1   7
BRANCH   5  17
ATOM     17  O3  NON d   1      -1.078  -0.232  -0.887  0.00  0.00    -0.290 OA
BRANCH  17  18
ATOM     18  C12 NON d   1      -2.009  -0.141   0.186  0.00  0.00     0.505 C 
ATOM     19  F1  NON d   1      -3.024  -0.998  -0.091  0.00  0.00    -0.184 F 
ATOM     20  F2  NON d   1      -2.551   1.102   0.207  0.00  0.00    -0.184 F 
ENDBRANCH  17  18
ENDBRANCH   5  17
TORSDOF 7
