REMARK  4 active torsions:
REMARK  status: ('A' for Active; 'I' for Inactive)
REMARK    1  A    between atoms: N1_6  and  C6_7 
REMARK    2  A    between atoms: C6_7  and  C7_8 
REMARK    3  A    between atoms: C14_17  and  C15_18 
REMARK    4  A    between atoms: C19_22  and  N2_23 
ROOT
ATOM      1  C7  NON d   1       6.229   2.430   0.231  0.00  0.00     0.052 A 
ATOM      2  C8  NON d   1       7.444   1.705   0.413  0.00  0.00     0.182 A 
ATOM      3  O1  NON d   1       8.558   2.280   0.646  0.00  0.00    -0.288 OA
ATOM      4  C9  NON d   1       7.358   0.278   0.344  0.00  0.00     0.056 A 
ATOM      5  C10 NON d   1       6.167  -0.429   0.157  0.00  0.00     0.022 A 
ATOM      6  C11 NON d   1       5.027   0.318   0.044  0.00  0.00     0.052 A 
ATOM      7  C12 NON d   1       5.041   1.709   0.078  0.00  0.00     0.102 A 
ATOM      8  O2  NON d   1       3.770   2.247  -0.007  0.00  0.00    -0.305 OA
ATOM      9  C13 NON d   1       2.891   1.169  -0.072  0.00  0.00     0.127 A 
ATOM     10  C14 NON d   1       1.548   1.204  -0.090  0.00  0.00     0.053 C 
ATOM     11  C21 NON d   1       3.640  -0.116  -0.078  0.00  0.00     0.218 A 
ATOM     12  O5  NON d   1       3.205  -1.246  -0.146  0.00  0.00    -0.284 OA
ENDROOT
BRANCH  10  13
ATOM     13  C15 NON d   1       0.646   2.370  -0.054  0.00  0.00    -0.031 A 
ATOM     14  C16 NON d   1      -0.742   2.147  -0.074  0.00  0.00     0.011 A 
ATOM     15  C17 NON d   1      -1.653   3.211  -0.044  0.00  0.00     0.003 A 
ATOM     16  C18 NON d   1      -1.192   4.524   0.007  0.00  0.00     0.036 A 
ATOM     17  C19 NON d   1       0.186   4.759   0.032  0.00  0.00     0.103 A 
ATOM     18  C20 NON d   1       1.098   3.692   0.002  0.00  0.00     0.047 A 
BRANCH  17  19
ATOM     19  N2  NON d   1       0.696   6.134   0.089  0.00  0.00    -0.116 N 
ATOM     20  O3  NON d   1      -0.130   7.057   0.102  0.00  0.00    -0.532 OA
ATOM     21  O4  NON d   1       1.927   6.293   0.120  0.00  0.00    -0.532 OA
ENDBRANCH  17  19
ENDBRANCH  10  13
BRANCH   1  22
ATOM     22  C6  NON d   1       6.183   3.950   0.293  0.00  0.00     0.280 C 
BRANCH  22  23
ATOM     23  N1  NON d   1       7.524   4.676   0.218  0.00  0.00    -0.067 N 
ATOM     24  C5  NON d   1       7.994   4.928  -1.177  0.00  0.00     0.235 C 
ATOM     25  C4  NON d   1       9.420   5.478  -1.171  0.00  0.00     0.028 C 
ATOM     26  C3  NON d   1       9.594   6.695  -0.250  0.00  0.00     0.007 C 
ATOM     27  C2  NON d   1       9.128   6.342   1.162  0.00  0.00     0.007 C 
ATOM     28  C1  NON d   1       9.467   7.293   2.324  0.00  0.00     0.011 C 
ATOM     29  C22 NON d   1       7.667   5.836   1.153  0.00  0.00     0.239 C 
ATOM     30  H11 NON d   1       8.155   3.894   0.559  0.00  0.00     0.280 HD
ENDBRANCH  22  23
ENDBRANCH   1  22
TORSDOF 4
