@<TRIPOS>MOLECULE
*****
 33 34 0 0 0
SMALL
USER_CHARGES

@<TRIPOS>ATOM
      1 C1          0.0000   -4.6200    0.0000 C.3     1  NONAME1    -0.0598
      2 C2          0.0000   -3.0800    0.0000 C.3     1  NONAME1    -0.0112
      3 C3          1.3886   -2.4125    0.0310 C.2     1  NONAME1     0.0662
      4 N1          2.5640   -2.9765    0.0719 N.2     1  NONAME1    -0.1840
      5 N2          2.7818   -4.3083    0.1620 N.am    1  NONAME1    -0.2023
      6 C4          4.0631   -4.8309    0.0030 C.2     1  NONAME1     0.2699
      7 O1          5.0527   -4.1312   -0.2079 O.2     1  NONAME1    -0.2679
      8 C5          4.1553   -6.2910    0.0860 C.ar    1  NONAME1     0.0755
      9 C6          5.3076   -7.0529   -0.0147 C.ar    1  NONAME1    -0.0424
     10 C7          5.0536   -8.4539    0.0582 C.ar    1  NONAME1    -0.0540
     11 C8          3.7142   -8.7241    0.2176 C.ar    1  NONAME1    -0.0236
     12 S1          2.7829   -7.2955    0.2981 S.2     1  NONAME1    -0.0921
     13 C9          1.4025   -0.8945    0.0011 C.ar    1  NONAME1    -0.0020
     14 C10         0.2290   -0.1290    0.0119 C.ar    1  NONAME1    -0.0494
     15 C11         0.2969    1.2685    0.0004 C.ar    1  NONAME1    -0.0196
     16 C12         1.5319    1.9050   -0.0207 C.ar    1  NONAME1     0.1169
     17 O2          1.5458    3.2674   -0.0280 O.3     1  NONAME1    -0.5068
     18 C13         2.7085    1.1689   -0.0322 C.ar    1  NONAME1    -0.0196
     19 C14         2.6415   -0.2272   -0.0213 C.ar    1  NONAME1    -0.0494
     20 H1         -1.1037   -4.7173    0.0644 H       1  NONAME1     0.0233
     21 H2          0.0000   -6.1600    0.0000 H       1  NONAME1     0.0233
     22 H3          0.2925   -4.7205   -1.0670 H       1  NONAME1     0.0233
     23 H4         -0.5259   -2.7488    0.9046 H       1  NONAME1     0.0326
     24 H5         -0.5495   -2.7113   -0.8752 H       1  NONAME1     0.0326
     25 H6          2.0537   -4.9437    0.4436 H       1  NONAME1     0.1776
     26 H7          6.2901   -6.6139   -0.1490 H       1  NONAME1     0.0630
     27 H8          5.8142   -9.2227   -0.0105 H       1  NONAME1     0.0623
     28 H9          3.2380   -9.6932    0.2919 H       1  NONAME1     0.0693
     29 H10        -0.7545   -0.5858    0.0345 H       1  NONAME1     0.0625
     30 H11        -0.6146    1.8604    0.0102 H       1  NONAME1     0.0654
     31 H12         2.4698    3.5682   -0.0426 H       1  NONAME1     0.2921
     32 H13         3.6813    1.6507   -0.0471 H       1  NONAME1     0.0654
     33 H14         3.5738   -0.7917   -0.0285 H       1  NONAME1     0.0625
@<TRIPOS>BOND
     1     1     2    1
     2     2     3    1
     3     3     4    2
     4     4     5    1
     5     5     6   am
     6     6     7    2
     7     6     8    1
     8     8     9   ar
     9     9    10   ar
    10    10    11   ar
    11    11    12   ar
    12     8    12   ar
    13     3    13    1
    14    13    14   ar
    15    14    15   ar
    16    15    16   ar
    17    16    17    1
    18    16    18   ar
    19    18    19   ar
    20    13    19   ar
    21     1    20    1
    22     1    21    1
    23     1    22    1
    24     2    23    1
    25     2    24    1
    26     5    25    1
    27     9    26    1
    28    10    27    1
    29    11    28    1
    30    14    29    1
    31    15    30    1
    32    17    31    1
    33    18    32    1
    34    19    33    1
