@<TRIPOS>MOLECULE
*****
 54 55 0 0 0
SMALL
USER_CHARGES

@<TRIPOS>ATOM
      1 C1         -5.7293   -0.5689   -0.0979 C.3     1  NONAME1    -0.0306
      2 C2         -4.2519   -0.2404   -0.1763 C.3     1  NONAME1     0.0900
      3 O1         -3.4968   -1.4589   -0.1132 O.3     1  NONAME1    -0.4611
      4 C3         -2.1471   -1.2649   -0.2188 C.2     1  NONAME1     0.3462
      5 O2         -1.6455   -0.1540   -0.3621 O.2     1  NONAME1    -0.2444
      6 C4         -1.4139   -2.5278   -0.1330 C.ar    1  NONAME1     0.1016
      7 S1          0.2901   -2.4220   -0.2942 S.2     1  NONAME1    -0.0659
      8 C5          0.5128   -4.0740   -0.0825 C.ar    1  NONAME1     0.0869
      9 N1          1.7800   -4.6318   -0.0974 N.am    1  NONAME1    -0.2765
     10 C6          3.0194   -4.0110   -0.1757 C.2     1  NONAME1     0.2552
     11 O3          3.2429   -2.8104   -0.2709 O.2     1  NONAME1    -0.2717
     12 C7          4.1276   -5.0744   -0.0969 C.3     1  NONAME1     0.1655
     13 O4          5.4212   -4.5531   -0.2572 O.3     1  NONAME1    -0.4822
     14 C8          6.5304   -5.3394   -0.0917 C.ar    1  NONAME1     0.1270
     15 C9          7.7155   -4.5647   -0.0200 C.ar    1  NONAME1    -0.0085
     16 C10         7.6633   -3.0574   -0.0706 C.3     1  NONAME1    -0.0362
     17 C11         8.9676   -5.1882    0.0521 C.ar    1  NONAME1    -0.0554
     18 C12         9.0587   -6.5708    0.0843 C.ar    1  NONAME1    -0.0610
     19 C13         7.8983   -7.3373    0.0506 C.ar    1  NONAME1    -0.0554
     20 C14         6.6179   -6.7471   -0.0332 C.ar    1  NONAME1    -0.0085
     21 C15         5.4662   -7.7120   -0.0892 C.3     1  NONAME1    -0.0362
     22 C16        -0.6756   -4.7662    0.1176 C.ar    1  NONAME1     0.0911
     23 C17        -0.7053   -6.2137    0.4116 C.2     1  NONAME1     0.3418
     24 O5         -1.6261   -6.7815    0.9866 O.2     1  NONAME1    -0.2449
     25 O6          0.4599   -6.8455    0.0534 O.3     1  NONAME1    -0.4614
     26 C18         0.7344   -8.1228    0.6475 C.3     1  NONAME1     0.0900
     27 C19         0.1643   -9.2627   -0.1678 C.3     1  NONAME1    -0.0306
     28 C20        -1.8221   -3.8508    0.0654 C.ar    1  NONAME1    -0.0135
     29 C21        -3.2566   -4.2730    0.2124 C.3     1  NONAME1    -0.0376
     30 H1         -6.3312    0.3431   -0.1556 H       1  NONAME1     0.0262
     31 H2         -5.9615   -1.0854    0.8388 H       1  NONAME1     0.0262
     32 H3         -6.0206   -1.2363   -0.9150 H       1  NONAME1     0.0262
     33 H4         -3.9762    0.4059    0.6655 H       1  NONAME1     0.0695
     34 H5         -4.0445    0.2772   -1.1202 H       1  NONAME1     0.0695
     35 H6          1.7864   -5.6436   -0.0263 H       1  NONAME1     0.1554
     36 H7          3.9163   -5.7868   -0.8997 H       1  NONAME1     0.0795
     37 H8          4.0305   -5.5367    0.8915 H       1  NONAME1     0.0795
     38 H9          8.5869   -2.6177    0.3211 H       1  NONAME1     0.0279
     39 H10         7.5281   -2.7217   -1.1031 H       1  NONAME1     0.0279
     40 H11         6.8469   -2.6702    0.5483 H       1  NONAME1     0.0279
     41 H12         9.8772   -4.5931    0.0774 H       1  NONAME1     0.0621
     42 H13        10.0308   -7.0534    0.1322 H       1  NONAME1     0.0618
     43 H14         8.0030   -8.4210    0.0764 H       1  NONAME1     0.0621
     44 H15         4.7569   -7.5322    0.7221 H       1  NONAME1     0.0279
     45 H16         4.9685   -7.6654   -1.0615 H       1  NONAME1     0.0279
     46 H17         5.7997   -8.7486    0.0404 H       1  NONAME1     0.0279
     47 H18         0.3919   -8.1508    1.6877 H       1  NONAME1     0.0695
     48 H19         1.8260   -8.2113    0.6695 H       1  NONAME1     0.0695
     49 H20        -0.9276   -9.2770   -0.1083 H       1  NONAME1     0.0262
     50 H21         0.4334   -9.1646   -1.2242 H       1  NONAME1     0.0262
     51 H22         0.5431  -10.2196    0.2050 H       1  NONAME1     0.0262
     52 H23        -3.7135   -3.7832    1.0781 H       1  NONAME1     0.0278
     53 H24        -3.8215   -4.0054   -0.6871 H       1  NONAME1     0.0278
     54 H25        -3.3763   -5.3486    0.3460 H       1  NONAME1     0.0278
@<TRIPOS>BOND
     1     1     2    1
     2     2     3    1
     3     3     4    1
     4     4     5    2
     5     4     6    1
     6     6     7   ar
     7     7     8   ar
     8     8     9    1
     9     9    10   am
    10    10    11    2
    11    10    12    1
    12    12    13    1
    13    13    14    1
    14    14    15   ar
    15    15    16    1
    16    15    17   ar
    17    17    18   ar
    18    18    19   ar
    19    19    20   ar
    20    14    20   ar
    21    20    21    1
    22     8    22   ar
    23    22    23    1
    24    23    24    2
    25    23    25    1
    26    25    26    1
    27    26    27    1
    28    22    28   ar
    29     6    28   ar
    30    28    29    1
    31     1    30    1
    32     1    31    1
    33     1    32    1
    34     2    33    1
    35     2    34    1
    36     9    35    1
    37    12    36    1
    38    12    37    1
    39    16    38    1
    40    16    39    1
    41    16    40    1
    42    17    41    1
    43    18    42    1
    44    19    43    1
    45    21    44    1
    46    21    45    1
    47    21    46    1
    48    26    47    1
    49    26    48    1
    50    27    49    1
    51    27    50    1
    52    27    51    1
    53    29    52    1
    54    29    53    1
    55    29    54    1
