@<TRIPOS>MOLECULE
*****
 43 45 0 0 0
SMALL
USER_CHARGES

@<TRIPOS>ATOM
      1 N1          4.5788   -4.7409   -1.0045 N.1     1  NONAME1    -0.1907
      2 C1          3.5411   -4.5034   -0.5384 C.1     1  NONAME1     0.1045
      3 C2          2.2597   -4.2364    0.0206 C.2     1  NONAME1     0.1171
      4 C3          1.3024   -5.1576    0.2599 C.2     1  NONAME1     0.0031
      5 C4          1.4472   -6.5798    0.0790 C.ar    1  NONAME1     0.1300
      6 C5          2.5869   -7.3789    0.0110 C.ar    1  NONAME1    -0.0158
      7 C6          2.1926   -8.7286   -0.0761 C.ar    1  NONAME1    -0.0153
      8 C7          0.8178   -8.7446   -0.0417 C.ar    1  NONAME1     0.1357
      9 C8         -0.1525   -9.8479   -0.0480 C.ar    1  NONAME1     0.0174
     10 C9          0.3134  -11.1792   -0.0524 C.ar    1  NONAME1    -0.0489
     11 C10        -0.5644  -12.2703   -0.0438 C.ar    1  NONAME1    -0.0308
     12 C11        -1.9407  -12.0394   -0.0310 C.ar    1  NONAME1     0.1262
     13 N2         -2.8658  -13.1816   -0.0128 N.pl3   1  NONAME1     0.0564
     14 O1         -4.0807  -12.9385   -0.0028 O.2     1  NONAME1    -0.1261
     15 O2         -2.3777  -14.3205   -0.0073 O.2     1  NONAME1    -0.1261
     16 C12        -2.4328  -10.7287   -0.0284 C.ar    1  NONAME1    -0.0308
     17 C13        -1.5395   -9.6416   -0.0368 C.ar    1  NONAME1    -0.0489
     18 O3          0.3588   -7.4523    0.0438 O.2     1  NONAME1    -0.4554
     19 C14         2.1078   -2.8379    0.5232 C.2     1  NONAME1     0.2587
     20 O4          2.7332   -2.5001    1.5255 O.2     1  NONAME1    -0.2691
     21 N3          1.2544   -2.0078   -0.1810 N.am    1  NONAME1    -0.2797
     22 C15         1.2937   -0.5827   -0.0718 C.ar    1  NONAME1     0.0527
     23 C16         0.0711    0.1164   -0.0807 C.ar    1  NONAME1    -0.0274
     24 C17         0.0000    1.5400    0.0000 C.ar    1  NONAME1     0.0566
     25 C18        -1.3337    2.3100    0.0000 C.3     1  NONAME1     0.4175
     26 F1         -2.6674    3.0800    0.0000 F       1  NONAME1    -0.1659
     27 F2         -0.9332    3.1434   -1.0946 F       1  NONAME1    -0.1659
     28 F3         -2.0517    1.2615   -0.6664 F       1  NONAME1    -0.1659
     29 C19         1.2074    2.2444    0.1175 C.ar    1  NONAME1    -0.0486
     30 C20         2.4305    1.5693    0.0823 C.ar    1  NONAME1    -0.0411
     31 C21         2.4815    0.1724   -0.0300 C.ar    1  NONAME1     0.0622
     32 Cl1         4.0479   -0.5054   -0.3306 Cl      1  NONAME1    -0.0816
     33 H1          0.3580   -4.8460    0.6980 H       1  NONAME1     0.0669
     34 H2          3.6151   -7.0490    0.0607 H       1  NONAME1     0.0655
     35 H3          2.8481   -9.5864   -0.1237 H       1  NONAME1     0.0656
     36 H4          1.3806  -11.3930   -0.0590 H       1  NONAME1     0.0625
     37 H5         -0.1556  -13.2774   -0.0451 H       1  NONAME1     0.0640
     38 H6         -3.5046  -10.5360   -0.0156 H       1  NONAME1     0.0640
     39 H7         -1.9421   -8.6307   -0.0299 H       1  NONAME1     0.0625
     40 H8          0.4647   -2.4225   -0.6602 H       1  NONAME1     0.1552
     41 H9         -0.8537   -0.4580   -0.1358 H       1  NONAME1     0.0642
     42 H10         1.2083    3.3326    0.1787 H       1  NONAME1     0.0623
     43 H11         3.3539    2.1462    0.0980 H       1  NONAME1     0.0633
@<TRIPOS>BOND
     1     1     2    3
     2     2     3    1
     3     3     4    2
     4     4     5    1
     5     5     6   ar
     6     6     7   ar
     7     7     8   ar
     8     8     9    1
     9     9    10   ar
    10    10    11   ar
    11    11    12   ar
    12    12    13    1
    13    13    14    2
    14    13    15    1
    15    12    16   ar
    16    16    17   ar
    17     9    17   ar
    18     8    18   ar
    19     5    18   ar
    20     3    19    1
    21    19    20    2
    22    19    21   am
    23    21    22    1
    24    22    23   ar
    25    23    24   ar
    26    24    25    1
    27    25    26    1
    28    25    27    1
    29    25    28    1
    30    24    29   ar
    31    29    30   ar
    32    30    31   ar
    33    22    31   ar
    34    31    32    1
    35     4    33    1
    36     6    34    1
    37     7    35    1
    38    10    36    1
    39    11    37    1
    40    16    38    1
    41    17    39    1
    42    21    40    1
    43    23    41    1
    44    29    42    1
    45    30    43    1
