@<TRIPOS>MOLECULE
*****
 59 61 0 0 0
SMALL
USER_CHARGES

@<TRIPOS>ATOM
      1 C1         14.0237   -4.6735   -0.0225 C.3     1  NONAME1    -0.0306
      2 C2         14.3194   -6.1656   -0.0381 C.3     1  NONAME1     0.0900
      3 O1         15.6800   -6.3769    0.3647 O.3     1  NONAME1    -0.4612
      4 C3         16.5371   -6.9042   -0.5524 C.2     1  NONAME1     0.3509
      5 O2         16.2487   -7.3483   -1.6551 O.2     1  NONAME1    -0.2445
      6 C4         17.9254   -6.7256   -0.0504 C.2     1  NONAME1     0.1960
      7 C5         18.4016   -5.3056   -0.0714 C.2     1  NONAME1     0.2079
      8 O3         17.5908   -4.3773   -0.0183 O.2     1  NONAME1    -0.2861
      9 C6         19.8316   -4.9272   -0.1878 C.ar    1  NONAME1     0.0228
     10 C7         20.2086   -3.6755    0.3293 C.ar    1  NONAME1    -0.0509
     11 C8         21.5286   -3.2376    0.2408 C.ar    1  NONAME1    -0.0611
     12 C9         22.4848   -4.0460   -0.3658 C.ar    1  NONAME1    -0.0617
     13 C10        22.1153   -5.2819   -0.9028 C.ar    1  NONAME1    -0.0611
     14 C11        20.7886   -5.7150   -0.8320 C.ar    1  NONAME1    -0.0509
     15 C12        18.5418   -7.8198    0.4791 C.2     1  NONAME1     0.3343
     16 N1         19.7368   -7.7537    1.1901 N.pl3   1  NONAME1    -0.2457
     17 N2         17.8717   -9.0234    0.4324 N.pl3   1  NONAME1     0.0260
     18 C13        18.4746  -10.1715    0.2788 C.cat   1  NONAME1     0.4318
     19 N3         17.6537  -11.2533    0.2882 N.pl3   1  NONAME1    -0.2807
     20 N4         19.8059  -10.4304    0.1365 N.pl3   1  NONAME1    -0.2031
     21 C14        20.5191  -11.6332    0.0566 C.ar    1  NONAME1     0.2934
     22 N5         21.8631  -11.4880    0.0271 N.ar    1  NONAME1    -0.2028
     23 C15        22.5768  -12.6221    0.0000 C.ar    1  NONAME1     0.0525
     24 C16        24.1168  -12.6221    0.0000 C.3     1  NONAME1    -0.0215
     25 C17        21.9210  -14.0016    0.0030 C.ar    1  NONAME1     0.0219
     26 C18        22.5209  -15.3417    0.0057 C.ar    1  NONAME1    -0.0477
     27 C19        21.8068  -16.6231    0.0000 C.ar    1  NONAME1    -0.0468
     28 C20        22.5768  -17.9568    0.0000 C.3     1  NONAME1    -0.0394
     29 C21        20.2668  -16.6231    0.0000 C.ar    1  NONAME1    -0.0455
     30 C22        19.4968  -17.9568    0.0000 C.3     1  NONAME1    -0.0394
     31 C23        19.7478  -15.2920    0.0085 C.ar    1  NONAME1    -0.0323
     32 C24        20.5128  -14.0230    0.0079 C.ar    1  NONAME1     0.0781
     33 N6         19.8596  -12.8372    0.0197 N.ar    1  NONAME1    -0.1982
     34 H1         14.3116   -4.2252    0.9346 H       1  NONAME1     0.0262
     35 H2         14.5956   -4.1568   -0.8004 H       1  NONAME1     0.0262
     36 H3         12.9592   -4.4841   -0.1921 H       1  NONAME1     0.0262
     37 H4         14.0965   -6.5823   -1.0252 H       1  NONAME1     0.0695
     38 H5         13.6823   -6.6703    0.6946 H       1  NONAME1     0.0695
     39 H6         19.4650   -3.0272    0.7919 H       1  NONAME1     0.0625
     40 H7         21.8043   -2.2640    0.6381 H       1  NONAME1     0.0618
     41 H8         23.5164   -3.7122   -0.4306 H       1  NONAME1     0.0618
     42 H9         22.8645   -5.9048   -1.3860 H       1  NONAME1     0.0618
     43 H10        20.5254   -6.6661   -1.2857 H       1  NONAME1     0.0625
     44 H11        19.6971   -8.4533    1.9307 H       1  NONAME1     0.2884
     45 H12        19.8955   -6.8391    1.6108 H       1  NONAME1     0.2884
     46 H13        16.6963  -11.0201    0.0542 H       1  NONAME1     0.2555
     47 H14        18.0210  -12.0717   -0.1897 H       1  NONAME1     0.2555
     48 H15        20.4301   -9.6355    0.1623 H       1  NONAME1     0.2687
     49 H16        24.1906  -12.7327   -1.1015 H       1  NONAME1     0.0293
     50 H17        25.6568  -12.6221    0.0000 H       1  NONAME1     0.0293
     51 H18        24.2127  -11.5462    0.2505 H       1  NONAME1     0.0293
     52 H19        23.6128  -15.3780    0.0124 H       1  NONAME1     0.0627
     53 H20        22.1708  -18.2833   -0.9802 H       1  NONAME1     0.0278
     54 H21        23.3468  -19.2905    0.0000 H       1  NONAME1     0.0278
     55 H22        23.5732  -17.5160   -0.1993 H       1  NONAME1     0.0278
     56 H23        18.5001  -17.4933   -0.1402 H       1  NONAME1     0.0278
     57 H24        18.7268  -19.2905    0.0000 H       1  NONAME1     0.0278
     58 H25        19.6497  -18.1306    1.0849 H       1  NONAME1     0.0278
     59 H26        18.6615  -15.1732    0.0181 H       1  NONAME1     0.0642
@<TRIPOS>BOND
     1     1     2    1
     2     2     3    1
     3     3     4    1
     4     4     5    2
     5     6     4    1
     6     6     7    1
     7     7     8    2
     8     7     9    1
     9     9    10   ar
    10    10    11   ar
    11    11    12   ar
    12    12    13   ar
    13    13    14   ar
    14     9    14   ar
    15     6    15    2
    16    15    16    1
    17    17    15    1
    18    17    18    2
    19    18    19    1
    20    18    20    1
    21    20    21    1
    22    21    22   ar
    23    22    23   ar
    24    23    24    1
    25    23    25   ar
    26    25    26   ar
    27    26    27   ar
    28    27    28    1
    29    27    29   ar
    30    29    30    1
    31    29    31   ar
    32    31    32   ar
    33    25    32   ar
    34    32    33   ar
    35    21    33   ar
    36     1    34    1
    37     1    35    1
    38     1    36    1
    39     2    37    1
    40     2    38    1
    41    10    39    1
    42    11    40    1
    43    12    41    1
    44    13    42    1
    45    14    43    1
    46    16    44    1
    47    16    45    1
    48    19    46    1
    49    19    47    1
    50    20    48    1
    51    24    49    1
    52    24    50    1
    53    24    51    1
    54    26    52    1
    55    28    53    1
    56    28    54    1
    57    28    55    1
    58    30    56    1
    59    30    57    1
    60    30    58    1
    61    31    59    1
