@<TRIPOS>MOLECULE
*****
 42 45 0 0 0
SMALL
USER_CHARGES

@<TRIPOS>ATOM
      1 O1         -1.6006   -1.0054   -1.2862 O.2     1  NONAME1    -0.2558
      2 S1         -2.8455   -0.3623   -0.7474 S.O     1  NONAME1     0.0431
      3 C1         -3.2100   -1.0165    0.9282 C.3     1  NONAME1     0.1031
      4 C2         -2.2221   -1.9156    1.5843 C.ar    1  NONAME1     0.2400
      5 N1         -0.9046   -1.9277    1.6580 N.ar    1  NONAME1    -0.1905
      6 C3         -0.6688   -2.9488    2.5582 C.ar    1  NONAME1     0.2026
      7 C4          0.6824   -3.4025    2.9162 C.ar    1  NONAME1     0.0294
      8 C5          1.8552   -3.0113    2.2020 C.ar    1  NONAME1    -0.0439
      9 C6          2.9915   -3.6083    2.7077 C.ar    1  NONAME1    -0.0236
     10 S2          2.6518   -4.6096    4.0542 S.2     1  NONAME1    -0.1044
     11 C7          0.9758   -4.2730    3.9432 C.ar    1  NONAME1    -0.0135
     12 N2         -1.7761   -3.4924    3.0833 N.ar    1  NONAME1    -0.0560
     13 O2         -2.8016   -2.8179    2.4387 O.2     1  NONAME1    -0.3367
     14 C8         -2.4682    1.4250    0.0000 C.3     1  NONAME1     0.0851
     15 C9         -1.2402    2.4375   -0.6879 C.ar    1  NONAME1    -0.0277
     16 C10        -1.4438    3.7919   -0.9866 C.ar    1  NONAME1    -0.0571
     17 C11        -0.3612    4.7040   -1.0332 C.ar    1  NONAME1    -0.0615
     18 C12         0.9606    4.3027   -0.8351 C.ar    1  NONAME1    -0.0617
     19 C13         1.2221    2.9605   -0.6626 C.ar    1  NONAME1    -0.0615
     20 C14         0.1588    2.0574   -0.6120 C.ar    1  NONAME1    -0.0571
     21 C15        -3.8019    2.1950    0.0000 C.ar    1  NONAME1    -0.0277
     22 C16        -4.9914    1.7414   -0.6125 C.ar    1  NONAME1    -0.0571
     23 C17        -6.2027    2.4326   -0.4957 C.ar    1  NONAME1    -0.0615
     24 C18        -6.2532    3.6383    0.1832 C.ar    1  NONAME1    -0.0617
     25 C19        -5.1018    4.1216    0.7967 C.ar    1  NONAME1    -0.0615
     26 C20        -3.9118    3.3812    0.7542 C.ar    1  NONAME1    -0.0571
     27 H1         -3.4115   -0.1806    1.6096 H       1  NONAME1     0.0499
     28 H2         -4.1586   -1.5538    0.8207 H       1  NONAME1     0.0499
     29 H3          1.8629   -2.3477    1.3473 H       1  NONAME1     0.0630
     30 H4          4.0086   -3.5117    2.3507 H       1  NONAME1     0.0693
     31 H5          0.2894   -4.7262    4.6548 H       1  NONAME1     0.0700
     32 H6         -1.1345    0.6550    0.0000 H       1  NONAME1     0.0535
     33 H7         -2.4358    4.2067   -1.1307 H       1  NONAME1     0.0621
     34 H8         -0.5617    5.7623   -1.1794 H       1  NONAME1     0.0618
     35 H9          1.7741    5.0237   -0.8098 H       1  NONAME1     0.0618
     36 H10         2.2397    2.6047   -0.5154 H       1  NONAME1     0.0618
     37 H11         0.4914    1.0230   -0.4347 H       1  NONAME1     0.0621
     38 H12        -5.0460    0.8204   -1.1856 H       1  NONAME1     0.0621
     39 H13        -7.1043    2.0229   -0.9464 H       1  NONAME1     0.0618
     40 H14        -7.1825    4.1978    0.2359 H       1  NONAME1     0.0618
     41 H15        -5.1292    5.0784    1.3128 H       1  NONAME1     0.0618
     42 H16        -3.0454    3.7833    1.2789 H       1  NONAME1     0.0621
@<TRIPOS>BOND
     1     1     2    2
     2     2     3    1
     3     3     4    1
     4     4     5   ar
     5     5     6   ar
     6     6     7    1
     7     7     8   ar
     8     8     9   ar
     9     9    10   ar
    10    10    11   ar
    11     7    11   ar
    12     6    12   ar
    13    12    13   ar
    14     4    13   ar
    15     2    14    1
    16    14    15    1
    17    15    16   ar
    18    16    17   ar
    19    17    18   ar
    20    18    19   ar
    21    19    20   ar
    22    15    20   ar
    23    14    21    1
    24    21    22   ar
    25    22    23   ar
    26    23    24   ar
    27    24    25   ar
    28    25    26   ar
    29    21    26   ar
    30     3    27    1
    31     3    28    1
    32     8    29    1
    33     9    30    1
    34    11    31    1
    35    14    32    1
    36    16    33    1
    37    17    34    1
    38    18    35    1
    39    19    36    1
    40    20    37    1
    41    22    38    1
    42    23    39    1
    43    24    40    1
    44    25    41    1
    45    26    42    1
