@<TRIPOS>MOLECULE
*****
 66 68 0 0 0
SMALL
USER_CHARGES

@<TRIPOS>ATOM
      1 C1         -7.3177  -10.6409    0.1709 C.3     1  NONAME1    -0.0471
      2 C2         -6.4713   -9.3913    0.0354 C.3     1  NONAME1     0.0205
      3 N1         -5.0194   -9.4832    0.0553 N.ar    1  NONAME1    -0.3463
      4 C3         -4.2681   -8.3215    0.0987 C.ar    1  NONAME1     0.0129
      5 C4         -2.9385   -8.6281   -0.0450 C.ar    1  NONAME1     0.0021
      6 C5         -1.8192   -7.7258   -0.1530 C.2     1  NONAME1    -0.0262
      7 C6         -1.7176   -6.3756   -0.0875 C.2     1  NONAME1     0.0967
      8 N2         -2.8122   -5.5122   -0.0146 N.am    1  NONAME1    -0.2773
      9 C7         -2.8208   -4.1605    0.3274 C.2     1  NONAME1     0.2486
     10 O1         -1.8455   -3.5459    0.7467 O.2     1  NONAME1    -0.2698
     11 C8         -4.1487   -3.4294    0.2455 C.ar    1  NONAME1     0.0442
     12 C9         -5.3681   -4.0997    0.3892 C.ar    1  NONAME1    -0.0039
     13 C10        -6.5992   -3.4150    0.3215 C.ar    1  NONAME1     0.1659
     14 O2         -7.7288   -4.1418    0.6279 O.3     1  NONAME1    -0.4913
     15 C11        -8.0898   -5.0515   -0.4095 C.3     1  NONAME1     0.0790
     16 C12        -6.6698   -2.0153    0.1303 C.ar    1  NONAME1     0.2035
     17 O3         -7.9332   -1.4099    0.0000 O.3     1  NONAME1    -0.4885
     18 C13        -9.2669   -2.1799    0.0000 C.3     1  NONAME1     0.0791
     19 C14        -5.3758   -1.2752    0.0725 C.ar    1  NONAME1     0.1659
     20 O4         -5.2659    0.1301    0.0000 O.3     1  NONAME1    -0.4913
     21 C15        -3.9322    0.9001    0.0000 C.3     1  NONAME1     0.0790
     22 C16        -4.1661   -2.0209    0.1184 C.ar    1  NONAME1    -0.0039
     23 C17        -0.3237   -5.8155   -0.3559 C.2     1  NONAME1     0.2583
     24 O5         -0.1698   -4.9188   -1.1814 O.2     1  NONAME1    -0.2688
     25 N3          0.7368   -6.4296    0.3032 N.am    1  NONAME1    -0.3102
     26 C18         2.0832   -5.8751    0.2196 C.3     1  NONAME1     0.0140
     27 C19         3.1970   -6.8936   -0.0343 C.3     1  NONAME1    -0.0141
     28 C20         3.5771   -7.7226    1.1855 C.3     1  NONAME1     0.0456
     29 O6          4.7647   -8.4537    0.8903 O.3     1  NONAME1    -0.3950
     30 C21        -2.8661  -10.0688   -0.0663 C.ar    1  NONAME1     0.0071
     31 C22        -1.7939  -10.9956   -0.1280 C.ar    1  NONAME1    -0.0520
     32 C23        -2.0424  -12.3720   -0.1326 C.ar    1  NONAME1    -0.0611
     33 C24        -3.3434  -12.8470   -0.0879 C.ar    1  NONAME1    -0.0598
     34 C25        -4.4234  -11.9621   -0.0292 C.ar    1  NONAME1    -0.0376
     35 C26        -4.1797  -10.5741   -0.0091 C.ar    1  NONAME1     0.0496
     36 H1         -8.3765  -10.3640    0.2181 H       1  NONAME1     0.0247
     37 H2         -7.1979  -11.2978   -0.6956 H       1  NONAME1     0.0247
     38 H3         -7.0783  -11.1923    1.0845 H       1  NONAME1     0.0247
     39 H4         -6.7419   -8.7068    0.8494 H       1  NONAME1     0.0489
     40 H5         -6.7250   -8.8927   -0.9088 H       1  NONAME1     0.0489
     41 H6         -4.7969   -7.3922    0.2065 H       1  NONAME1     0.0815
     42 H7         -0.8846   -8.2591   -0.3305 H       1  NONAME1     0.0644
     43 H8         -3.6832   -5.9192   -0.3004 H       1  NONAME1     0.1553
     44 H9         -5.3908   -5.1570    0.6278 H       1  NONAME1     0.0663
     45 H10        -8.0365   -4.5841   -1.3985 H       1  NONAME1     0.0660
     46 H11        -9.1291   -5.3487   -0.2331 H       1  NONAME1     0.0660
     47 H12        -7.4713   -5.9524   -0.3695 H       1  NONAME1     0.0660
     48 H13        -9.6483   -1.6433   -0.8861 H       1  NONAME1     0.0660
     49 H14       -10.6006   -2.9499    0.0000 H       1  NONAME1     0.0660
     50 H15        -9.6366   -1.6655    0.9044 H       1  NONAME1     0.0660
     51 H16        -3.7218    0.6795   -1.0629 H       1  NONAME1     0.0660
     52 H17        -2.5985    1.6701    0.0000 H       1  NONAME1     0.0660
     53 H18        -4.4302    1.8844    0.0463 H       1  NONAME1     0.0660
     54 H19        -3.2060   -1.5121    0.0645 H       1  NONAME1     0.0663
     55 H20         0.5263   -7.0679    1.0582 H       1  NONAME1     0.1490
     56 H21         2.1187   -5.1354   -0.5871 H       1  NONAME1     0.0463
     57 H22         2.2650   -5.3370    1.1560 H       1  NONAME1     0.0463
     58 H23         2.9436   -7.5587   -0.8697 H       1  NONAME1     0.0302
     59 H24         4.0944   -6.3477   -0.3565 H       1  NONAME1     0.0302
     60 H25         2.7891   -8.4363    1.4414 H       1  NONAME1     0.0557
     61 H26         3.7809   -7.0827    2.0495 H       1  NONAME1     0.0557
     62 H27         5.0313   -8.9168    1.7030 H       1  NONAME1     0.2094
     63 H28        -0.7656  -10.6482   -0.1606 H       1  NONAME1     0.0624
     64 H29        -1.2122  -13.0732   -0.1701 H       1  NONAME1     0.0618
     65 H30        -3.5283  -13.9197   -0.0952 H       1  NONAME1     0.0618
     66 H31        -5.4229  -12.3782    0.0104 H       1  NONAME1     0.0638
@<TRIPOS>BOND
     1     1     2    1
     2     2     3    1
     3     3     4   ar
     4     4     5   ar
     5     5     6    1
     6     6     7    2
     7     7     8    1
     8     8     9   am
     9     9    10    2
    10     9    11    1
    11    11    12   ar
    12    12    13   ar
    13    13    14    1
    14    14    15    1
    15    13    16   ar
    16    16    17    1
    17    17    18    1
    18    16    19   ar
    19    19    20    1
    20    20    21    1
    21    19    22   ar
    22    11    22   ar
    23     7    23    1
    24    23    24    2
    25    23    25   am
    26    25    26    1
    27    26    27    1
    28    27    28    1
    29    28    29    1
    30     5    30   ar
    31    30    31   ar
    32    31    32   ar
    33    32    33   ar
    34    33    34   ar
    35    34    35   ar
    36    30    35   ar
    37     3    35   ar
    38     1    36    1
    39     1    37    1
    40     1    38    1
    41     2    39    1
    42     2    40    1
    43     4    41    1
    44     6    42    1
    45     8    43    1
    46    12    44    1
    47    15    45    1
    48    15    46    1
    49    15    47    1
    50    18    48    1
    51    18    49    1
    52    18    50    1
    53    21    51    1
    54    21    52    1
    55    21    53    1
    56    22    54    1
    57    25    55    1
    58    26    56    1
    59    26    57    1
    60    27    58    1
    61    27    59    1
    62    28    60    1
    63    28    61    1
    64    29    62    1
    65    31    63    1
    66    32    64    1
    67    33    65    1
    68    34    66    1
