REMARK  10 active torsions:
REMARK  status: ('A' for Active; 'I' for Inactive)
REMARK    1  A    between atoms: C2_2  and  C3_3 
REMARK    2  A    between atoms: C3_3  and  O1_4 
REMARK    3  A    between atoms: C7_9  and  N1_10 
REMARK    4  A    between atoms: N1_10  and  C8_11 
REMARK    5  A    between atoms: C12_15  and  O2_16 
REMARK    6  A    between atoms: C15_20  and  C16_21 
REMARK    7  A    between atoms: C16_21  and  C17_22 
REMARK       I    between atoms: C17_22  and  N3_24 
REMARK    8  A    between atoms: N3_24  and  C18_25 
REMARK    9  A    between atoms: C18_25  and  C19_26 
REMARK   10  A    between atoms: C27_35  and  O5_36 
ROOT
ATOM      1  C1  NON d   1       2.543   0.585   1.791  0.00  0.00     0.020 C 
ATOM      2  C2  NON d   1       2.580   0.014   0.340  0.00  0.00     0.008 C 
ATOM      3  C4  NON d   1       4.001  -0.770   0.000  0.00  0.00     0.012 C 
ATOM      4  C5  NON d   1       5.088  -0.089   0.890  0.00  0.00     0.054 C 
ATOM      5  C6  NON d   1       6.413  -0.359   0.342  0.00  0.00     0.012 A 
ATOM      6  S1  NON d   1       7.803   0.544   0.653  0.00  0.00    -0.055 SA
ATOM      7  C7  NON d   1       8.745  -0.574  -0.270  0.00  0.00     0.171 A 
ATOM      8  N2  NON d   1       8.005  -1.491  -0.871  0.00  0.00    -0.227 NA
ATOM      9  C14 NON d   1       6.678  -1.412  -0.465  0.00  0.00     0.056 A 
ATOM     10  C15 NON d   1       5.702  -2.536  -0.720  0.00  0.00     0.056 C 
ATOM     11  C23 NON d   1       4.001  -2.310   0.000  0.00  0.00    -0.030 C 
ATOM     12  C24 NON d   1       4.001  -3.850   0.000  0.00  0.00     0.016 C 
ATOM     13  C25 NON d   1       2.799  -2.363  -1.123  0.00  0.00     0.013 C 
ATOM     14  C26 NON d   1       1.503  -2.238  -0.321  0.00  0.00     0.033 C 
ATOM     15  C27 NON d   1       1.270  -0.795   0.044  0.00  0.00     0.128 C 
ENDROOT
BRANCH  10  16
ATOM     16  C16 NON d   1       6.583  -3.809  -0.223  0.00  0.00     0.114 C 
BRANCH  16  17
ATOM     17  C17 NON d   1       6.647  -4.966  -1.199  0.00  0.00     0.218 C 
ATOM     18  O3  NON d   1       6.242  -6.094  -0.929  0.00  0.00    -0.274 OA
ATOM     19  N3  NON d   1       7.237  -4.641  -2.387  0.00  0.00    -0.355 N 
ATOM     20  H19 NON d   1       7.671  -3.729  -2.487  0.00  0.00     0.162 HD
BRANCH  19  21
ATOM     21  C18 NON d   1       7.496  -5.615  -3.414  0.00  0.00     0.187 C 
BRANCH  21  22
ATOM     22  C19 NON d   1       8.136  -4.944  -4.574  0.00  0.00     0.070 A 
ATOM     23  C20 NON d   1       8.792  -5.418  -5.692  0.00  0.00     0.036 A 
ATOM     24  C21 NON d   1       9.200  -4.279  -6.431  0.00  0.00     0.027 A 
ATOM     25  C22 NON d   1       8.768  -3.185  -5.722  0.00  0.00     0.142 A 
ATOM     26  O4  NON d   1       8.118  -3.575  -4.598  0.00  0.00    -0.325 OA
ENDBRANCH  21  22
ENDBRANCH  19  21
ENDBRANCH  16  17
ENDBRANCH  10  16
BRANCH   7  27
ATOM     27  N1  NON d   1      10.100  -0.634  -0.340  0.00  0.00    -0.335 N 
ATOM     28  H10 NON d   1      10.437  -1.491  -0.761  0.00  0.00     0.168 HD
BRANCH  27  29
ATOM     29  C8  NON d   1      11.126   0.298  -0.092  0.00  0.00     0.036 A 
ATOM     30  C9  NON d   1      10.929   1.629   0.288  0.00  0.00     0.029 A 
ATOM     31  C10 NON d   1      12.003   2.512   0.466  0.00  0.00     0.005 A 
ATOM     32  C11 NON d   1      13.308   2.079   0.269  0.00  0.00     0.036 A 
ATOM     33  C12 NON d   1      13.526   0.753  -0.076  0.00  0.00     0.067 A 
ATOM     34  C13 NON d   1      12.458  -0.131  -0.240  0.00  0.00     0.066 A 
BRANCH  33  35
ATOM     35  O2  NON d   1      14.787   0.276  -0.280  0.00  0.00    -0.361 OA
ATOM     36  H14 NON d   1      15.414   1.012  -0.183  0.00  0.00     0.217 HD
ENDBRANCH  33  35
ENDBRANCH  27  29
ENDBRANCH   7  27
BRANCH   2  37
ATOM     37  C3  NON d   1       2.519   1.250  -0.629  0.00  0.00     0.176 C 
BRANCH  37  38
ATOM     38  O1  NON d   1       1.339   2.020  -0.411  0.00  0.00    -0.400 OA
ATOM     39  H6  NON d   1       1.291   2.674  -1.131  0.00  0.00     0.209 HD
ENDBRANCH  37  38
ENDBRANCH   2  37
BRANCH  15  40
ATOM     40  O5  NON d   1       0.329  -0.772   1.118  0.00  0.00    -0.395 OA
ATOM     41  H33 NON d   1      -0.018   0.138   1.159  0.00  0.00     0.210 HD
ENDBRANCH  15  40
TORSDOF 10
