@<TRIPOS>MOLECULE
*****
 46 46 0 0 0
SMALL
USER_CHARGES

@<TRIPOS>ATOM
      1 C1          0.0000    4.6200    0.0000 C.3     1  NONAME1    -0.0135
      2 S1          1.3337    3.8500    0.0000 S.3     1  NONAME1    -0.1286
      3 C2          1.1097    2.0018    0.0899 C.ar    1  NONAME1     0.0077
      4 C3          2.3004    1.2447    0.0768 C.ar    1  NONAME1    -0.0478
      5 C4          2.3350   -0.1886    0.1655 C.ar    1  NONAME1    -0.0536
      6 C5          1.1827   -0.9881    0.2744 C.ar    1  NONAME1    -0.0247
      7 C6          1.3664   -2.5141    0.4237 C.2     1  NONAME1    -0.0478
      8 C7          0.4685   -3.5304    0.3793 C.2     1  NONAME1     0.0231
      9 C8          0.5540   -5.0668    0.4519 C.2     1  NONAME1     0.3324
     10 O1         -0.4319   -5.7085    0.0869 O.2     1  NONAME1    -0.2456
     11 O2          1.6884   -5.6965    0.9275 O.3     1  NONAME1    -0.4521
     12 C9          1.6244   -7.1864    0.9825 C.3     1  NONAME1     0.1684
     13 C10         2.8199   -8.0675    1.6603 C.2     1  NONAME1     0.2519
     14 O3          3.6208   -7.5604    2.4488 O.2     1  NONAME1    -0.2720
     15 N1          2.9952   -9.4432    1.2492 N.am    1  NONAME1    -0.2945
     16 C11         4.0010  -10.0100    0.0000 C.3     1  NONAME1     0.1208
     17 C12         4.7710   -8.6763    0.0000 C.3     1  NONAME1    -0.0301
     18 C13         3.2310  -11.3437    0.0000 C.1     1  NONAME1     0.0883
     19 N2          2.4610  -12.6774    0.0000 N.1     1  NONAME1    -0.1943
     20 C14         5.3347  -10.7800    0.0000 C.3     1  NONAME1    -0.0124
     21 C15         6.4176  -10.5554    1.1641 C.3     1  NONAME1    -0.0598
     22 C16         5.3348  -12.3199   -0.0145 C.3     1  NONAME1    -0.0598
     23 C17        -0.0164   -0.2367    0.2635 C.ar    1  NONAME1    -0.0536
     24 C18        -0.0556    1.2262    0.1747 C.ar    1  NONAME1    -0.0478
     25 H1          0.4477    5.6178   -0.1573 H       1  NONAME1     0.0344
     26 H2         -1.3337    5.3900    0.0000 H       1  NONAME1     0.0344
     27 H3         -0.3552    4.2431   -0.9769 H       1  NONAME1     0.0344
     28 H4          3.2584    1.7604    0.0011 H       1  NONAME1     0.0629
     29 H5          3.3176   -0.6601    0.1491 H       1  NONAME1     0.0624
     30 H6          2.4066   -2.8064    0.5532 H       1  NONAME1     0.0626
     31 H7         -0.5752   -3.2546    0.2070 H       1  NONAME1     0.0689
     32 H8          1.5282   -7.5371   -0.0529 H       1  NONAME1     0.0796
     33 H9          0.7142   -7.4559    1.5339 H       1  NONAME1     0.0796
     34 H10         2.0671   -9.8394    1.1178 H       1  NONAME1     0.1503
     35 H11         4.8351   -8.5688   -1.2209 H       1  NONAME1     0.0260
     36 H12         5.5410   -7.3426    0.0000 H       1  NONAME1     0.0260
     37 H13         3.9054   -7.9699   -0.0797 H       1  NONAME1     0.0260
     38 H14         5.3346   -9.2401    0.0145 H       1  NONAME1     0.0326
     39 H15         6.0552   -9.8837    1.9478 H       1  NONAME1     0.0233
     40 H16         7.3120  -10.1149    0.6997 H       1  NONAME1     0.0233
     41 H17         6.7438  -11.4695    1.6720 H       1  NONAME1     0.0233
     42 H18         6.4372  -12.4500   -0.1161 H       1  NONAME1     0.0233
     43 H19         5.3348  -13.8599   -0.0291 H       1  NONAME1     0.0233
     44 H20         5.0338  -12.4105   -1.0867 H       1  NONAME1     0.0233
     45 H21        -0.9724   -0.7550    0.3333 H       1  NONAME1     0.0624
     46 H22        -1.0287    1.7130    0.1810 H       1  NONAME1     0.0629
@<TRIPOS>BOND
     1     1     2    1
     2     2     3    1
     3     3     4   ar
     4     4     5   ar
     5     5     6   ar
     6     6     7    1
     7     7     8    2
     8     8     9    1
     9     9    10    2
    10     9    11    1
    11    11    12    1
    12    12    13    1
    13    13    14    2
    14    13    15   am
    15    16    15    1
    16    16    17    1
    17    16    18    1
    18    18    19    3
    19    16    20    1
    20    20    21    1
    21    20    22    1
    22     6    23   ar
    23    23    24   ar
    24     3    24   ar
    25     1    25    1
    26     1    26    1
    27     1    27    1
    28     4    28    1
    29     5    29    1
    30     7    30    1
    31     8    31    1
    32    12    32    1
    33    12    33    1
    34    15    34    1
    35    17    35    1
    36    17    36    1
    37    17    37    1
    38    20    38    1
    39    21    39    1
    40    21    40    1
    41    21    41    1
    42    22    42    1
    43    22    43    1
    44    22    44    1
    45    23    45    1
    46    24    46    1
