@<TRIPOS>MOLECULE
*****
 35 38 0 0 0
SMALL
USER_CHARGES

@<TRIPOS>ATOM
      1 N1         -0.3990    0.9405   -0.8176 N.pl3   1  NONAME1    -0.2508
      2 C1         -0.9180   -0.1804   -0.2245 C.2     1  NONAME1     0.2694
      3 C2         -0.2035   -1.2728    0.1325 C.2     1  NONAME1     0.1372
      4 C3          1.2004   -1.4085    0.0369 C.ar    1  NONAME1     0.1204
      5 N2          2.0518   -0.3943   -0.0198 N.ar    1  NONAME1    -0.2387
      6 C4          3.3609   -0.8383   -0.0594 C.ar    1  NONAME1     0.0789
      7 C5          4.5068   -0.0204   -0.0776 C.ar    1  NONAME1    -0.0352
      8 C6          5.7760   -0.6047   -0.1070 C.ar    1  NONAME1    -0.0597
      9 C7          5.9119   -1.9893   -0.1272 C.ar    1  NONAME1    -0.0606
     10 C8          4.7872   -2.8213   -0.1166 C.ar    1  NONAME1    -0.0459
     11 C9          3.5177   -2.2215   -0.0771 C.ar    1  NONAME1     0.0395
     12 S1          1.9664   -2.9576   -0.0394 S.2     1  NONAME1    -0.0668
     13 C10        -1.1992   -2.2328    0.6646 C.2     1  NONAME1     0.2124
     14 O1         -0.9567   -3.3539    1.0896 O.2     1  NONAME1    -0.2876
     15 C11        -2.5843   -1.6238    0.5826 C.3     1  NONAME1     0.1435
     16 N3         -2.2711   -0.2802    0.0875 N.pl3   1  NONAME1    -0.2131
     17 C12        -3.3546    0.4852   -0.5249 C.3     1  NONAME1     0.1121
     18 C13        -3.6196    1.9069   -0.0748 C.ar    1  NONAME1     0.0291
     19 C14        -4.7462    2.6594   -0.3689 C.ar    1  NONAME1    -0.0479
     20 C15        -4.6632    3.9960    0.1166 C.ar    1  NONAME1    -0.0543
     21 C16        -3.4837    4.2244    0.7857 C.ar    1  NONAME1    -0.0239
     22 S2         -2.5167    2.8200    0.8694 S.2     1  NONAME1    -0.0979
     23 H1          0.6178    0.9898   -0.6987 H       1  NONAME1     0.2882
     24 H2         -0.8422    1.7773   -0.4450 H       1  NONAME1     0.2882
     25 H3          4.3946    1.0596   -0.0595 H       1  NONAME1     0.0639
     26 H4          6.6593    0.0293   -0.1114 H       1  NONAME1     0.0618
     27 H5          6.9053   -2.4327   -0.1493 H       1  NONAME1     0.0618
     28 H6          4.8951   -3.9016   -0.1308 H       1  NONAME1     0.0629
     29 H7         -3.1897   -2.1898   -0.1308 H       1  NONAME1     0.0811
     30 H8         -3.0450   -1.5818    1.5725 H       1  NONAME1     0.0811
     31 H9         -4.2952   -0.0604   -0.3616 H       1  NONAME1     0.0783
     32 H10        -3.2098    0.4943   -1.6132 H       1  NONAME1     0.0783
     33 H11        -5.5855    2.2732   -0.9351 H       1  NONAME1     0.0627
     34 H12        -5.4230    4.7540   -0.0289 H       1  NONAME1     0.0623
     35 H13        -3.1473    5.1464    1.2403 H       1  NONAME1     0.0693
@<TRIPOS>BOND
     1     1     2    1
     2     2     3    2
     3     3     4    1
     4     4     5   ar
     5     5     6   ar
     6     6     7   ar
     7     7     8   ar
     8     8     9   ar
     9     9    10   ar
    10    10    11   ar
    11     6    11   ar
    12    11    12   ar
    13     4    12   ar
    14     3    13    1
    15    13    14    2
    16    13    15    1
    17    15    16    1
    18     2    16    1
    19    16    17    1
    20    17    18    1
    21    18    19   ar
    22    19    20   ar
    23    20    21   ar
    24    21    22   ar
    25    18    22   ar
    26     1    23    1
    27     1    24    1
    28     7    25    1
    29     8    26    1
    30     9    27    1
    31    10    28    1
    32    15    29    1
    33    15    30    1
    34    17    31    1
    35    17    32    1
    36    19    33    1
    37    20    34    1
    38    21    35    1
