@<TRIPOS>MOLECULE
*****
 57 58 0 0 0
SMALL
USER_CHARGES

@<TRIPOS>ATOM
      1 C1          0.8555  -12.0227    1.3868 C.3     1  NONAME1    -0.0652
      2 C2         -0.6276  -12.0194    1.0645 C.3     1  NONAME1    -0.0528
      3 C3         -0.9839  -11.1581   -0.1476 C.3     1  NONAME1    -0.0189
      4 C4         -0.9237   -9.6482    0.0941 C.3     1  NONAME1     0.0896
      5 O1          0.4221   -9.1581    0.1804 O.3     1  NONAME1    -0.4912
      6 C5          0.6105   -7.7885    0.1500 C.ar    1  NONAME1     0.1326
      7 C6         -0.4998   -6.9131    0.2259 C.ar    1  NONAME1    -0.0192
      8 C7         -0.3325   -5.5322    0.1662 C.ar    1  NONAME1    -0.0583
      9 C8          0.9425   -5.0078    0.0533 C.ar    1  NONAME1    -0.0608
     10 C9          2.0660   -5.8507   -0.0017 C.ar    1  NONAME1    -0.0461
     11 C10         1.9391   -7.2543    0.0496 C.ar    1  NONAME1     0.0786
     12 C11         3.1716   -8.1577   -0.0645 C.2     1  NONAME1     0.2531
     13 O2          2.9819   -9.3462   -0.3044 O.2     1  NONAME1    -0.2697
     14 N1          4.4960   -7.6122    0.0415 N.am    1  NONAME1    -0.2626
     15 C12         5.7438   -8.3021    0.0685 C.2     1  NONAME1     0.1533
     16 S1          5.9341   -9.9753    0.0924 S.2     1  NONAME1    -0.0170
     17 N2          6.8810   -7.4582    0.0956 N.am    1  NONAME1    -0.2453
     18 N3          8.2297   -8.0423    0.0658 N.am    1  NONAME1    -0.2311
     19 C13         9.3764   -7.2400    0.0398 C.2     1  NONAME1     0.2601
     20 O3          9.2850   -6.0122    0.0178 O.2     1  NONAME1    -0.2687
     21 C14        10.7710   -7.9005    0.0376 C.ar    1  NONAME1     0.0383
     22 C15        11.9226   -7.0893    0.0559 C.ar    1  NONAME1    -0.0478
     23 C16        13.2550   -7.6218    0.0542 C.ar    1  NONAME1    -0.0398
     24 C17        13.4990   -8.9973    0.0291 C.ar    1  NONAME1     0.0334
     25 N4         14.8103   -9.6230    0.0144 N.am    1  NONAME1    -0.2855
     26 C18        16.0809   -9.0203    0.0802 C.2     1  NONAME1     0.2169
     27 O4         16.2514   -7.8062    0.2014 O.2     1  NONAME1    -0.2755
     28 C19        17.3378  -10.0100    0.0000 C.3     1  NONAME1     0.0215
     29 C20        18.6715   -9.2400    0.0000 C.3     1  NONAME1    -0.0570
     30 C21        12.3457   -9.8108    0.0061 C.ar    1  NONAME1    -0.0398
     31 C22        11.0105   -9.2816    0.0120 C.ar    1  NONAME1    -0.0478
     32 H1          1.0776  -12.8060    2.1184 H       1  NONAME1     0.0230
     33 H2          1.1705  -11.0676    1.8149 H       1  NONAME1     0.0230
     34 H3          1.4521  -12.2189    0.4904 H       1  NONAME1     0.0230
     35 H4         -1.2001  -11.7002    1.9433 H       1  NONAME1     0.0264
     36 H5         -0.9348  -13.0510    0.8510 H       1  NONAME1     0.0264
     37 H6         -0.3428  -11.4276   -0.9941 H       1  NONAME1     0.0298
     38 H7         -2.0154  -11.4086   -0.4306 H       1  NONAME1     0.0298
     39 H8         -1.4672   -9.4100    1.0172 H       1  NONAME1     0.0696
     40 H9         -1.4324   -9.1814   -0.7596 H       1  NONAME1     0.0696
     41 H10        -1.5175   -7.2757    0.3169 H       1  NONAME1     0.0654
     42 H11        -1.2063   -4.8827    0.2006 H       1  NONAME1     0.0619
     43 H12         1.0635   -3.9282   -0.0072 H       1  NONAME1     0.0618
     44 H13         3.0273   -5.3634   -0.1164 H       1  NONAME1     0.0626
     45 H14         4.5640   -6.6218    0.1971 H       1  NONAME1     0.1569
     46 H15         6.8603   -6.4503   -0.0482 H       1  NONAME1     0.1718
     47 H16         8.2488   -9.0585    0.0913 H       1  NONAME1     0.1731
     48 H17        11.8079   -6.0042    0.0706 H       1  NONAME1     0.0626
     49 H18        14.0774   -6.9106    0.0665 H       1  NONAME1     0.0636
     50 H19        14.8065  -10.6369   -0.0322 H       1  NONAME1     0.1548
     51 H20        17.2207  -10.6066   -0.9121 H       1  NONAME1     0.0356
     52 H21        17.2804  -10.6586    0.8805 H       1  NONAME1     0.0356
     53 H22        19.2943  -10.1293   -0.2276 H       1  NONAME1     0.0234
     54 H23        20.0052   -8.4700    0.0000 H       1  NONAME1     0.0234
     55 H24        18.4761   -8.6921   -0.9451 H       1  NONAME1     0.0234
     56 H25        12.4500  -10.8956   -0.0153 H       1  NONAME1     0.0636
     57 H26        10.1859   -9.9895   -0.0084 H       1  NONAME1     0.0626
@<TRIPOS>BOND
     1     1     2    1
     2     2     3    1
     3     3     4    1
     4     4     5    1
     5     5     6    1
     6     6     7   ar
     7     7     8   ar
     8     8     9   ar
     9     9    10   ar
    10    10    11   ar
    11     6    11   ar
    12    11    12    1
    13    12    13    2
    14    12    14   am
    15    14    15    1
    16    15    16    2
    17    15    17    1
    18    17    18    1
    19    18    19   am
    20    19    20    2
    21    19    21    1
    22    21    22   ar
    23    22    23   ar
    24    23    24   ar
    25    24    25    1
    26    25    26   am
    27    26    27    2
    28    26    28    1
    29    28    29    1
    30    24    30   ar
    31    30    31   ar
    32    21    31   ar
    33     1    32    1
    34     1    33    1
    35     1    34    1
    36     2    35    1
    37     2    36    1
    38     3    37    1
    39     3    38    1
    40     4    39    1
    41     4    40    1
    42     7    41    1
    43     8    42    1
    44     9    43    1
    45    10    44    1
    46    14    45    1
    47    17    46    1
    48    18    47    1
    49    22    48    1
    50    23    49    1
    51    25    50    1
    52    28    51    1
    53    28    52    1
    54    29    53    1
    55    29    54    1
    56    29    55    1
    57    30    56    1
    58    31    57    1
