REMARK  6 active torsions:
REMARK  status: ('A' for Active; 'I' for Inactive)
REMARK    1  A    between atoms: C2_2  and  C3_3 
REMARK    2  A    between atoms: C3_3  and  C4_4 
REMARK    3  A    between atoms: C3_3  and  C6_6 
REMARK       I    between atoms: C6_6  and  N1_8 
REMARK    4  A    between atoms: N1_8  and  N2_9 
REMARK       I    between atoms: N2_9  and  C7_10 
REMARK    5  A    between atoms: C7_10  and  C8_12 
REMARK    6  A    between atoms: C12_16  and  N3_17 
ROOT
ATOM      1  N2  NON d   1       2.549  -6.333  -0.160  0.00  0.00    -0.263 N 
ATOM      2  C7  NON d   1       3.742  -6.963   0.130  0.00  0.00     0.270 C 
ATOM      3  O2  NON d   1       3.792  -8.133   0.502  0.00  0.00    -0.266 OA
ATOM      4  H13 NON d   1       2.451  -5.403  -0.560  0.00  0.00     0.190 HD
ENDROOT
BRANCH   1   5
ATOM      5  N1  NON d   1       1.348  -7.001   0.117  0.00  0.00    -0.267 N 
ATOM      6  C6  NON d   1       0.173  -6.392  -0.271  0.00  0.00     0.240 C 
ATOM      7  O1  NON d   1       0.200  -5.360  -0.945  0.00  0.00    -0.271 OA
ATOM      8  H12 NON d   1       1.422  -7.871   0.639  0.00  0.00     0.190 HD
BRANCH   6   9
ATOM      9  C3  NON d   1      -1.123  -6.982   0.316  0.00  0.00     0.079 C 
BRANCH   9  10
ATOM     10  C2  NON d   1      -2.363  -6.293  -0.295  0.00  0.00     0.010 C 
ATOM     11  C1  NON d   1      -2.615  -4.889   0.245  0.00  0.00     0.006 C 
ENDBRANCH   9  10
BRANCH   9  12
ATOM     12  C4  NON d   1      -1.222  -8.518   0.195  0.00  0.00     0.010 C 
ATOM     13  C5  NON d   1      -1.566  -9.037  -1.194  0.00  0.00     0.006 C 
ENDBRANCH   9  12
ENDBRANCH   6   9
ENDBRANCH   1   5
BRANCH   2  14
ATOM     14  C8  NON d   1       4.994  -6.157   0.002  0.00  0.00     0.036 A 
ATOM     15  C9  NON d   1       4.989  -4.755  -0.040  0.00  0.00     0.017 A 
ATOM     16  C10 NON d   1       6.192  -4.039  -0.094  0.00  0.00     0.003 A 
ATOM     17  C11 NON d   1       7.411  -4.715  -0.094  0.00  0.00     0.036 A 
ATOM     18  C12 NON d   1       7.422  -6.115  -0.050  0.00  0.00     0.103 A 
ATOM     19  C13 NON d   1       6.221  -6.840  -0.000  0.00  0.00     0.053 A 
BRANCH  18  20
ATOM     20  N3  NON d   1       8.705  -6.827  -0.032  0.00  0.00    -0.116 N 
ATOM     21  O3  NON d   1       9.740  -6.147  -0.012  0.00  0.00    -0.532 OA
ATOM     22  O4  NON d   1       8.679  -8.067  -0.042  0.00  0.00    -0.532 OA
ENDBRANCH  18  20
ENDBRANCH   2  14
TORSDOF 6
