@<TRIPOS>MOLECULE
*****
 47 49 0 0 0
SMALL
USER_CHARGES

@<TRIPOS>ATOM
      1 C1        -13.3368   -6.1600    0.0000 C.3     1  NONAME1    -0.0306
      2 C2        -12.0031   -5.3900    0.0000 C.3     1  NONAME1     0.0900
      3 O1        -10.8003   -6.2516   -0.0387 O.3     1  NONAME1    -0.4614
      4 C3         -9.6278   -5.5269   -0.0268 C.2     1  NONAME1     0.3392
      5 O2         -9.6141   -4.2990   -0.0071 O.2     1  NONAME1    -0.2450
      6 C4         -8.3108   -6.2879   -0.0312 C.ar    1  NONAME1     0.0591
      7 C5         -7.1285   -5.5234    0.0209 C.ar    1  NONAME1    -0.0460
      8 C6         -5.8365   -6.1063    0.0302 C.ar    1  NONAME1    -0.0397
      9 C7         -5.6629   -7.4894   -0.0158 C.ar    1  NONAME1     0.0334
     10 N1         -4.3722   -8.1287   -0.0271 N.am    1  NONAME1    -0.2848
     11 C8         -3.1304   -7.5174    0.2186 C.2     1  NONAME1     0.2274
     12 O3         -3.0149   -6.3537    0.6055 O.2     1  NONAME1    -0.2746
     13 C9         -1.8704   -8.4240    0.0422 C.3     1  NONAME1     0.0765
     14 S1         -0.4564   -7.3852   -0.5666 S.3     1  NONAME1    -0.0964
     15 C10         1.0435   -8.3197   -0.2219 C.ar    1  NONAME1     0.1011
     16 C11         2.2450   -7.6127   -0.1921 C.ar    1  NONAME1    -0.0037
     17 C12         3.4323   -8.3222   -0.0458 C.ar    1  NONAME1     0.0752
     18 C13         4.7936   -7.6954   -0.0251 C.ar    1  NONAME1     0.0005
     19 C14         4.9957   -6.2997    0.0096 C.ar    1  NONAME1    -0.0526
     20 C15         6.2776   -5.7286    0.0136 C.ar    1  NONAME1    -0.0611
     21 C16         7.4084   -6.5367   -0.0119 C.ar    1  NONAME1    -0.0617
     22 C17         7.2525   -7.9176   -0.0389 C.ar    1  NONAME1    -0.0611
     23 C18         5.9679   -8.4835   -0.0444 C.ar    1  NONAME1    -0.0526
     24 N2          3.3938   -9.6673    0.0613 N.ar    1  NONAME1    -0.2353
     25 C19         2.1852  -10.2580    0.0214 C.ar    1  NONAME1     0.1178
     26 N3          0.9884   -9.6537   -0.1126 N.ar    1  NONAME1    -0.2292
     27 C20        -6.8429   -8.2624   -0.0808 C.ar    1  NONAME1    -0.0397
     28 C21        -8.1496   -7.6740   -0.0814 C.ar    1  NONAME1    -0.0460
     29 H1        -13.9452   -5.3047    0.3569 H       1  NONAME1     0.0262
     30 H2        -14.6705   -6.9300    0.0000 H       1  NONAME1     0.0262
     31 H3        -13.0708   -6.8210    0.8493 H       1  NONAME1     0.0262
     32 H4        -11.9743   -4.7513   -0.8902 H       1  NONAME1     0.0695
     33 H5        -11.9302   -4.7812    0.9104 H       1  NONAME1     0.0695
     34 H6         -7.1899   -4.4399    0.0629 H       1  NONAME1     0.0626
     35 H7         -4.9904   -5.4276    0.0537 H       1  NONAME1     0.0636
     36 H8         -4.3755   -9.1325   -0.1590 H       1  NONAME1     0.1548
     37 H9         -2.0654   -9.2172   -0.6849 H       1  NONAME1     0.0475
     38 H10        -1.6250   -8.8626    1.0142 H       1  NONAME1     0.0475
     39 H11         2.2384   -6.5381   -0.3060 H       1  NONAME1     0.0665
     40 H12         4.1563   -5.6111    0.0393 H       1  NONAME1     0.0624
     41 H13         6.3903   -4.6462    0.0380 H       1  NONAME1     0.0618
     42 H14         8.4036   -6.0919   -0.0087 H       1  NONAME1     0.0618
     43 H15         8.1311   -8.5590   -0.0567 H       1  NONAME1     0.0618
     44 H16         5.8946   -9.5702   -0.0679 H       1  NONAME1     0.0624
     45 H17         2.1834  -11.3413    0.0954 H       1  NONAME1     0.1047
     46 H18        -6.7742   -9.3487   -0.1202 H       1  NONAME1     0.0636
     47 H19        -9.0218   -8.3231   -0.1199 H       1  NONAME1     0.0626
@<TRIPOS>BOND
     1     1     2    1
     2     2     3    1
     3     3     4    1
     4     4     5    2
     5     4     6    1
     6     6     7   ar
     7     7     8   ar
     8     8     9   ar
     9     9    10    1
    10    10    11   am
    11    11    12    2
    12    11    13    1
    13    13    14    1
    14    14    15    1
    15    15    16   ar
    16    16    17   ar
    17    17    18    1
    18    18    19   ar
    19    19    20   ar
    20    20    21   ar
    21    21    22   ar
    22    22    23   ar
    23    18    23   ar
    24    17    24   ar
    25    24    25   ar
    26    25    26   ar
    27    15    26   ar
    28     9    27   ar
    29    27    28   ar
    30     6    28   ar
    31     1    29    1
    32     1    30    1
    33     1    31    1
    34     2    32    1
    35     2    33    1
    36     7    34    1
    37     8    35    1
    38    10    36    1
    39    13    37    1
    40    13    38    1
    41    16    39    1
    42    19    40    1
    43    20    41    1
    44    21    42    1
    45    22    43    1
    46    23    44    1
    47    25    45    1
    48    27    46    1
    49    28    47    1
