@<TRIPOS>MOLECULE
*****
 17 17 0 0 0
SMALL
USER_CHARGES

@<TRIPOS>ATOM
      1 O1          2.4398    4.3162   -0.0000 O.2     1  NONAME1    -0.2681
      2 C1          1.3433    3.7534   -0.0000 C.2     1  NONAME1     0.2676
      3 N1          0.1958    4.4998    0.0000 N.am    1  NONAME1    -0.1934
      4 O2          0.3526    5.9031    0.0000 O.3     1  NONAME1    -0.2949
      5 C2          1.2501    2.2576    0.0000 C.ar    1  NONAME1     0.0526
      6 C3          2.4938    1.5888    0.0000 C.ar    1  NONAME1    -0.0485
      7 C4          2.5787    0.1949    0.0000 C.ar    1  NONAME1    -0.0610
      8 C5          1.4181   -0.5653    0.0000 C.ar    1  NONAME1    -0.0607
      9 C6          0.1779    0.0704    0.0000 C.ar    1  NONAME1    -0.0470
     10 C7          0.0832    1.4739    0.0000 C.ar    1  NONAME1     0.0300
     11 Br1        -1.6973    2.1439   -0.0000 Br      1  NONAME1    -0.0495
     12 H1         -0.7511    4.1383    0.0000 H       1  NONAME1     0.1825
     13 H2          1.3311    5.9972   -0.0000 H       1  NONAME1     0.2414
     14 H3          3.4235    2.1588    0.0000 H       1  NONAME1     0.0625
     15 H4          3.5522   -0.2901    0.0000 H       1  NONAME1     0.0618
     16 H5          1.4757   -1.6513    0.0000 H       1  NONAME1     0.0618
     17 H6         -0.7202   -0.5453    0.0000 H       1  NONAME1     0.0629
@<TRIPOS>BOND
     1     1     2    2
     2     2     3   am
     3     3     4    1
     4     2     5    1
     5     5     6   ar
     6     6     7   ar
     7     7     8   ar
     8     8     9   ar
     9     9    10   ar
    10     5    10   ar
    11    10    11    1
    12     3    12    1
    13     4    13    1
    14     6    14    1
    15     7    15    1
    16     8    16    1
    17     9    17    1
