@<TRIPOS>MOLECULE
*****
 59 61 0 0 0
SMALL
USER_CHARGES

@<TRIPOS>ATOM
      1 C1         -5.7531  -15.3979    1.3784 C.3     1  NONAME1     0.0790
      2 O1         -6.1752  -14.7154    0.1947 O.3     1  NONAME1    -0.4915
      3 C2         -5.6867  -13.4379    0.1516 C.ar    1  NONAME1     0.1616
      4 C3         -6.6210  -12.4042    0.2342 C.ar    1  NONAME1    -0.0146
      5 C4         -6.2003  -11.0662    0.2171 C.ar    1  NONAME1    -0.0368
      6 C5         -4.8433  -10.7472    0.0857 C.ar    1  NONAME1     0.0371
      7 N1         -4.4669   -9.3809    0.0978 N.am    1  NONAME1    -0.2847
      8 C6         -3.2344   -8.8713   -0.3043 C.2     1  NONAME1     0.2275
      9 O2         -2.3842   -9.5239   -0.9081 O.2     1  NONAME1    -0.2746
     10 C7         -3.0330   -7.3849    0.0067 C.3     1  NONAME1     0.0779
     11 S1         -1.2826   -7.0967    0.4471 S.3     1  NONAME1    -0.0783
     12 C8         -1.1269   -5.3789    0.2626 C.ar    1  NONAME1     0.1701
     13 N2         -2.1394   -4.5567    0.1757 N.ar    1  NONAME1    -0.2299
     14 C9         -1.5798   -3.3244    0.0184 C.ar    1  NONAME1     0.0521
     15 C10        -0.1951   -3.3834   -0.0031 C.ar    1  NONAME1     0.0650
     16 C11         0.7672   -2.2601   -0.1410 C.3     1  NONAME1     0.0858
     17 O3          0.0579   -1.1429   -0.6690 O.3     1  NONAME1    -0.3889
     18 N3          0.0998   -4.7261    0.1814 N.ar    1  NONAME1    -0.3117
     19 C12         1.3819   -5.4506    0.1556 C.3     1  NONAME1     0.1017
     20 C13         2.6797   -4.7251    0.4557 C.2     1  NONAME1     0.2331
     21 O4          2.7560   -3.7007    1.1268 O.2     1  NONAME1    -0.2738
     22 N4          3.8228   -5.3544   -0.0373 N.am    1  NONAME1    -0.3097
     23 C14         5.0898   -4.6455   -0.0019 C.3     1  NONAME1     0.0369
     24 C15         6.3560   -5.4732   -0.0377 C.ar    1  NONAME1    -0.0302
     25 C16         7.5788   -4.7705   -0.0722 C.ar    1  NONAME1    -0.0557
     26 C17         8.8054   -5.4396   -0.0721 C.ar    1  NONAME1    -0.0431
     27 C18         8.8271   -6.8283   -0.0409 C.ar    1  NONAME1     0.0410
     28 Cl1        10.3338   -7.6589   -0.0342 Cl      1  NONAME1    -0.0835
     29 C19         7.6326   -7.5466   -0.0073 C.ar    1  NONAME1    -0.0431
     30 C20         6.4010   -6.8731   -0.0004 C.ar    1  NONAME1    -0.0557
     31 C21        -3.9176  -11.7920   -0.0172 C.ar    1  NONAME1     0.0049
     32 C22        -4.3347  -13.1313   -0.0117 C.ar    1  NONAME1     0.1632
     33 O5         -3.3425  -14.0706   -0.1169 O.3     1  NONAME1    -0.4914
     34 C23        -3.5105  -14.9138   -1.2565 C.3     1  NONAME1     0.0790
     35 H1         -6.3844  -16.2848    1.4928 H       1  NONAME1     0.0660
     36 H2         -4.7180  -15.7411    1.2957 H       1  NONAME1     0.0660
     37 H3         -5.8778  -14.7769    2.2723 H       1  NONAME1     0.0660
     38 H4         -7.6779  -12.6410    0.3261 H       1  NONAME1     0.0656
     39 H5         -6.9541  -10.2870    0.2922 H       1  NONAME1     0.0637
     40 H6         -5.1941   -8.7087    0.3214 H       1  NONAME1     0.1548
     41 H7         -3.6660   -7.0778    0.8450 H       1  NONAME1     0.0475
     42 H8         -3.3156   -6.8165   -0.8853 H       1  NONAME1     0.0475
     43 H9         -2.1920   -2.4373   -0.0839 H       1  NONAME1     0.0849
     44 H10         1.5765   -2.4938   -0.8367 H       1  NONAME1     0.0622
     45 H11         1.1591   -1.9654    0.8360 H       1  NONAME1     0.0622
     46 H12         0.6422   -0.3745   -0.5517 H       1  NONAME1     0.2099
     47 H13         1.4395   -5.9096   -0.8378 H       1  NONAME1     0.0588
     48 H14         1.3167   -6.2349    0.9178 H       1  NONAME1     0.0588
     49 H15         3.7239   -6.1061   -0.7073 H       1  NONAME1     0.1491
     50 H16         5.0835   -3.9881   -0.8800 H       1  NONAME1     0.0512
     51 H17         5.1227   -4.0134    0.8926 H       1  NONAME1     0.0512
     52 H18         7.5801   -3.6811   -0.0853 H       1  NONAME1     0.0621
     53 H19         9.7329   -4.8721   -0.0886 H       1  NONAME1     0.0632
     54 H20         7.6560   -8.6334    0.0238 H       1  NONAME1     0.0632
     55 H21         5.4914   -7.4649    0.0496 H       1  NONAME1     0.0621
     56 H22        -2.8524  -11.6000   -0.0952 H       1  NONAME1     0.0674
     57 H23        -4.0246  -14.4145   -2.0866 H       1  NONAME1     0.0660
     58 H24        -4.0411  -15.8291   -0.9773 H       1  NONAME1     0.0660
     59 H25        -2.5135  -15.2035   -1.6042 H       1  NONAME1     0.0660
@<TRIPOS>BOND
     1     1     2    1
     2     2     3    1
     3     3     4   ar
     4     4     5   ar
     5     5     6   ar
     6     6     7    1
     7     7     8   am
     8     8     9    2
     9     8    10    1
    10    10    11    1
    11    11    12    1
    12    12    13   ar
    13    13    14   ar
    14    14    15   ar
    15    15    16    1
    16    16    17    1
    17    15    18   ar
    18    12    18   ar
    19    18    19    1
    20    19    20    1
    21    20    21    2
    22    20    22   am
    23    22    23    1
    24    23    24    1
    25    24    25   ar
    26    25    26   ar
    27    26    27   ar
    28    27    28    1
    29    27    29   ar
    30    29    30   ar
    31    24    30   ar
    32     6    31   ar
    33    31    32   ar
    34     3    32   ar
    35    32    33    1
    36    33    34    1
    37     1    35    1
    38     1    36    1
    39     1    37    1
    40     4    38    1
    41     5    39    1
    42     7    40    1
    43    10    41    1
    44    10    42    1
    45    14    43    1
    46    16    44    1
    47    16    45    1
    48    17    46    1
    49    19    47    1
    50    19    48    1
    51    22    49    1
    52    23    50    1
    53    23    51    1
    54    25    52    1
    55    26    53    1
    56    29    54    1
    57    30    55    1
    58    31    56    1
    59    34    57    1
    60    34    58    1
    61    34    59    1
