@<TRIPOS>MOLECULE
*****
 48 49 0 0 0
SMALL
USER_CHARGES

@<TRIPOS>ATOM
      1 C1         -7.6750   -8.6734   -1.1477 C.3     1  NONAME1    -0.0646
      2 C2         -6.6684   -8.4700    0.0000 C.3     1  NONAME1    -0.0450
      3 C3         -5.3347   -9.2400    0.0000 C.3     1  NONAME1     0.0328
      4 C4         -5.3347  -10.7800    0.0000 C.3     1  NONAME1    -0.0541
      5 C5         -4.0010   -8.4700    0.0000 C.2     1  NONAME1     0.2200
      6 O1         -4.1188   -7.2459   -0.1245 O.2     1  NONAME1    -0.2752
      7 N1         -2.7787   -9.1091    0.0913 N.am    1  NONAME1    -0.2853
      8 C6         -1.5054   -8.4382    0.0847 C.ar    1  NONAME1     0.0337
      9 C7         -1.4025   -7.0367    0.0806 C.ar    1  NONAME1    -0.0405
     10 C8         -0.1783   -6.3827    0.0579 C.ar    1  NONAME1    -0.0597
     11 C9          0.9810   -7.1269    0.0479 C.ar    1  NONAME1    -0.0570
     12 C10         0.9480   -8.5365    0.0605 C.ar    1  NONAME1    -0.0286
     13 C11         2.3275   -9.1411    0.0495 C.3     1  NONAME1     0.0372
     14 N2          2.5383  -10.5533   -0.0045 N.am    1  NONAME1    -0.3071
     15 C12         3.7226  -11.2473   -0.0481 C.2     1  NONAME1     0.2496
     16 O2          3.5970  -12.4703   -0.1306 O.2     1  NONAME1    -0.2700
     17 C13         5.1049  -10.6067   -0.0130 C.ar    1  NONAME1     0.1009
     18 C14         5.3792   -9.2848   -0.0216 C.ar    1  NONAME1    -0.0425
     19 C15         6.7131   -8.7267   -0.0380 C.ar    1  NONAME1    -0.0328
     20 C16         7.7880   -9.5241   -0.0286 C.ar    1  NONAME1     0.1227
     21 C17         9.2064   -8.9964   -0.0767 C.3     1  NONAME1     0.4323
     22 F1          9.7524   -8.9218    1.1626 F       1  NONAME1    -0.1645
     23 F2         10.0142   -9.7958   -0.8181 F       1  NONAME1    -0.1645
     24 F3          9.2773   -7.7517   -0.6160 F       1  NONAME1    -0.1645
     25 N3          7.5709  -10.8857   -0.0043 N.ar    1  NONAME1    -0.3183
     26 C18         6.3332  -11.4995    0.0074 C.ar    1  NONAME1     0.2613
     27 O3          6.2995  -12.7247    0.0362 O.2     1  NONAME1    -0.2671
     28 C19        -0.3051   -9.1893    0.0835 C.ar    1  NONAME1    -0.0358
     29 H1         -8.3454   -7.8426   -0.8443 H       1  NONAME1     0.0230
     30 H2         -8.6815   -8.8767   -2.2953 H       1  NONAME1     0.0230
     31 H3         -6.9927   -8.3113   -1.9447 H       1  NONAME1     0.0230
     32 H4         -7.1738   -8.5753    0.9808 H       1  NONAME1     0.0270
     33 H5         -6.4324   -7.3952   -0.0034 H       1  NONAME1     0.0270
     34 H6         -6.6684  -10.0100    0.0000 H       1  NONAME1     0.0391
     35 H7         -4.7972  -10.8809    0.9653 H       1  NONAME1     0.0237
     36 H8         -5.3347  -12.3200    0.0000 H       1  NONAME1     0.0237
     37 H9         -4.6405  -10.8859   -0.8577 H       1  NONAME1     0.0237
     38 H10        -2.7599  -10.1189    0.1216 H       1  NONAME1     0.1548
     39 H11        -2.2632   -6.3804    0.1005 H       1  NONAME1     0.0636
     40 H12        -0.1385   -5.2973    0.0483 H       1  NONAME1     0.0618
     41 H13         1.9321   -6.5958    0.0308 H       1  NONAME1     0.0621
     42 H14         2.8197   -8.7385   -0.8432 H       1  NONAME1     0.0512
     43 H15         2.8309   -8.7925    0.9585 H       1  NONAME1     0.0512
     44 H16         1.7372  -11.1670   -0.0661 H       1  NONAME1     0.1493
     45 H17         4.6373   -8.5071   -0.0358 H       1  NONAME1     0.0627
     46 H18         6.8145   -7.6437   -0.0643 H       1  NONAME1     0.0638
     47 H19         8.3612  -11.5246   -0.0117 H       1  NONAME1     0.1689
     48 H20        -0.3512  -10.2729    0.0906 H       1  NONAME1     0.0639
@<TRIPOS>BOND
     1     1     2    1
     2     3     2    1
     3     3     4    1
     4     3     5    1
     5     5     6    2
     6     5     7   am
     7     7     8    1
     8     8     9   ar
     9     9    10   ar
    10    10    11   ar
    11    11    12   ar
    12    12    13    1
    13    13    14    1
    14    14    15   am
    15    15    16    2
    16    15    17    1
    17    17    18   ar
    18    18    19   ar
    19    19    20   ar
    20    20    21    1
    21    21    22    1
    22    21    23    1
    23    21    24    1
    24    20    25   ar
    25    25    26   ar
    26    17    26   ar
    27    26    27    2
    28    12    28   ar
    29     8    28   ar
    30     1    29    1
    31     1    30    1
    32     1    31    1
    33     2    32    1
    34     2    33    1
    35     3    34    1
    36     4    35    1
    37     4    36    1
    38     4    37    1
    39     7    38    1
    40     9    39    1
    41    10    40    1
    42    11    41    1
    43    13    42    1
    44    13    43    1
    45    14    44    1
    46    18    45    1
    47    19    46    1
    48    25    47    1
    49    28    48    1
