REMARK  6 active torsions:
REMARK  status: ('A' for Active; 'I' for Inactive)
REMARK    1  A    between atoms: C2_2  and  O1_3 
REMARK    2  A    between atoms: O1_3  and  C3_4 
REMARK    3  A    between atoms: C3_4  and  C4_6 
REMARK    4  A    between atoms: C7_9  and  N1_10 
REMARK       I    between atoms: N1_10  and  C8_11 
REMARK       I    between atoms: C8_11  and  N2_13 
REMARK    5  A    between atoms: N2_13  and  C9_14 
REMARK    6  A    between atoms: C13_18  and  C12_17 
ROOT
ATOM      1  C9  NON d   1      -3.282  -2.025  -0.015  0.00  0.00     0.036 A 
ATOM      2  C10 NON d   1      -2.778  -0.718  -0.009  0.00  0.00     0.030 A 
ATOM      3  C11 NON d   1      -1.385  -0.472  -0.006  0.00  0.00     0.016 A 
ATOM      4  C12 NON d   1      -0.459  -1.525  -0.006  0.00  0.00    -0.009 A 
ATOM      5  C21 NON d   1      -0.979  -2.824  -0.003  0.00  0.00     0.016 A 
ATOM      6  C22 NON d   1      -2.358  -3.067  -0.005  0.00  0.00     0.030 A 
ENDROOT
BRANCH   1   7
ATOM      7  N2  NON d   1      -4.691  -2.233  -0.019  0.00  0.00    -0.309 N 
ATOM      8  C8  NON d   1      -5.333  -3.467  -0.106  0.00  0.00     0.325 C 
ATOM      9  N1  NON d   1      -6.716  -3.360  -0.004  0.00  0.00    -0.309 N 
ATOM     10  O3  NON d   1      -4.749  -4.534  -0.251  0.00  0.00    -0.247 OA
ATOM     11  H8  NON d   1      -7.107  -2.432   0.023  0.00  0.00     0.170 HD
ATOM     12  H9  NON d   1      -5.262  -1.403   0.002  0.00  0.00     0.170 HD
BRANCH   9  13
ATOM     13  C7  NON d   1      -7.639  -4.444   0.025  0.00  0.00     0.036 A 
ATOM     14  C6  NON d   1      -9.004  -4.158   0.059  0.00  0.00     0.030 A 
ATOM     15  C5  NON d   1      -9.977  -5.190   0.113  0.00  0.00     0.020 A 
ATOM     16  C4  NON d   1      -9.631  -6.551   0.139  0.00  0.00     0.039 A 
ATOM     17  C24 NON d   1      -8.248  -6.812   0.094  0.00  0.00     0.020 A 
ATOM     18  C23 NON d   1      -7.277  -5.790   0.038  0.00  0.00     0.030 A 
BRANCH  16  19
ATOM     19  C3  NON d   1     -10.534  -7.793   0.242  0.00  0.00     0.293 C 
ATOM     20  O2  NON d   1      -9.965  -8.882   0.345  0.00  0.00    -0.259 OA
BRANCH  19  21
ATOM     21  O1  NON d   1     -11.906  -7.813   0.237  0.00  0.00    -0.318 OA
BRANCH  21  22
ATOM     22  C2  NON d   1     -12.640  -6.638   0.000  0.00  0.00     0.174 C 
ATOM     23  C1  NON d   1     -14.180  -6.638   0.000  0.00  0.00     0.034 C 
ENDBRANCH  21  22
ENDBRANCH  19  21
ENDBRANCH  16  19
ENDBRANCH   9  13
ENDBRANCH   1   7
BRANCH   4  24
ATOM     24  C13 NON d   1       1.000  -1.299  -0.005  0.00  0.00     0.043 A 
ATOM     25  C14 NON d   1       1.764  -0.139  -0.004  0.00  0.00     0.044 A 
ATOM     26  C15 NON d   1       3.148  -0.490  -0.004  0.00  0.00    -0.006 A 
ATOM     27  C16 NON d   1       4.357   0.236  -0.003  0.00  0.00     0.037 A 
ATOM     28  C20 NON d   1       3.210  -1.878  -0.005  0.00  0.00     0.043 A 
ATOM     29  C17 NON d   1       5.569  -0.467  -0.004  0.00  0.00     0.035 A 
ATOM     30 Cl1  NON d   1       7.056   0.406  -0.003  0.00  0.00    -0.084 Cl
ATOM     31  C18 NON d   1       5.599  -1.859  -0.005  0.00  0.00     0.026 A 
ATOM     32  C19 NON d   1       4.413  -2.595  -0.006  0.00  0.00     0.032 A 
ATOM     33  N3  NON d   1       1.915  -2.334  -0.007  0.00  0.00    -0.355 N 
ATOM     34  H16 NON d   1       1.681  -3.315  -0.009  0.00  0.00     0.166 HD
ENDBRANCH   4  24
TORSDOF 6
