REMARK  12 active torsions:
REMARK  status: ('A' for Active; 'I' for Inactive)
REMARK    1  A    between atoms: C2_2  and  C4_4 
REMARK    2  A    between atoms: C4_4  and  O1_5 
REMARK    3  A    between atoms: O1_5  and  C5_6 
REMARK    4  A    between atoms: C8_9  and  N1_10 
REMARK       I    between atoms: N1_10  and  C9_11 
REMARK    5  A    between atoms: C9_11  and  C10_13 
REMARK    6  A    between atoms: C10_13  and  N2_14 
REMARK    7  A    between atoms: N2_14  and  C11_15 
REMARK    8  A    between atoms: C15_19  and  N3_20 
REMARK       I    between atoms: N3_20  and  C16_21 
REMARK    9  A    between atoms: C16_21  and  C17_23 
REMARK   10  A    between atoms: C17_23  and  C18_24 
REMARK   11  A    between atoms: C18_24  and  C19_25 
REMARK   12  A    between atoms: C19_25  and  C20_26 
ROOT
ATOM      1  N2  NON d   1       0.001   9.547  -0.121  0.00  0.00    -0.381 N 
ATOM      2  H13 NON d   1      -0.757   8.989   0.273  0.00  0.00     0.160 HD
ENDROOT
BRANCH   1   3
ATOM      3  C10 NON d   1      -0.232  11.007   0.014  0.00  0.00     0.223 C 
BRANCH   3   4
ATOM      4  C9  NON d   1      -1.755  11.391   0.054  0.00  0.00     0.239 C 
ATOM      5  N1  NON d   1      -1.986  12.776  -0.001  0.00  0.00    -0.326 N 
ATOM      6  H10 NON d   1      -1.166  13.366  -0.048  0.00  0.00     0.169 HD
ATOM      7  O2  NON d   1      -2.622  10.529   0.175  0.00  0.00    -0.271 OA
BRANCH   5   8
ATOM      8  C8  NON d   1      -3.238  13.475   0.010  0.00  0.00     0.034 A 
ATOM      9  C7  NON d   1      -3.217  14.879  -0.001  0.00  0.00     0.032 A 
ATOM     10  C6  NON d   1      -4.412  15.647   0.003  0.00  0.00     0.039 A 
ATOM     11  C5  NON d   1      -5.673  15.041   0.011  0.00  0.00     0.069 A 
ATOM     12  C24 NON d   1      -5.693  13.641   0.022  0.00  0.00     0.039 A 
ATOM     13  C23 NON d   1      -4.494  12.870   0.024  0.00  0.00     0.032 A 
BRANCH  11  14
ATOM     14  O1  NON d   1      -6.772  15.897   0.004  0.00  0.00    -0.347 OA
BRANCH  14  15
ATOM     15  C4  NON d   1      -8.067  15.271   0.006  0.00  0.00     0.208 C 
BRANCH  15  16
ATOM     16  C2  NON d   1      -9.336  16.170   0.000  0.00  0.00    -0.069 C 
ATOM     17  C1  NON d   1     -10.524  15.531  -0.058  0.00  0.00     0.016 C 
ATOM     18  C3  NON d   1      -9.336  17.710   0.000  0.00  0.00     0.044 C 
ENDBRANCH  15  16
ENDBRANCH  14  15
ENDBRANCH  11  14
ENDBRANCH   5   8
ENDBRANCH   3   4
ENDBRANCH   1   3
BRANCH   1  19
ATOM     19  C11 NON d   1       1.276   8.972  -0.026  0.00  0.00     0.030 A 
ATOM     20  C12 NON d   1       2.450   9.720  -0.104  0.00  0.00     0.029 A 
ATOM     21  C13 NON d   1       3.708   9.106  -0.100  0.00  0.00     0.004 A 
ATOM     22  C14 NON d   1       3.831   7.714  -0.049  0.00  0.00     0.029 A 
ATOM     23  C15 NON d   1       2.700   6.911   0.001  0.00  0.00     0.036 A 
ATOM     24  C22 NON d   1       1.431   7.560   0.005  0.00  0.00     0.058 A 
BRANCH  23  25
ATOM     25  N3  NON d   1       2.717   5.494   0.048  0.00  0.00    -0.327 N 
ATOM     26  C16 NON d   1       3.693   4.521   0.058  0.00  0.00     0.222 C 
ATOM     27  O3  NON d   1       3.317   3.347   0.136  0.00  0.00    -0.273 OA
ATOM     28  H17 NON d   1       1.805   5.052   0.102  0.00  0.00     0.169 HD
BRANCH  26  29
ATOM     29  C17 NON d   1       5.169   4.866  -0.021  0.00  0.00     0.103 C 
BRANCH  29  30
ATOM     30  C18 NON d   1       6.164   3.703   0.147  0.00  0.00     0.009 C 
BRANCH  30  31
ATOM     31  C19 NON d   1       6.578   2.973  -1.141  0.00  0.00     0.000 C 
BRANCH  31  32
ATOM     32  C20 NON d   1       5.794   1.686  -1.394  0.00  0.00    -0.005 C 
ATOM     33  C21 NON d   1       6.386   0.884  -2.547  0.00  0.00     0.005 C 
ENDBRANCH  31  32
ENDBRANCH  30  31
ENDBRANCH  29  30
ENDBRANCH  26  29
ENDBRANCH  23  25
ENDBRANCH   1  19
TORSDOF 12
