REMARK  6 active torsions:
REMARK  status: ('A' for Active; 'I' for Inactive)
REMARK    1  A    between atoms: C2_2  and  C3_3 
REMARK    2  A    between atoms: C2_2  and  C15_21 
REMARK    3  A    between atoms: C3_3  and  C4_4 
REMARK       I    between atoms: C4_4  and  N1_6 
REMARK    4  A    between atoms: N1_6  and  N2_7 
REMARK       I    between atoms: N2_7  and  C5_8 
REMARK    5  A    between atoms: C5_8  and  C6_10 
REMARK    6  A    between atoms: C8_12  and  C9_13 
ROOT
ATOM      1  N2  NON d   1       2.821 -11.945  -0.294  0.00  0.00    -0.262 N 
ATOM      2  C5  NON d   1       3.952 -11.138  -0.189  0.00  0.00     0.288 C 
ATOM      3  O2  NON d   1       3.829  -9.912  -0.144  0.00  0.00    -0.264 OA
ATOM      4  H8  NON d   1       2.818 -12.957  -0.376  0.00  0.00     0.190 HD
ENDROOT
BRANCH   2   5
ATOM      5  C6  NON d   1       5.250 -11.787  -0.142  0.00  0.00     0.121 A 
ATOM      6  C7  NON d   1       6.510 -11.200  -0.099  0.00  0.00     0.071 A 
ATOM      7  C8  NON d   1       7.469 -12.255  -0.074  0.00  0.00     0.089 A 
ATOM      8  N3  NON d   1       6.826 -13.434  -0.089  0.00  0.00    -0.174 NA
ATOM      9  N4  NON d   1       5.520 -13.125  -0.123  0.00  0.00    -0.272 N 
ATOM     10  H15 NON d   1       4.863 -13.896  -0.130  0.00  0.00     0.189 HD
BRANCH   7  11
ATOM     11  C9  NON d   1       8.945 -12.172  -0.041  0.00  0.00    -0.006 A 
ATOM     12  C10 NON d   1       9.614 -10.938  -0.033  0.00  0.00     0.014 A 
ATOM     13  C11 NON d   1      11.016 -10.875  -0.008  0.00  0.00     0.001 A 
ATOM     14  C12 NON d   1      11.773 -12.044   0.010  0.00  0.00     0.000 A 
ATOM     15  C13 NON d   1      11.129 -13.279   0.002  0.00  0.00     0.001 A 
ATOM     16  C14 NON d   1       9.730 -13.340  -0.020  0.00  0.00     0.014 A 
ENDBRANCH   7  11
ENDBRANCH   2   5
BRANCH   1  17
ATOM     17  N1  NON d   1       1.549 -11.318  -0.396  0.00  0.00    -0.267 N 
ATOM     18  C4  NON d   1       0.397 -12.093  -0.453  0.00  0.00     0.236 C 
ATOM     19  O1  NON d   1       0.437 -13.321  -0.490  0.00  0.00    -0.272 OA
ATOM     20  H7  NON d   1       1.545 -10.301  -0.313  0.00  0.00     0.190 HD
BRANCH  18  21
ATOM     21  C3  NON d   1      -0.905 -11.275  -0.516  0.00  0.00     0.109 C 
BRANCH  21  22
ATOM     22  C2  NON d   1      -2.233 -12.001   0.000  0.00  0.00    -0.006 C 
ATOM     23  C1  NON d   1      -2.572 -12.953   1.162  0.00  0.00     0.011 C 
BRANCH  22  24
ATOM     24  C15 NON d   1      -3.227 -11.820  -1.162  0.00  0.00    -0.010 A 
ATOM     25  C16 NON d   1      -4.692 -12.170  -1.059  0.00  0.00     0.005 A 
ATOM     26  C17 NON d   1      -4.260 -10.732  -1.029  0.00  0.00     0.005 A 
ENDBRANCH  22  24
ENDBRANCH  21  22
ENDBRANCH  18  21
ENDBRANCH   1  17
TORSDOF 6
