REMARK  5 active torsions:
REMARK  status: ('A' for Active; 'I' for Inactive)
REMARK    1  A    between atoms: C2_2  and  O1_3 
REMARK    2  A    between atoms: O1_3  and  C3_4 
REMARK    3  A    between atoms: C6_7  and  C5_6 
REMARK    4  A    between atoms: C8_9  and  C9_10 
REMARK    5  A    between atoms: C21_26  and  O3_27 
ROOT
ATOM      1  C6  NON d   1       2.538   1.178   0.653  0.00  0.00     0.158 A 
ATOM      2  C7  NON d   1       3.740   0.831  -0.149  0.00  0.00     0.034 A 
ATOM      3  C8  NON d   1       5.019   1.245  -0.563  0.00  0.00     0.098 A 
ATOM      4  N1  NON d   1       5.656   0.233  -1.199  0.00  0.00    -0.173 NA
ATOM      5  N2  NON d   1       4.769  -0.786  -1.222  0.00  0.00    -0.272 N 
ATOM      6  C16 NON d   1       3.622  -0.448  -0.619  0.00  0.00     0.129 A 
ATOM      7  C17 NON d   1       2.385  -1.048  -0.296  0.00  0.00     0.273 A 
ATOM      8  O2  NON d   1       2.005  -2.175  -0.571  0.00  0.00    -0.266 OA
ATOM      9  N3  NON d   1       1.715  -0.050   0.419  0.00  0.00    -0.338 N 
ATOM     10  C18 NON d   1       0.434  -0.276   1.048  0.00  0.00     0.154 C 
ATOM     11  H15 NON d   1       5.038  -1.670  -1.642  0.00  0.00     0.189 HD
ENDROOT
BRANCH   1  12
ATOM     12  C5  NON d   1       1.951   2.493   0.207  0.00  0.00    -0.028 A 
ATOM     13  C4  NON d   1       2.509   3.686   0.710  0.00  0.00     0.049 A 
ATOM     14  C3  NON d   1       1.975   4.948   0.417  0.00  0.00     0.102 A 
ATOM     15  C21 NON d   1       0.787   5.015  -0.309  0.00  0.00     0.099 A 
ATOM     16  C20 NON d   1       0.227   3.853  -0.844  0.00  0.00     0.040 A 
ATOM     17  C19 NON d   1       0.825   2.608  -0.617  0.00  0.00     0.012 A 
BRANCH  14  18
ATOM     18  O1  NON d   1       2.707   5.985   0.927  0.00  0.00    -0.349 OA
BRANCH  18  19
ATOM     19  C2  NON d   1       2.529   7.269   0.330  0.00  0.00     0.171 C 
ATOM     20  C1  NON d   1       3.820   8.055   0.491  0.00  0.00     0.034 C 
ENDBRANCH  18  19
ENDBRANCH  14  18
BRANCH  15  21
ATOM     21  O3  NON d   1       0.132   6.203  -0.484  0.00  0.00    -0.358 OA
ATOM     22  H21 NON d   1      -0.761   6.024  -0.820  0.00  0.00     0.217 HD
ENDBRANCH  15  21
ENDBRANCH   1  12
BRANCH   3  23
ATOM     23  C9  NON d   1       5.688   2.526  -0.405  0.00  0.00    -0.005 A 
ATOM     24  C10 NON d   1       5.237   3.640  -1.119  0.00  0.00     0.014 A 
ATOM     25  C11 NON d   1       5.908   4.861  -1.021  0.00  0.00     0.007 A 
ATOM     26  C12 NON d   1       7.042   4.985  -0.211  0.00  0.00    -0.062 A 
ATOM     27  C13 NON d   1       7.796   6.281  -0.156  0.00  0.00     0.048 C 
ATOM     28  C14 NON d   1       7.508   3.862   0.483  0.00  0.00     0.007 A 
ATOM     29  C15 NON d   1       6.835   2.639   0.388  0.00  0.00     0.014 A 
ENDBRANCH   3  23
TORSDOF 5
