REMARK  9 active torsions:
REMARK  status: ('A' for Active; 'I' for Inactive)
REMARK    1  A    between atoms: C6_6  and  C5_5 
REMARK    2  A    between atoms: C6_6  and  N1_7 
REMARK    3  A    between atoms: C6_6  and  C22_28 
REMARK    4  A    between atoms: N1_7  and  C7_8 
REMARK    5  A    between atoms: C7_8  and  C8_9 
REMARK       I    between atoms: C8_9  and  N2_11 
REMARK    6  A    between atoms: N2_11  and  C10_13 
REMARK    7  A    between atoms: C15_18  and  C16_19 
REMARK       I    between atoms: C16_19  and  N3_21 
REMARK    8  A    between atoms: N3_21  and  C17_22 
REMARK    9  A    between atoms: C17_22  and  C18_23 
ROOT
ATOM      1  C8  NON d   1       2.713  -6.281  -0.126  0.00  0.00     0.249 C 
ATOM      2  O1  NON d   1       2.492  -5.068  -0.039  0.00  0.00    -0.271 OA
ATOM      3  N2  NON d   1       4.001  -6.930   0.000  0.00  0.00    -0.320 N 
ATOM      4  C9  NON d   1       4.001  -8.470   0.000  0.00  0.00     0.159 C 
ENDROOT
BRANCH   1   5
ATOM      5  C7  NON d   1       1.414  -7.178  -0.415  0.00  0.00     0.336 C 
BRANCH   5   6
ATOM      6  N1  NON d   1       0.099  -6.333  -0.479  0.00  0.00    -0.054 N 
ATOM      7  H7  NON d   1       0.286  -5.523   0.139  0.00  0.00     0.278 HD
ATOM      8  H8  NON d   1       0.019  -5.876  -1.390  0.00  0.00     0.278 HD
BRANCH   6   9
ATOM      9  C6  NON d   1      -1.334  -6.930   0.018  0.00  0.00     0.259 C 
BRANCH   9  10
ATOM     10  C5  NON d   1      -1.687  -8.106   1.240  0.00  0.00    -0.023 A 
ATOM     11  C4  NON d   1      -0.941  -8.157   2.539  0.00  0.00     0.010 A 
ATOM     12  C3  NON d   1      -1.217  -8.960   3.624  0.00  0.00     0.007 A 
ATOM     13  C2  NON d   1      -2.334  -9.734   3.551  0.00  0.00    -0.062 A 
ATOM     14  C1  NON d   1      -2.667 -10.669   4.729  0.00  0.00     0.048 C 
ATOM     15  C27 NON d   1      -3.073  -9.777   2.331  0.00  0.00     0.007 A 
ATOM     16  C26 NON d   1      -2.750  -8.997   1.183  0.00  0.00     0.010 A 
ENDBRANCH   9  10
BRANCH   9  17
ATOM     17  C22 NON d   1      -2.334  -6.765  -1.141  0.00  0.00     0.017 C 
ATOM     18  C23 NON d   1      -2.103  -6.544  -2.493  0.00  0.00     0.017 C 
ATOM     19  C24 NON d   1      -3.303  -6.345  -3.240  0.00  0.00     0.008 C 
ATOM     20  C25 NON d   1      -4.422  -6.464  -2.453  0.00  0.00     0.050 C 
ATOM     21  S1  NON d   1      -4.018  -6.618  -0.804  0.00  0.00    -0.104 SA
ENDBRANCH   9  17
ENDBRANCH   6   9
ENDBRANCH   5   6
ENDBRANCH   1   5
BRANCH   3  22
ATOM     22  C10 NON d   1       5.292  -6.276  -0.048  0.00  0.00     0.052 A 
ATOM     23  C11 NON d   1       5.377  -4.884  -0.220  0.00  0.00     0.031 A 
ATOM     24  C12 NON d   1       6.608  -4.225  -0.348  0.00  0.00     0.002 A 
ATOM     25  C13 NON d   1       7.798  -4.941  -0.319  0.00  0.00     0.001 A 
ATOM     26  C14 NON d   1       7.763  -6.318  -0.135  0.00  0.00     0.019 A 
ATOM     27  C15 NON d   1       6.531  -6.975   0.009  0.00  0.00     0.058 A 
BRANCH  27  28
ATOM     28  C16 NON d   1       6.619  -8.418   0.342  0.00  0.00     0.254 C 
ATOM     29  O2  NON d   1       6.392  -8.767   1.497  0.00  0.00    -0.268 OA
ATOM     30  N3  NON d   1       6.816  -9.279  -0.706  0.00  0.00    -0.351 N 
ATOM     31  H18 NON d   1       6.980  -8.925  -1.639  0.00  0.00     0.163 HD
BRANCH  30  32
ATOM     32  C17 NON d   1       6.522 -10.691  -0.545  0.00  0.00     0.187 C 
BRANCH  32  33
ATOM     33  C18 NON d   1       7.728 -11.532  -0.451  0.00  0.00     0.070 A 
ATOM     34  C19 NON d   1       9.075 -11.299  -0.277  0.00  0.00     0.036 A 
ATOM     35  C20 NON d   1       9.687 -12.573  -0.180  0.00  0.00     0.027 A 
ATOM     36  C21 NON d   1       8.681 -13.499  -0.304  0.00  0.00     0.142 A 
ATOM     37  O3  NON d   1       7.490 -12.876  -0.483  0.00  0.00    -0.325 OA
ENDBRANCH  32  33
ENDBRANCH  30  32
ENDBRANCH  27  28
ENDBRANCH   3  22
TORSDOF 9
