@<TRIPOS>MOLECULE
*****
 33 34 0 0 0
SMALL
USER_CHARGES

@<TRIPOS>ATOM
      1 O1          3.6974   -6.9198   -0.4388 O.2     1  NONAME1    -0.2525
      2 C1          3.7737   -5.7272   -0.1717 C.2     1  NONAME1     0.3041
      3 N1          2.6583   -4.9306   -0.0041 N.am    1  NONAME1    -0.2950
      4 C2          1.3625   -5.5776   -0.0658 C.3     1  NONAME1     0.0383
      5 C3          0.1648   -4.6642   -0.0267 C.ar    1  NONAME1    -0.0302
      6 C4         -1.1034   -5.2647    0.0550 C.ar    1  NONAME1    -0.0563
      7 C5         -2.2685   -4.4939    0.0762 C.ar    1  NONAME1    -0.0473
      8 C6         -2.2052   -3.0962    0.0195 C.ar    1  NONAME1     0.0632
      9 C7         -3.4700   -2.2591    0.0454 C.2     1  NONAME1     0.3865
     10 O2         -3.3287   -0.9955    0.0110 O.co2   1  NONAME1    -0.2406
     11 O3         -4.5778   -2.8812    0.1019 O.co2   1  NONAME1    -0.2406
     12 C8         -0.9388   -2.4972   -0.0690 C.ar    1  NONAME1    -0.0473
     13 C9          0.2317   -3.2682   -0.0996 C.ar    1  NONAME1    -0.0563
     14 N2          4.9362   -5.0041   -0.0189 N.am    1  NONAME1    -0.2694
     15 C10         6.2539   -5.5097   -0.0185 C.ar    1  NONAME1     0.0362
     16 C11         7.3026   -4.5832   -0.0366 C.ar    1  NONAME1    -0.0390
     17 C12         8.6341   -5.0137   -0.0264 C.ar    1  NONAME1    -0.0402
     18 C13         8.9325   -6.3775    0.0066 C.ar    1  NONAME1     0.0594
     19 Cl1        10.5967   -6.8389    0.0213 Cl      1  NONAME1    -0.0820
     20 C14         7.8926   -7.3097    0.0321 C.ar    1  NONAME1     0.0610
     21 Cl2         8.1819   -9.0139    0.0833 Cl      1  NONAME1    -0.0820
     22 C15         6.5609   -6.8741    0.0224 C.ar    1  NONAME1    -0.0207
     23 H1          2.7450   -4.2124    0.6981 H       1  NONAME1     0.1506
     24 H2          1.3145   -6.2615    0.7915 H       1  NONAME1     0.0512
     25 H3          1.3220   -6.1770   -0.9831 H       1  NONAME1     0.0512
     26 H4         -1.1979   -6.3475    0.0942 H       1  NONAME1     0.0621
     27 H5         -3.2419   -4.9791    0.1330 H       1  NONAME1     0.0626
     28 H6         -0.8766   -1.4108   -0.1219 H       1  NONAME1     0.0626
     29 H7          1.1799   -2.7496   -0.1925 H       1  NONAME1     0.0621
     30 H8          4.8196   -4.0022   -0.0670 H       1  NONAME1     0.1564
     31 H9          7.1016   -3.5149   -0.0640 H       1  NONAME1     0.0636
     32 H10         9.4353   -4.2786   -0.0448 H       1  NONAME1     0.0633
     33 H11         5.7776   -7.6258    0.0545 H       1  NONAME1     0.0651
@<TRIPOS>BOND
     1     1     2    2
     2     2     3   am
     3     3     4    1
     4     4     5    1
     5     5     6   ar
     6     6     7   ar
     7     7     8   ar
     8     8     9    1
     9     9    10   ar
    10     9    11   ar
    11     8    12   ar
    12    12    13   ar
    13     5    13   ar
    14     2    14   am
    15    14    15    1
    16    15    16   ar
    17    16    17   ar
    18    17    18   ar
    19    18    19    1
    20    18    20   ar
    21    20    21    1
    22    20    22   ar
    23    15    22   ar
    24     3    23    1
    25     4    24    1
    26     4    25    1
    27     6    26    1
    28     7    27    1
    29    12    28    1
    30    13    29    1
    31    14    30    1
    32    16    31    1
    33    17    32    1
    34    22    33    1
