@<TRIPOS>MOLECULE
*****
 48 50 0 0 0
SMALL
USER_CHARGES

@<TRIPOS>ATOM
      1 O1          7.3601   -2.9542    1.2920 O.2     1  NONAME1    -0.2525
      2 C1          6.5221   -2.5113    0.5143 C.2     1  NONAME1     0.3042
      3 N1          5.4493   -3.2140    0.0049 N.am    1  NONAME1    -0.2664
      4 C2          5.3524   -4.6274   -0.0002 C.ar    1  NONAME1     0.0768
      5 C3          6.5135   -5.4179    0.0037 C.ar    1  NONAME1    -0.0369
      6 C4          6.4393   -6.8085   -0.0392 C.ar    1  NONAME1    -0.0598
      7 C5          5.1999   -7.4280   -0.0899 C.ar    1  NONAME1    -0.0582
      8 C6          4.0358   -6.6569   -0.1077 C.ar    1  NONAME1    -0.0181
      9 C7          4.0905   -5.2514   -0.0723 C.ar    1  NONAME1     0.1421
     10 O2          2.9720   -4.4345   -0.0897 O.3     1  NONAME1    -0.4855
     11 C8          1.7193   -5.1356   -0.0563 C.3     1  NONAME1     0.1147
     12 C9          0.4835   -4.2617   -0.0520 C.ar    1  NONAME1    -0.0104
     13 C10        -0.7717   -4.9000   -0.0953 C.ar    1  NONAME1    -0.0554
     14 C11        -1.9558   -4.1627   -0.0871 C.ar    1  NONAME1    -0.0614
     15 C12        -1.9020   -2.7744   -0.0336 C.ar    1  NONAME1    -0.0617
     16 C13        -0.6654   -2.1280    0.0140 C.ar    1  NONAME1    -0.0614
     17 C14         0.5232   -2.8666    0.0067 C.ar    1  NONAME1    -0.0554
     18 N2          6.5770   -1.2241    0.0182 N.am    1  NONAME1    -0.2963
     19 C15         7.7240   -0.3722    0.3307 C.3     1  NONAME1     0.0246
     20 C16         7.4616    1.0743   -0.1067 C.3     1  NONAME1    -0.0345
     21 C17         8.6421    1.9876    0.2246 C.3     1  NONAME1    -0.0514
     22 C18         9.9546    1.4646   -0.3537 C.3     1  NONAME1    -0.0529
     23 C19        10.2103    0.0150    0.0431 C.3     1  NONAME1    -0.0514
     24 C20         9.0268   -0.8835   -0.3120 C.3     1  NONAME1    -0.0345
     25 H1          4.5752   -2.7123   -0.0792 H       1  NONAME1     0.1565
     26 H2          7.5003   -4.9622    0.0221 H       1  NONAME1     0.0637
     27 H3          7.3504   -7.4002   -0.0350 H       1  NONAME1     0.0618
     28 H4          5.1345   -8.5126   -0.1176 H       1  NONAME1     0.0619
     29 H5          3.0988   -7.2024   -0.1493 H       1  NONAME1     0.0655
     30 H6          1.6459   -5.7679   -0.9507 H       1  NONAME1     0.0748
     31 H7          1.6751   -5.7458    0.8555 H       1  NONAME1     0.0748
     32 H8         -0.8303   -5.9864   -0.1347 H       1  NONAME1     0.0621
     33 H9         -2.9159   -4.6720   -0.1207 H       1  NONAME1     0.0618
     34 H10        -2.8209   -2.1952   -0.0264 H       1  NONAME1     0.0618
     35 H11        -0.6270   -1.0430    0.0592 H       1  NONAME1     0.0618
     36 H12         1.4743   -2.3423    0.0497 H       1  NONAME1     0.0621
     37 H13         6.1467   -1.1094   -0.8882 H       1  NONAME1     0.1505
     38 H14         7.8447   -0.3939    1.4220 H       1  NONAME1     0.0499
     39 H15         6.5561    1.4569    0.3782 H       1  NONAME1     0.0283
     40 H16         7.2722    1.1066   -1.1878 H       1  NONAME1     0.0283
     41 H17         8.7364    2.0767    1.3139 H       1  NONAME1     0.0266
     42 H18         8.4486    2.9950   -0.1612 H       1  NONAME1     0.0266
     43 H19         9.9289    1.5419   -1.4475 H       1  NONAME1     0.0265
     44 H20        10.7854    2.0919   -0.0101 H       1  NONAME1     0.0265
     45 H21        10.3988   -0.0406    1.1227 H       1  NONAME1     0.0266
     46 H22        11.1153   -0.3505   -0.4558 H       1  NONAME1     0.0266
     47 H23         9.2535   -1.9038    0.0155 H       1  NONAME1     0.0283
     48 H24         8.9120   -0.9289   -1.4026 H       1  NONAME1     0.0283
@<TRIPOS>BOND
     1     1     2    2
     2     2     3   am
     3     3     4    1
     4     4     5   ar
     5     5     6   ar
     6     6     7   ar
     7     7     8   ar
     8     8     9   ar
     9     4     9   ar
    10     9    10    1
    11    10    11    1
    12    11    12    1
    13    12    13   ar
    14    13    14   ar
    15    14    15   ar
    16    15    16   ar
    17    16    17   ar
    18    12    17   ar
    19     2    18   am
    20    18    19    1
    21    19    20    1
    22    20    21    1
    23    21    22    1
    24    22    23    1
    25    23    24    1
    26    19    24    1
    27     3    25    1
    28     5    26    1
    29     6    27    1
    30     7    28    1
    31     8    29    1
    32    11    30    1
    33    11    31    1
    34    13    32    1
    35    14    33    1
    36    15    34    1
    37    16    35    1
    38    17    36    1
    39    18    37    1
    40    19    38    1
    41    20    39    1
    42    20    40    1
    43    21    41    1
    44    21    42    1
    45    22    43    1
    46    22    44    1
    47    23    45    1
    48    23    46    1
    49    24    47    1
    50    24    48    1
