REMARK  4 active torsions:
REMARK  status: ('A' for Active; 'I' for Inactive)
REMARK    1  A    between atoms: C4_4  and  O1_5 
REMARK    2  A    between atoms: O1_5  and  C5_6 
REMARK    3  A    between atoms: C14_16  and  N2_17 
REMARK       I    between atoms: N2_17  and  C15_18 
REMARK    4  A    between atoms: C15_18  and  C16_20 
ROOT
ATOM      1  C5  NON d   1      -6.565   3.489   0.032  0.00  0.00     0.076 A 
ATOM      2  C6  NON d   1      -7.935   3.800  -0.029  0.00  0.00     0.039 A 
ATOM      3  C7  NON d   1      -8.404   5.125  -0.040  0.00  0.00     0.025 A 
ATOM      4  C8  NON d   1      -7.503   6.188  -0.012  0.00  0.00     0.044 A 
ATOM      5  C9  NON d   1      -7.968   7.547  -0.024  0.00  0.00     0.099 C 
ATOM      6  N1  NON d   1      -8.319   8.650  -0.036  0.00  0.00    -0.191 NA
ATOM      7  C10 NON d   1      -6.142   5.905   0.065  0.00  0.00     0.025 A 
ATOM      8  C11 NON d   1      -5.687   4.572   0.117  0.00  0.00     0.039 A 
ENDROOT
BRANCH   1   9
ATOM      9  O1  NON d   1      -6.330   2.124   0.036  0.00  0.00    -0.311 OA
BRANCH   9  10
ATOM     10  C4  NON d   1      -5.125   1.462  -0.030  0.00  0.00     0.076 A 
ATOM     11  C3  NON d   1      -5.174   0.042   0.033  0.00  0.00     0.046 A 
ATOM     12  C2  NON d   1      -4.001  -0.770   0.000  0.00  0.00    -0.033 A 
ATOM     13  C1  NON d   1      -4.001  -2.310   0.000  0.00  0.00     0.050 C 
ATOM     14  C14 NON d   1      -2.732  -0.113  -0.064  0.00  0.00     0.041 A 
ATOM     15  C13 NON d   1      -2.725   1.277  -0.180  0.00  0.00     0.033 A 
ATOM     16  C12 NON d   1      -3.886   2.039  -0.188  0.00  0.00     0.039 A 
BRANCH  14  17
ATOM     17  N2  NON d   1      -1.477  -0.820  -0.044  0.00  0.00    -0.321 N 
ATOM     18  C15 NON d   1      -0.232  -0.209   0.104  0.00  0.00     0.272 C 
ATOM     19  O2  NON d   1      -0.055   0.989   0.329  0.00  0.00    -0.266 OA
ATOM     20  H11 NON d   1      -1.522  -1.825  -0.098  0.00  0.00     0.169 HD
BRANCH  18  21
ATOM     21  C16 NON d   1       1.012  -1.067   0.018  0.00  0.00     0.104 A 
ATOM     22  C17 NON d   1       2.178  -0.394  -0.010  0.00  0.00     0.048 A 
ATOM     23  C18 NON d   1       3.454  -1.104  -0.030  0.00  0.00    -0.018 A 
ATOM     24  C19 NON d   1       4.667  -0.401  -0.026  0.00  0.00     0.012 A 
ATOM     25  C23 NON d   1       3.459  -2.502  -0.032  0.00  0.00     0.042 A 
ATOM     26  C20 NON d   1       5.878  -1.095  -0.017  0.00  0.00     0.001 A 
ATOM     27  C21 NON d   1       5.883  -2.491  -0.014  0.00  0.00     0.001 A 
ATOM     28  C22 NON d   1       4.675  -3.198  -0.022  0.00  0.00     0.018 A 
ATOM     29  C24 NON d   1       2.153  -3.218  -0.024  0.00  0.00     0.257 A 
ATOM     30  O3  NON d   1       2.088  -4.443  -0.032  0.00  0.00    -0.267 OA
ATOM     31  N3  NON d   1       1.006  -2.442   0.001  0.00  0.00    -0.318 N 
ATOM     32  H17 NON d   1       0.148  -2.967   0.034  0.00  0.00     0.169 HD
ENDBRANCH  18  21
ENDBRANCH  14  17
ENDBRANCH   9  10
ENDBRANCH   1   9
TORSDOF 4
