@<TRIPOS>MOLECULE
*****
 62 65 0 0 0
SMALL
USER_CHARGES

@<TRIPOS>ATOM
      1 C1        -10.7057    7.6936   -0.6708 C.3     1  NONAME1     0.0790
      2 O1         -9.5573    8.2579   -0.0550 O.3     1  NONAME1    -0.4915
      3 C2         -8.3716    7.5801   -0.0669 C.ar    1  NONAME1     0.1615
      4 C3         -7.2730    8.4146    0.1628 C.ar    1  NONAME1    -0.0160
      5 C4         -5.9618    7.9197    0.1754 C.ar    1  NONAME1    -0.0544
      6 C5         -5.6906    6.5570   -0.0289 C.ar    1  NONAME1    -0.0335
      7 C6         -4.2205    6.1302   -0.0649 C.3     1  NONAME1     0.0645
      8 C7         -3.8548    4.6701    0.1677 C.2     1  NONAME1     0.2797
      9 O2         -4.6735    3.7932    0.4417 O.2     1  NONAME1    -0.2570
     10 N1         -2.4819    4.3785    0.0603 N.am    1  NONAME1    -0.1741
     11 C8         -1.8920    3.1102   -0.0084 C.2     1  NONAME1     0.3844
     12 N2         -0.6142    3.1652   -0.2284 N.pl3   1  NONAME1    -0.1144
     13 C9          0.0716    1.8943   -0.5327 C.3     1  NONAME1     0.1085
     14 C10         1.6153    1.8941   -0.4779 C.3     1  NONAME1     0.0086
     15 C11         2.1801    0.4680   -0.5005 C.ar    1  NONAME1    -0.0193
     16 C12         3.5423    0.0370   -0.2883 C.ar    1  NONAME1     0.0029
     17 C13         4.7691    0.6885   -0.0418 C.ar    1  NONAME1    -0.0523
     18 C14         5.9425   -0.0668    0.1278 C.ar    1  NONAME1    -0.0611
     19 C15         5.9143   -1.4582    0.0699 C.ar    1  NONAME1    -0.0598
     20 C16         4.7194   -2.1372   -0.1677 C.ar    1  NONAME1    -0.0378
     21 C17         3.5606   -1.3640   -0.3451 C.ar    1  NONAME1     0.0467
     22 N3          2.2767   -1.7747   -0.5929 N.ar    1  NONAME1    -0.3604
     23 C18         1.4516   -0.6942   -0.7129 C.ar    1  NONAME1     0.0060
     24 N4         -2.7895    2.0718    0.0730 N.pl3   1  NONAME1    -0.2449
     25 C19        -2.6896    0.7008    0.3507 C.ar    1  NONAME1     0.0998
     26 C20        -1.8746    0.1496    1.3425 C.ar    1  NONAME1    -0.0232
     27 C21        -1.7357   -1.2377    1.4626 C.ar    1  NONAME1    -0.0585
     28 C22        -2.4799   -2.0878    0.6475 C.ar    1  NONAME1    -0.0615
     29 C23        -3.3825   -1.5524   -0.2660 C.ar    1  NONAME1    -0.0585
     30 C24        -3.4878   -0.1686   -0.4066 C.ar    1  NONAME1    -0.0232
     31 C25        -6.7983    5.7223   -0.2715 C.ar    1  NONAME1    -0.0126
     32 C26        -8.1263    6.2174   -0.2574 C.ar    1  NONAME1     0.1618
     33 O3         -9.1160    5.3072   -0.5288 O.3     1  NONAME1    -0.4914
     34 C27        -9.8511    4.9383    0.6399 C.3     1  NONAME1     0.0790
     35 H1        -11.3351    8.5215   -1.0155 H       1  NONAME1     0.0660
     36 H2        -11.2917    7.1435    0.0701 H       1  NONAME1     0.0660
     37 H3        -10.4780    7.0781   -1.5450 H       1  NONAME1     0.0660
     38 H4         -7.4408    9.4801    0.3114 H       1  NONAME1     0.0655
     39 H5         -5.1496    8.6272    0.3320 H       1  NONAME1     0.0622
     40 H6         -3.6878    6.6992    0.7091 H       1  NONAME1     0.0422
     41 H7         -3.8166    6.4258   -1.0413 H       1  NONAME1     0.0422
     42 H8         -1.8205    5.1230   -0.1085 H       1  NONAME1     0.2542
     43 H9         -0.1947    1.1690    0.2149 H       1  NONAME1     0.0696
     44 H10        -0.2543    1.5359   -1.5168 H       1  NONAME1     0.0696
     45 H11         1.9502    2.3831    0.4454 H       1  NONAME1     0.0346
     46 H12         2.0272    2.4611   -1.3198 H       1  NONAME1     0.0346
     47 H13         4.8131    1.7719    0.0106 H       1  NONAME1     0.0624
     48 H14         6.8876    0.4392    0.3076 H       1  NONAME1     0.0618
     49 H15         6.8311   -2.0268    0.2073 H       1  NONAME1     0.0618
     50 H16         4.6887   -3.2179   -0.2079 H       1  NONAME1     0.0638
     51 H17         1.9880   -2.7395   -0.6759 H       1  NONAME1     0.1653
     52 H18         0.3997   -0.8493   -0.9142 H       1  NONAME1     0.0810
     53 H19        -3.7601    2.3750    0.1856 H       1  NONAME1     0.2646
     54 H20        -1.2922    0.7948    1.9977 H       1  NONAME1     0.0652
     55 H21        -1.0305   -1.6501    2.1801 H       1  NONAME1     0.0619
     56 H22        -2.3635   -3.1649    0.7293 H       1  NONAME1     0.0618
     57 H23        -3.9913   -2.2051   -0.8850 H       1  NONAME1     0.0619
     58 H24        -4.1781    0.2389   -1.1420 H       1  NONAME1     0.0652
     59 H25        -6.6630    4.6625   -0.4766 H       1  NONAME1     0.0658
     60 H26        -9.7986    5.6753    1.4491 H       1  NONAME1     0.0660
     61 H27       -10.9018    4.8260    0.3490 H       1  NONAME1     0.0660
     62 H28        -9.5002    3.9680    1.0011 H       1  NONAME1     0.0660
@<TRIPOS>BOND
     1     1     2    1
     2     2     3    1
     3     3     4   ar
     4     4     5   ar
     5     5     6   ar
     6     6     7    1
     7     7     8    1
     8     8     9    2
     9     8    10   am
    10    10    11    1
    11    11    12    2
    12    12    13    1
    13    13    14    1
    14    14    15    1
    15    15    16   ar
    16    16    17   ar
    17    17    18   ar
    18    18    19   ar
    19    19    20   ar
    20    20    21   ar
    21    16    21   ar
    22    21    22   ar
    23    22    23   ar
    24    15    23   ar
    25    11    24    1
    26    24    25    1
    27    25    26   ar
    28    26    27   ar
    29    27    28   ar
    30    28    29   ar
    31    29    30   ar
    32    25    30   ar
    33     6    31   ar
    34    31    32   ar
    35     3    32   ar
    36    32    33    1
    37    33    34    1
    38     1    35    1
    39     1    36    1
    40     1    37    1
    41     4    38    1
    42     5    39    1
    43     7    40    1
    44     7    41    1
    45    10    42    1
    46    13    43    1
    47    13    44    1
    48    14    45    1
    49    14    46    1
    50    17    47    1
    51    18    48    1
    52    19    49    1
    53    20    50    1
    54    22    51    1
    55    23    52    1
    56    24    53    1
    57    26    54    1
    58    27    55    1
    59    28    56    1
    60    29    57    1
    61    30    58    1
    62    31    59    1
    63    34    60    1
    64    34    61    1
    65    34    62    1
