@<TRIPOS>MOLECULE
*****
 48 51 0 0 0
SMALL
USER_CHARGES

@<TRIPOS>ATOM
      1 C1          3.8201    8.0550    0.4911 C.3     1  NONAME1    -0.0307
      2 C2          2.5291    7.2693    0.3297 C.3     1  NONAME1     0.0870
      3 O1          2.7070    5.9852    0.9267 O.3     1  NONAME1    -0.4886
      4 C3          1.9747    4.9478    0.4166 C.ar    1  NONAME1     0.1620
      5 C4          2.5094    3.6856    0.7102 C.ar    1  NONAME1    -0.0110
      6 C5          1.9514    2.4933    0.2068 C.ar    1  NONAME1    -0.0188
      7 C6          2.5377    1.1781    0.6532 C.3     1  NONAME1     0.0808
      8 C7          3.7400    0.8305   -0.1493 C.ar    1  NONAME1     0.0348
      9 C8          5.0193    1.2450   -0.5632 C.ar    1  NONAME1     0.0985
     10 C9          5.6881    2.5262   -0.4053 C.ar    1  NONAME1     0.0025
     11 C10         5.2369    3.6402   -1.1194 C.ar    1  NONAME1    -0.0523
     12 C11         5.9076    4.8613   -1.0211 C.ar    1  NONAME1    -0.0582
     13 C12         7.0420    4.9853   -0.2110 C.ar    1  NONAME1    -0.0504
     14 C13         7.7958    6.2814   -0.1561 C.3     1  NONAME1    -0.0397
     15 C14         7.5079    3.8617    0.4832 C.ar    1  NONAME1    -0.0582
     16 C15         6.8345    2.6393    0.3882 C.ar    1  NONAME1    -0.0523
     17 N1          5.6562    0.2325   -1.1992 N.ar    1  NONAME1    -0.1728
     18 N2          4.7688   -0.7863   -1.2221 N.ar    1  NONAME1    -0.2716
     19 C16         3.6222   -0.4477   -0.6188 C.ar    1  NONAME1     0.1262
     20 C17         2.3847   -1.0481   -0.2961 C.2     1  NONAME1     0.2652
     21 O2          2.0054   -2.1746   -0.5705 O.2     1  NONAME1    -0.2683
     22 N3          1.7146   -0.0504    0.4187 N.am    1  NONAME1    -0.2881
     23 C18         0.4338   -0.2760    1.0480 C.3     1  NONAME1     0.0044
     24 C19         0.8249    2.6077   -0.6167 C.ar    1  NONAME1    -0.0528
     25 C20         0.2265    3.8530   -0.8441 C.ar    1  NONAME1    -0.0162
     26 C21         0.7871    5.0153   -0.3095 C.ar    1  NONAME1     0.1585
     27 O3          0.1320    6.2027   -0.4837 O.3     1  NONAME1    -0.5033
     28 H1          4.1982    7.9978    1.5162 H       1  NONAME1     0.0262
     29 H2          4.5959    7.6405   -0.1605 H       1  NONAME1     0.0262
     30 H3          3.6725    9.1039    0.2180 H       1  NONAME1     0.0262
     31 H4          1.7187    7.7891    0.8512 H       1  NONAME1     0.0694
     32 H5          2.3147    7.2073   -0.7431 H       1  NONAME1     0.0694
     33 H6          3.3980    3.6437    1.3403 H       1  NONAME1     0.0659
     34 H7          2.7675    1.1984    1.7256 H       1  NONAME1     0.0602
     35 H8          4.3687    3.5614   -1.7696 H       1  NONAME1     0.0624
     36 H9          5.5414    5.7115   -1.5913 H       1  NONAME1     0.0620
     37 H10         8.5817    6.2885   -0.9179 H       1  NONAME1     0.0278
     38 H11         8.2529    6.4261    0.8281 H       1  NONAME1     0.0278
     39 H12         7.1286    7.1314   -0.3330 H       1  NONAME1     0.0278
     40 H13         8.4085    3.9265    1.0898 H       1  NONAME1     0.0620
     41 H14         7.2232    1.7701    0.9138 H       1  NONAME1     0.0624
     42 H15         5.0377   -1.6703   -1.6419 H       1  NONAME1     0.1891
     43 H16        -0.3500    0.1991    0.4529 H       1  NONAME1     0.0429
     44 H17         0.4450    0.1431    2.0564 H       1  NONAME1     0.0429
     45 H18         0.2182   -1.3476    1.1004 H       1  NONAME1     0.0429
     46 H19         0.3690    1.7269   -1.0624 H       1  NONAME1     0.0622
     47 H20        -0.6826    3.8954   -1.4375 H       1  NONAME1     0.0655
     48 H21        -0.7612    6.0245   -0.8200 H       1  NONAME1     0.2923
@<TRIPOS>BOND
     1     1     2    1
     2     2     3    1
     3     3     4    1
     4     4     5   ar
     5     5     6   ar
     6     7     6    1
     7     7     8    1
     8     8     9   ar
     9     9    10    1
    10    10    11   ar
    11    11    12   ar
    12    12    13   ar
    13    13    14    1
    14    13    15   ar
    15    15    16   ar
    16    10    16   ar
    17     9    17   ar
    18    17    18   ar
    19    18    19   ar
    20     8    19   ar
    21    19    20    1
    22    20    21    2
    23    20    22   am
    24     7    22    1
    25    22    23    1
    26     6    24   ar
    27    24    25   ar
    28    25    26   ar
    29     4    26   ar
    30    26    27    1
    31     1    28    1
    32     1    29    1
    33     1    30    1
    34     2    31    1
    35     2    32    1
    36     5    33    1
    37     7    34    1
    38    11    35    1
    39    12    36    1
    40    14    37    1
    41    14    38    1
    42    14    39    1
    43    15    40    1
    44    16    41    1
    45    18    42    1
    46    23    43    1
    47    23    44    1
    48    23    45    1
    49    24    46    1
    50    25    47    1
    51    27    48    1
