@<TRIPOS>MOLECULE
*****
 45 46 0 0 0
SMALL
USER_CHARGES

@<TRIPOS>ATOM
      1 O1          8.0967   -0.4252   -1.4930 O.2     1  NONAME1    -0.2758
      2 C1          9.0698   -0.9640   -0.9732 C.2     1  NONAME1     0.2147
      3 C2          8.9332   -2.0939    0.0307 C.3     1  NONAME1     0.0395
      4 C3          7.7373   -2.9950   -0.2589 C.3     1  NONAME1     0.0214
      5 N1          6.4571   -2.3234   -0.1334 N.am    1  NONAME1    -0.2973
      6 C4          5.2927   -3.0660   -0.0212 C.2     1  NONAME1     0.3226
      7 O2          5.2897   -4.2683    0.2253 O.2     1  NONAME1    -0.2507
      8 N2          4.1692   -2.2818   -0.2053 N.am    1  NONAME1    -0.1781
      9 O3          2.9771   -3.0488   -0.3561 O.3     1  NONAME1    -0.2740
     10 C5          1.8603   -2.2423    0.0304 C.3     1  NONAME1     0.0983
     11 C6          0.5571   -3.0116    0.0249 C.ar    1  NONAME1    -0.0197
     12 C7          0.5113   -4.4114    0.0736 C.ar    1  NONAME1    -0.0563
     13 C8         -0.7146   -5.0830    0.1045 C.ar    1  NONAME1    -0.0614
     14 C9         -1.9086   -4.3642    0.0961 C.ar    1  NONAME1    -0.0617
     15 C10        -1.8800   -2.9727    0.0586 C.ar    1  NONAME1    -0.0614
     16 C11        -0.6557   -2.3008    0.0270 C.ar    1  NONAME1    -0.0563
     17 N3         10.3761   -0.5774   -1.1918 N.am    1  NONAME1    -0.3124
     18 C12        10.7231    0.5872   -1.9851 C.3     1  NONAME1     0.0231
     19 C13        12.2353    0.7459   -2.1327 C.3     1  NONAME1    -0.0345
     20 C14        12.3921    1.7222   -3.2886 C.3     1  NONAME1    -0.0513
     21 C15        11.1751    1.4972   -4.1867 C.3     1  NONAME1    -0.0513
     22 C16        10.2655    0.5220   -3.4420 C.3     1  NONAME1    -0.0345
     23 H1          9.8438   -2.7040    0.0125 H       1  NONAME1     0.0374
     24 H2          8.8461   -1.6440    1.0260 H       1  NONAME1     0.0374
     25 H3          7.7925   -3.3884   -1.2807 H       1  NONAME1     0.0467
     26 H4          7.7557   -3.8497    0.4259 H       1  NONAME1     0.0467
     27 H5          6.3911   -1.4347   -0.6172 H       1  NONAME1     0.1503
     28 H6          4.2690   -1.5562   -0.9021 H       1  NONAME1     0.1841
     29 H7          2.0243   -1.8306    1.0332 H       1  NONAME1     0.0634
     30 H8          1.7831   -1.4204   -0.6919 H       1  NONAME1     0.0634
     31 H9          1.4316   -4.9920    0.0893 H       1  NONAME1     0.0621
     32 H10        -0.7345   -6.1692    0.1393 H       1  NONAME1     0.0618
     33 H11        -2.8591   -4.8898    0.1243 H       1  NONAME1     0.0618
     34 H12        -2.8095   -2.4096    0.0574 H       1  NONAME1     0.0618
     35 H13        -0.6532   -1.2135    0.0062 H       1  NONAME1     0.0621
     36 H14        11.0790   -0.9228   -0.5501 H       1  NONAME1     0.1490
     37 H15        10.2951    1.4716   -1.4959 H       1  NONAME1     0.0498
     38 H16        12.7114    1.1109   -1.2174 H       1  NONAME1     0.0283
     39 H17        12.7046   -0.2129   -2.3894 H       1  NONAME1     0.0283
     40 H18        13.3315    1.5691   -3.8285 H       1  NONAME1     0.0266
     41 H19        12.3904    2.7529   -2.9174 H       1  NONAME1     0.0266
     42 H20        10.6622    2.4489   -4.3668 H       1  NONAME1     0.0266
     43 H21        11.4640    1.0930   -5.1627 H       1  NONAME1     0.0266
     44 H22         9.2110    0.7879   -3.5626 H       1  NONAME1     0.0283
     45 H23        10.3977   -0.4896   -3.8453 H       1  NONAME1     0.0283
@<TRIPOS>BOND
     1     1     2    2
     2     2     3    1
     3     3     4    1
     4     4     5    1
     5     5     6   am
     6     6     7    2
     7     6     8   am
     8     8     9    1
     9     9    10    1
    10    10    11    1
    11    11    12   ar
    12    12    13   ar
    13    13    14   ar
    14    14    15   ar
    15    15    16   ar
    16    11    16   ar
    17     2    17   am
    18    17    18    1
    19    18    19    1
    20    19    20    1
    21    20    21    1
    22    21    22    1
    23    18    22    1
    24     3    23    1
    25     3    24    1
    26     4    25    1
    27     4    26    1
    28     5    27    1
    29     8    28    1
    30    10    29    1
    31    10    30    1
    32    12    31    1
    33    13    32    1
    34    14    33    1
    35    15    34    1
    36    16    35    1
    37    17    36    1
    38    18    37    1
    39    19    38    1
    40    19    39    1
    41    20    40    1
    42    20    41    1
    43    21    42    1
    44    21    43    1
    45    22    44    1
    46    22    45    1
