REMARK  4 active torsions:
REMARK  status: ('A' for Active; 'I' for Inactive)
REMARK       I    between atoms: C1_2  and  N1_3 
REMARK    1  A    between atoms: C1_2  and  C13_19 
REMARK    2  A    between atoms: N1_3  and  N2_4 
REMARK       I    between atoms: N2_4  and  C2_5 
REMARK    3  A    between atoms: C2_5  and  C3_7 
REMARK    4  A    between atoms: C6_10  and  C7_11 
ROOT
ATOM      1  N2  NON d   1       4.006  -3.779  -0.000  0.00  0.00    -0.263 N 
ATOM      2  C2  NON d   1       5.199  -3.081   0.000  0.00  0.00     0.277 C 
ATOM      3  O2  NON d   1       5.201  -1.848   0.000  0.00  0.00    -0.265 OA
ATOM      4  H2  NON d   1       3.954  -4.796  -0.000  0.00  0.00     0.190 HD
ENDROOT
BRANCH   2   5
ATOM      5  C3  NON d   1       6.415  -3.881   0.000  0.00  0.00     0.075 A 
ATOM      6  C4  NON d   1       7.711  -3.410   0.000  0.00  0.00     0.026 A 
ATOM      7  C5  NON d   1       8.674  -4.461   0.000  0.00  0.00     0.021 A 
ATOM      8  C6  NON d   1       8.108  -5.727  -0.000  0.00  0.00     0.016 A 
ATOM      9  S1  NON d   1       6.390  -5.588  -0.000  0.00  0.00    -0.084 SA
BRANCH   8  10
ATOM     10  C7  NON d   1       8.778  -7.052  -0.000  0.00  0.00    -0.019 A 
ATOM     11  C8  NON d   1      10.185  -7.134  -0.000  0.00  0.00     0.016 A 
ATOM     12  C9  NON d   1      10.845  -8.368  -0.000  0.00  0.00     0.043 A 
ATOM     13  C10 NON d   1      10.105  -9.539  -0.000  0.00  0.00     0.116 A 
ATOM     14  F1  NON d   1      10.734 -10.721  -0.000  0.00  0.00    -0.206 F 
ATOM     15  C11 NON d   1       8.719  -9.501  -0.000  0.00  0.00     0.043 A 
ATOM     16  C12 NON d   1       8.062  -8.265  -0.000  0.00  0.00     0.016 A 
ENDBRANCH   8  10
ENDBRANCH   2   5
BRANCH   1  17
ATOM     17  N1  NON d   1       2.798  -3.075  -0.000  0.00  0.00    -0.263 N 
ATOM     18  C1  NON d   1       1.626  -3.802  -0.000  0.00  0.00     0.270 C 
ATOM     19  O1  NON d   1       1.628  -5.032  -0.000  0.00  0.00    -0.266 OA
ATOM     20  H1  NON d   1       2.878  -2.062   0.000  0.00  0.00     0.190 HD
BRANCH  18  21
ATOM     21  C13 NON d   1       0.337  -3.050  -0.000  0.00  0.00     0.036 A 
ATOM     22  C14 NON d   1      -0.846  -3.796   0.000  0.00  0.00     0.036 A 
ATOM     23  C15 NON d   1      -2.053  -3.121   0.000  0.00  0.00     0.117 A 
ATOM     24  N3  NON d   1      -2.155  -1.777   0.000  0.00  0.00    -0.273 NA
ATOM     25  C16 NON d   1      -1.002  -1.076   0.000  0.00  0.00     0.117 A 
ATOM     26  C17 NON d   1       0.257  -1.656  -0.000  0.00  0.00     0.036 A 
ENDBRANCH  18  21
ENDBRANCH   1  17
TORSDOF 4
