REMARK  8 active torsions:
REMARK  status: ('A' for Active; 'I' for Inactive)
REMARK    1  A    between atoms: C2_2  and  O1_3 
REMARK    2  A    between atoms: O1_3  and  C3_4 
REMARK    3  A    between atoms: C3_4  and  C4_6 
REMARK    4  A    between atoms: C7_10  and  C8_11 
REMARK       I    between atoms: C8_11  and  N2_13 
REMARK    5  A    between atoms: N2_13  and  C9_14 
REMARK    6  A    between atoms: C12_17  and  C13_18 
REMARK       I    between atoms: C13_18  and  N3_20 
REMARK    7  A    between atoms: N3_20  and  C14_21 
REMARK    8  A    between atoms: C14_21  and  C15_22 
ROOT
ATOM      1  C8  NON d   1      -4.163   0.735   0.298  0.00  0.00     0.273 C 
ATOM      2  O3  NON d   1      -3.273   0.082   0.845  0.00  0.00    -0.266 OA
ATOM      3  N2  NON d   1      -3.896   2.060  -0.093  0.00  0.00    -0.322 N 
ATOM      4  H10 NON d   1      -4.679   2.643  -0.348  0.00  0.00     0.169 HD
ENDROOT
BRANCH   3   5
ATOM      5  C9  NON d   1      -2.571   2.691  -0.116  0.00  0.00     0.035 A 
ATOM      6  C10 NON d   1      -2.463   4.086  -0.256  0.00  0.00     0.030 A 
ATOM      7  C11 NON d   1      -1.187   4.742  -0.312  0.00  0.00     0.019 A 
ATOM      8  C12 NON d   1       0.050   4.049  -0.258  0.00  0.00     0.032 A 
ATOM      9  C18 NON d   1      -0.062   2.665  -0.121  0.00  0.00     0.019 A 
ATOM     10  C19 NON d   1      -1.342   2.007  -0.045  0.00  0.00     0.030 A 
BRANCH   8  11
ATOM     11  C13 NON d   1       1.367   4.850  -0.371  0.00  0.00     0.251 C 
ATOM     12  O4  NON d   1       1.277   6.073  -0.476  0.00  0.00    -0.268 OA
ATOM     13  N3  NON d   1       2.636   4.214  -0.372  0.00  0.00    -0.357 N 
ATOM     14  H13 NON d   1       2.663   3.212  -0.441  0.00  0.00     0.162 HD
BRANCH  13  15
ATOM     15  C14 NON d   1       3.890   4.962  -0.731  0.00  0.00     0.126 C 
BRANCH  15  16
ATOM     16  C15 NON d   1       5.335   4.620   0.000  0.00  0.00    -0.005 C 
ATOM     17  C16 NON d   1       5.660   3.644   1.146  0.00  0.00     0.011 C 
ATOM     18  C17 NON d   1       6.343   4.826  -1.146  0.00  0.00     0.011 C 
ENDBRANCH  15  16
ENDBRANCH  13  15
ENDBRANCH   8  11
ENDBRANCH   3   5
BRANCH   1  19
ATOM     19  C7  NON d   1      -5.499   0.066   0.069  0.00  0.00     0.108 A 
ATOM     20  N1  NON d   1      -6.820   0.536   0.054  0.00  0.00    -0.354 N 
ATOM     21  C5  NON d   1      -7.772  -0.518   0.000  0.00  0.00     0.022 A 
ATOM     22  H9  NON d   1      -7.079   1.507   0.155  0.00  0.00     0.166 HD
ATOM     23  C4  NON d   1      -7.029  -1.699  -0.058  0.00  0.00     0.070 A 
ATOM     24  C6  NON d   1      -9.304  -0.357   0.000  0.00  0.00     0.069 C 
ATOM     25  C20 NON d   1      -5.631  -1.323  -0.091  0.00  0.00    -0.011 A 
ATOM     26  C21 NON d   1      -4.491  -2.296  -0.212  0.00  0.00     0.052 C 
BRANCH  23  27
ATOM     27  C3  NON d   1      -7.536  -3.085  -0.063  0.00  0.00     0.295 C 
ATOM     28  O2  NON d   1      -6.801  -4.065  -0.022  0.00  0.00    -0.259 OA
BRANCH  27  29
ATOM     29  O1  NON d   1      -8.900  -3.183  -0.106  0.00  0.00    -0.318 OA
BRANCH  29  30
ATOM     30  C2  NON d   1      -9.361  -4.540  -0.134  0.00  0.00     0.174 C 
ATOM     31  C1  NON d   1     -10.876  -4.546  -0.138  0.00  0.00     0.034 C 
ENDBRANCH  29  30
ENDBRANCH  27  29
ENDBRANCH  23  27
ENDBRANCH   1  19
TORSDOF 8
