@<TRIPOS>MOLECULE
*****
 60 62 0 0 0
SMALL
USER_CHARGES

@<TRIPOS>ATOM
      1 C1          8.0021   -1.5400    0.0000 C.3     1  NONAME1    -0.0442
      2 C2          6.6684   -2.3100    0.0000 C.3     1  NONAME1     0.0262
      3 C3          7.4384   -3.6437    0.0000 C.3     1  NONAME1    -0.0442
      4 C4          5.8984   -0.9763    0.0000 C.3     1  NONAME1    -0.0442
      5 N1          5.3347   -3.0800    0.0000 N.am    1  NONAME1    -0.3087
      6 C5          4.3353   -2.9699    0.9581 C.2     1  NONAME1     0.2391
      7 O1          4.5890   -2.4766    2.0619 O.2     1  NONAME1    -0.2734
      8 C6          2.8319   -3.4102    0.6066 C.3     1  NONAME1     0.1391
      9 C7          2.7563   -4.9193    0.3059 C.ar    1  NONAME1     0.0652
     10 C8          3.4687   -5.5539   -0.7233 C.ar    1  NONAME1     0.1292
     11 O2          4.2534   -4.8223   -1.5750 O.3     1  NONAME1    -0.5062
     12 C9          3.3650   -6.9324   -0.9417 C.ar    1  NONAME1     0.0219
     13 C10         2.4941   -7.6895   -0.1704 C.ar    1  NONAME1     0.1238
     14 O3          2.4191   -9.0268   -0.4261 O.3     1  NONAME1    -0.5065
     15 C11         1.7095   -7.0919    0.8021 C.ar    1  NONAME1     0.0219
     16 C12         1.8433   -5.7204    1.0238 C.ar    1  NONAME1     0.1292
     17 O4          0.9820   -5.1290    1.9120 O.3     1  NONAME1    -0.5062
     18 N2          1.8754   -2.5703   -0.2210 N.am    1  NONAME1    -0.2511
     19 C13         0.6162   -3.1559   -0.5438 C.2     1  NONAME1     0.2518
     20 O5          0.5099   -4.2001   -1.1893 O.2     1  NONAME1    -0.2696
     21 C14        -0.6878   -2.5303   -0.0802 C.ar    1  NONAME1     0.0394
     22 C15        -0.7898   -1.6211    0.9847 C.ar    1  NONAME1    -0.0495
     23 C16        -2.0260   -1.0685    1.3557 C.ar    1  NONAME1    -0.0589
     24 C17        -3.1906   -1.4642    0.7054 C.ar    1  NONAME1    -0.0314
     25 C18        -3.1114   -2.4166   -0.3103 C.ar    1  NONAME1     0.1269
     26 N3         -4.3459   -2.8888   -0.9445 N.pl3   1  NONAME1     0.0564
     27 O6         -4.3184   -3.9968   -1.5003 O.2     1  NONAME1    -0.1261
     28 O7         -5.3421   -2.1596   -0.8697 O.2     1  NONAME1    -0.1261
     29 C19        -1.8750   -2.9456   -0.7125 C.ar    1  NONAME1    -0.0194
     30 C20         1.9627   -1.1348   -0.2901 C.ar    1  NONAME1     0.0391
     31 C21         1.3185   -0.4812   -1.3641 C.ar    1  NONAME1    -0.0401
     32 C22         1.2166    0.9111   -1.4228 C.ar    1  NONAME1    -0.0586
     33 C23         1.7799    1.6837   -0.4178 C.ar    1  NONAME1    -0.0433
     34 C24         2.4421    1.0550    0.6345 C.ar    1  NONAME1     0.0427
     35 Cl1         3.1194    2.0191    1.8920 Cl      1  NONAME1    -0.0835
     36 C25         2.5404   -0.3428    0.7038 C.ar    1  NONAME1    -0.0219
     37 H1          8.4183   -1.9478   -0.9468 H       1  NONAME1     0.0250
     38 H2          9.3358   -0.7700    0.0000 H       1  NONAME1     0.0250
     39 H3          8.4140   -1.9426    0.9510 H       1  NONAME1     0.0250
     40 H4          7.0449   -4.0558   -0.9535 H       1  NONAME1     0.0250
     41 H5          8.2084   -4.9774    0.0000 H       1  NONAME1     0.0250
     42 H6          7.0341   -4.0599    0.9478 H       1  NONAME1     0.0250
     43 H7          6.3229   -0.5461    0.9331 H       1  NONAME1     0.0250
     44 H8          5.1284    0.3574    0.0000 H       1  NONAME1     0.0250
     45 H9          6.2831   -0.5788   -0.9638 H       1  NONAME1     0.0250
     46 H10         5.0172   -3.4493   -0.8953 H       1  NONAME1     0.1493
     47 H11         2.3765   -3.3010    1.6038 H       1  NONAME1     0.0654
     48 H12         4.6200   -5.4309   -2.2426 H       1  NONAME1     0.2922
     49 H13         3.9380   -7.4279   -1.7190 H       1  NONAME1     0.0691
     50 H14         1.7866   -9.4299    0.1914 H       1  NONAME1     0.2921
     51 H15         0.9948   -7.6687    1.3777 H       1  NONAME1     0.0691
     52 H16         0.1015   -5.5061    1.7294 H       1  NONAME1     0.2922
     53 H17         0.0835   -1.3236    1.5582 H       1  NONAME1     0.0625
     54 H18        -2.0748   -0.3386    2.1613 H       1  NONAME1     0.0618
     55 H19        -4.1482   -1.0404    1.0155 H       1  NONAME1     0.0640
     56 H20        -1.8300   -3.6874   -1.5100 H       1  NONAME1     0.0648
     57 H21         0.8633   -1.0581   -2.1691 H       1  NONAME1     0.0636
     58 H22         0.6841    1.3862   -2.2460 H       1  NONAME1     0.0619
     59 H23         1.6962    2.7661   -0.4528 H       1  NONAME1     0.0632
     60 H24         3.0019   -0.7727    1.5833 H       1  NONAME1     0.0651
@<TRIPOS>BOND
     1     1     2    1
     2     2     3    1
     3     2     4    1
     4     2     5    1
     5     5     6   am
     6     6     7    2
     7     8     6    1
     8     8     9    1
     9     9    10   ar
    10    10    11    1
    11    10    12   ar
    12    12    13   ar
    13    13    14    1
    14    13    15   ar
    15    15    16   ar
    16     9    16   ar
    17    16    17    1
    18     8    18    1
    19    18    19   am
    20    19    20    2
    21    19    21    1
    22    21    22   ar
    23    22    23   ar
    24    23    24   ar
    25    24    25   ar
    26    25    26    1
    27    26    27    2
    28    26    28    1
    29    25    29   ar
    30    21    29   ar
    31    18    30    1
    32    30    31   ar
    33    31    32   ar
    34    32    33   ar
    35    33    34   ar
    36    34    35    1
    37    34    36   ar
    38    30    36   ar
    39     1    37    1
    40     1    38    1
    41     1    39    1
    42     3    40    1
    43     3    41    1
    44     3    42    1
    45     4    43    1
    46     4    44    1
    47     4    45    1
    48     5    46    1
    49     8    47    1
    50    11    48    1
    51    12    49    1
    52    14    50    1
    53    15    51    1
    54    17    52    1
    55    22    53    1
    56    23    54    1
    57    24    55    1
    58    29    56    1
    59    31    57    1
    60    32    58    1
    61    33    59    1
    62    36    60    1
