REMARK  7 active torsions:
REMARK  status: ('A' for Active; 'I' for Inactive)
REMARK    1  A    between atoms: O1_2  and  C2_3 
REMARK    2  A    between atoms: C2_3  and  C3_4 
REMARK       I    between atoms: C3_4  and  N1_6 
REMARK    3  A    between atoms: N1_6  and  C4_7 
REMARK    4  A    between atoms: C6_9  and  C7_10 
REMARK       I    between atoms: C7_10  and  N2_12 
REMARK    5  A    between atoms: C8_13  and  N2_12 
REMARK    6  A    between atoms: C8_13  and  C10_15 
REMARK    7  A    between atoms: C16_24  and  C17_25 
ROOT
ATOM      1  C4  NON d   1       5.826   2.775  -1.786  0.00  0.00     0.045 C 
ATOM      2  C5  NON d   1       7.056   2.205  -2.202  0.00  0.00     0.043 C 
ATOM      3  C6  NON d   1       7.391   0.868  -1.920  0.00  0.00     0.036 C 
ATOM      4  C14 NON d   1       6.357   0.011  -1.434  0.00  0.00     0.051 C 
ATOM      5  C15 NON d   1       5.066   0.538  -1.121  0.00  0.00     0.088 C 
ATOM      6  N4  NON d   1       3.878  -0.069  -0.711  0.00  0.00    -0.228 NA
ATOM      7  C16 NON d   1       2.970   0.891  -0.527  0.00  0.00     0.141 C 
ATOM      8  N5  NON d   1       3.639   2.107  -0.587  0.00  0.00    -0.332 N 
ATOM      9  C23 NON d   1       3.261   3.314   0.129  0.00  0.00     0.158 C 
ATOM     10  C24 NON d   1       4.862   1.913  -1.220  0.00  0.00     0.086 C 
ENDROOT
BRANCH   3  11
ATOM     11  C7  NON d   1       8.854   0.357  -2.125  0.00  0.00     0.252 C 
ATOM     12  O3  NON d   1       9.008  -0.661  -2.801  0.00  0.00    -0.268 OA
ATOM     13  N2  NON d   1      10.027   0.980  -1.530  0.00  0.00    -0.347 N 
ATOM     14  H8  NON d   1      10.879   0.490  -1.784  0.00  0.00     0.163 HD
BRANCH  13  15
ATOM     15  C8  NON d   1      10.122   1.540   0.000  0.00  0.00     0.133 C 
ATOM     16  C9  NON d   1       8.788   2.310   0.000  0.00  0.00     0.039 C 
BRANCH  15  17
ATOM     17  C10 NON d   1      11.455   2.310   0.000  0.00  0.00     0.064 A 
ATOM     18  C11 NON d   1      11.701   3.467   0.719  0.00  0.00     0.081 A 
ATOM     19  S1  NON d   1      13.360   3.871   0.653  0.00  0.00    -0.085 SA
ATOM     20  C12 NON d   1      13.656   2.441  -0.253  0.00  0.00     0.071 A 
ATOM     21  C13 NON d   1      15.055   2.077  -0.605  0.00  0.00     0.078 C 
ATOM     22  N3  NON d   1      12.591   1.723  -0.549  0.00  0.00    -0.248 NA
ENDBRANCH  15  17
ENDBRANCH  13  15
ENDBRANCH   3  11
BRANCH   1  23
ATOM     23  N1  NON d   1       5.505   4.140  -2.014  0.00  0.00    -0.225 NA
ATOM     24  C3  NON d   1       5.902   5.167  -1.187  0.00  0.00     0.225 C 
ATOM     25  O2  NON d   1       5.007   5.849  -0.669  0.00  0.00    -0.277 OA
ATOM     26  H6  NON d   1       4.498   4.251  -2.078  0.00  0.00     0.136 HD
BRANCH  24  27
ATOM     27  C2  NON d   1       7.370   5.507  -0.910  0.00  0.00     0.263 C 
BRANCH  27  28
ATOM     28  O1  NON d   1       8.298   5.172  -1.922  0.00  0.00    -0.387 OA
ATOM     29  C1  NON d   1       9.596   5.681  -1.636  0.00  0.00     0.202 C 
ENDBRANCH  27  28
ENDBRANCH  24  27
ENDBRANCH   1  23
BRANCH   7  30
ATOM     30  C17 NON d   1       1.499   0.706  -0.279  0.00  0.00     0.010 A 
ATOM     31  C18 NON d   1       0.968  -0.578  -0.090  0.00  0.00     0.015 A 
ATOM     32  C19 NON d   1      -0.413  -0.794   0.093  0.00  0.00     0.001 A 
ATOM     33  C20 NON d   1      -1.303   0.276   0.111  0.00  0.00     0.000 A 
ATOM     34  C21 NON d   1      -0.813   1.560  -0.075  0.00  0.00     0.001 A 
ATOM     35  C22 NON d   1       0.566   1.762  -0.283  0.00  0.00     0.015 A 
ENDBRANCH   7  30
TORSDOF 7
