@<TRIPOS>MOLECULE
*****
 47 50 0 0 0
SMALL
USER_CHARGES

@<TRIPOS>ATOM
      1 C1         -4.0010   -2.3100    0.0000 C.3     1  NONAME1    -0.0378
      2 C2         -4.0010   -0.7700    0.0000 C.ar    1  NONAME1    -0.0258
      3 C3         -5.1744    0.0418    0.0328 C.ar    1  NONAME1    -0.0147
      4 C4         -5.1247    1.4621   -0.0301 C.ar    1  NONAME1     0.1288
      5 O1         -6.3303    2.1245    0.0357 O.3     1  NONAME1    -0.4560
      6 C5         -6.5654    3.4890    0.0317 C.ar    1  NONAME1     0.1285
      7 C6         -7.9350    3.7997   -0.0294 C.ar    1  NONAME1    -0.0181
      8 C7         -8.4044    5.1254   -0.0399 C.ar    1  NONAME1    -0.0409
      9 C8         -7.5033    6.1878   -0.0121 C.ar    1  NONAME1     0.0520
     10 C9         -7.9681    7.5466   -0.0244 C.1     1  NONAME1     0.0992
     11 N1         -8.3189    8.6504   -0.0360 N.1     1  NONAME1    -0.1909
     12 C10        -6.1420    5.9049    0.0648 C.ar    1  NONAME1    -0.0409
     13 C11        -5.6874    4.5723    0.1171 C.ar    1  NONAME1    -0.0181
     14 C12        -3.8858    2.0393   -0.1881 C.ar    1  NONAME1    -0.0176
     15 C13        -2.7254    1.2766   -0.1799 C.ar    1  NONAME1    -0.0367
     16 C14        -2.7321   -0.1134   -0.0637 C.ar    1  NONAME1     0.0369
     17 N2         -1.4771   -0.8197   -0.0443 N.am    1  NONAME1    -0.2801
     18 C15        -0.2319   -0.2089    0.1043 C.2     1  NONAME1     0.2646
     19 O2         -0.0549    0.9893    0.3286 O.2     1  NONAME1    -0.2683
     20 C16         1.0118   -1.0670    0.0182 C.ar    1  NONAME1     0.1053
     21 C17         2.1781   -0.3942   -0.0098 C.ar    1  NONAME1    -0.0253
     22 C18         3.4540   -1.1037   -0.0299 C.ar    1  NONAME1    -0.0106
     23 C19         4.6673   -0.4013   -0.0257 C.ar    1  NONAME1    -0.0538
     24 C20         5.8784   -1.0952   -0.0167 C.ar    1  NONAME1    -0.0612
     25 C21         5.8833   -2.4907   -0.0136 C.ar    1  NONAME1    -0.0610
     26 C22         4.6754   -3.1977   -0.0223 C.ar    1  NONAME1    -0.0488
     27 C23         3.4593   -2.5024   -0.0317 C.ar    1  NONAME1     0.0465
     28 C24         2.1532   -3.2184   -0.0239 C.ar    1  NONAME1     0.2570
     29 O3          2.0883   -4.4428   -0.0324 O.2     1  NONAME1    -0.2672
     30 N3          1.0060   -2.4415    0.0011 N.ar    1  NONAME1    -0.3179
     31 H1         -5.0999   -2.4174    0.0984 H       1  NONAME1     0.0278
     32 H2         -4.0010   -3.8500    0.0000 H       1  NONAME1     0.0278
     33 H3         -3.5754   -2.3934    1.0228 H       1  NONAME1     0.0278
     34 H4         -6.1532   -0.4317    0.0931 H       1  NONAME1     0.0657
     35 H5         -8.6617    2.9901   -0.0556 H       1  NONAME1     0.0655
     36 H6         -9.4739    5.3151   -0.0672 H       1  NONAME1     0.0631
     37 H7         -5.4119    6.7143    0.1003 H       1  NONAME1     0.0631
     38 H8         -4.6240    4.4879    0.2600 H       1  NONAME1     0.0655
     39 H9         -3.7100    3.0836   -0.3535 H       1  NONAME1     0.0655
     40 H10        -1.8167    1.8530   -0.3052 H       1  NONAME1     0.0637
     41 H11        -1.5222   -1.8246   -0.0978 H       1  NONAME1     0.1552
     42 H12         2.2203    0.6912    0.0088 H       1  NONAME1     0.0646
     43 H13         4.6803    0.6870   -0.0199 H       1  NONAME1     0.0624
     44 H14         6.8184   -0.5464   -0.0067 H       1  NONAME1     0.0618
     45 H15         6.8297   -3.0269   -0.0008 H       1  NONAME1     0.0618
     46 H16         4.6862   -4.2843   -0.0158 H       1  NONAME1     0.0625
     47 H17         0.1480   -2.9674    0.0343 H       1  NONAME1     0.1691
@<TRIPOS>BOND
     1     1     2    1
     2     2     3   ar
     3     3     4   ar
     4     4     5    1
     5     5     6    1
     6     6     7   ar
     7     7     8   ar
     8     8     9   ar
     9     9    10    1
    10    10    11    3
    11     9    12   ar
    12    12    13   ar
    13     6    13   ar
    14     4    14   ar
    15    14    15   ar
    16    15    16   ar
    17     2    16   ar
    18    16    17    1
    19    17    18   am
    20    18    19    2
    21    18    20    1
    22    20    21   ar
    23    21    22   ar
    24    22    23   ar
    25    23    24   ar
    26    24    25   ar
    27    25    26   ar
    28    26    27   ar
    29    22    27   ar
    30    27    28   ar
    31    28    29    2
    32    28    30   ar
    33    20    30   ar
    34     1    31    1
    35     1    32    1
    36     1    33    1
    37     3    34    1
    38     7    35    1
    39     8    36    1
    40    12    37    1
    41    13    38    1
    42    14    39    1
    43    15    40    1
    44    17    41    1
    45    21    42    1
    46    23    43    1
    47    24    44    1
    48    25    45    1
    49    26    46    1
    50    30    47    1
