@<TRIPOS>MOLECULE
*****
 59 62 0 0 0
SMALL
USER_CHARGES

@<TRIPOS>ATOM
      1 C1         -1.1069   -3.3042    1.0450 C.3     1  NONAME1     0.0820
      2 O1         -0.3528   -3.0686   -0.1399 O.3     1  NONAME1    -0.4634
      3 C2          0.1042   -1.7904   -0.2186 C.2     1  NONAME1     0.3573
      4 O2         -0.5843   -0.7904   -0.0496 O.2     1  NONAME1    -0.2433
      5 C3          1.5424   -1.7913   -0.3545 C.ar    1  NONAME1     0.1468
      6 N1          2.2314   -0.6003   -0.3390 N.ar    1  NONAME1    -0.3475
      7 C4          3.5835   -0.8245   -0.2907 C.ar    1  NONAME1     0.0490
      8 C5          4.6251    0.1021   -0.1483 C.ar    1  NONAME1    -0.0363
      9 C6          5.9328   -0.3797   -0.1284 C.ar    1  NONAME1    -0.0414
     10 C7          6.1785   -1.7357   -0.2906 C.ar    1  NONAME1     0.0417
     11 Cl1         7.8051   -2.3063   -0.2922 Cl      1  NONAME1    -0.0835
     12 C8          5.1280   -2.6475   -0.4386 C.ar    1  NONAME1    -0.0324
     13 C9          3.7823   -2.2090   -0.3920 C.ar    1  NONAME1     0.0231
     14 C10         2.4755   -2.8271   -0.3847 C.ar    1  NONAME1     0.0733
     15 N2          2.0649   -4.1637   -0.3312 N.am    1  NONAME1    -0.2818
     16 C11         2.8270   -5.2708   -0.0579 C.2     1  NONAME1     0.2342
     17 O3          4.0505   -5.2731    0.0670 O.2     1  NONAME1    -0.2738
     18 C12         2.0627   -6.5909    0.2104 C.3     1  NONAME1     0.0848
     19 C13         2.7292   -7.7194   -0.5841 C.3     1  NONAME1    -0.0409
     20 N3          0.5626   -6.5097    0.1531 N.3     1  NONAME1    -0.2887
     21 C14        -0.0291   -6.7375   -1.1879 C.3     1  NONAME1     0.0154
     22 C15        -1.5917   -6.7514   -1.1899 C.3     1  NONAME1     0.0250
     23 N4         -2.1662   -7.7158   -0.2125 N.pl3   1  NONAME1    -0.3274
     24 C16        -3.5697   -7.9042   -0.2012 C.ar    1  NONAME1     0.0303
     25 C17        -4.4014   -7.4970   -1.2576 C.ar    1  NONAME1    -0.0406
     26 C18        -5.7945   -7.6972   -1.2393 C.ar    1  NONAME1    -0.0595
     27 C19        -6.4027   -8.3260   -0.1626 C.ar    1  NONAME1    -0.0500
     28 C20        -5.6239   -8.7712    0.9039 C.ar    1  NONAME1     0.0566
     29 C21        -6.2490   -9.4849    2.0782 C.3     1  NONAME1     0.4175
     30 F1         -6.2050  -10.8398    1.9513 F       1  NONAME1    -0.1659
     31 F2         -5.6286   -9.2014    3.2595 F       1  NONAME1    -0.1659
     32 F3         -7.5619   -9.1701    2.2673 F       1  NONAME1    -0.1659
     33 C22        -4.2251   -8.5752    0.8553 C.ar    1  NONAME1    -0.0290
     34 C23        -1.5188   -7.6501    1.1160 C.3     1  NONAME1     0.0250
     35 C24         0.0171   -7.5827    1.0311 C.3     1  NONAME1     0.0154
     36 H1         -2.1740   -3.2743    0.8238 H       1  NONAME1     0.0661
     37 H2         -0.8410   -4.3034    1.4018 H       1  NONAME1     0.0661
     38 H3         -0.8501   -2.5950    1.8399 H       1  NONAME1     0.0661
     39 H4          1.7879    0.3024   -0.2764 H       1  NONAME1     0.1661
     40 H5          4.4267    1.1652   -0.0353 H       1  NONAME1     0.0639
     41 H6          6.7586    0.3137    0.0045 H       1  NONAME1     0.0633
     42 H7          5.3736   -3.6937   -0.5734 H       1  NONAME1     0.0639
     43 H8          1.0615   -4.3279   -0.3211 H       1  NONAME1     0.1549
     44 H9          2.3097   -6.7611    1.2699 H       1  NONAME1     0.0556
     45 H10         2.3254   -8.7001   -0.3187 H       1  NONAME1     0.0249
     46 H11         2.6222   -7.5703   -1.6629 H       1  NONAME1     0.0249
     47 H12         3.8045   -7.7553   -0.3729 H       1  NONAME1     0.0249
     48 H13         0.3036   -5.9511   -1.8748 H       1  NONAME1     0.0442
     49 H14         0.3040   -7.6968   -1.6038 H       1  NONAME1     0.0442
     50 H15        -1.9649   -5.7431   -0.9723 H       1  NONAME1     0.0476
     51 H16        -1.8919   -7.0228   -2.2088 H       1  NONAME1     0.0476
     52 H17        -3.9976   -7.0058   -2.1371 H       1  NONAME1     0.0636
     53 H18        -6.3953   -7.3584   -2.0801 H       1  NONAME1     0.0618
     54 H19        -7.4810   -8.4738   -0.1624 H       1  NONAME1     0.0623
     55 H20        -3.6606   -8.9806    1.6902 H       1  NONAME1     0.0641
     56 H21        -1.8988   -6.7858    1.6731 H       1  NONAME1     0.0476
     57 H22        -1.7248   -8.5564    1.6950 H       1  NONAME1     0.0476
     58 H23         0.3719   -8.5653    0.6925 H       1  NONAME1     0.0442
     59 H24         0.3884   -7.4431    2.0536 H       1  NONAME1     0.0442
@<TRIPOS>BOND
     1     1     2    1
     2     2     3    1
     3     3     4    2
     4     3     5    1
     5     5     6   ar
     6     6     7   ar
     7     7     8   ar
     8     8     9   ar
     9     9    10   ar
    10    10    11    1
    11    10    12   ar
    12    12    13   ar
    13     7    13   ar
    14    13    14   ar
    15     5    14   ar
    16    14    15    1
    17    15    16   am
    18    16    17    2
    19    18    16    1
    20    18    19    1
    21    18    20    1
    22    20    21    1
    23    21    22    1
    24    22    23    1
    25    23    24    1
    26    24    25   ar
    27    25    26   ar
    28    26    27   ar
    29    27    28   ar
    30    28    29    1
    31    29    30    1
    32    29    31    1
    33    29    32    1
    34    28    33   ar
    35    24    33   ar
    36    23    34    1
    37    34    35    1
    38    20    35    1
    39     1    36    1
    40     1    37    1
    41     1    38    1
    42     6    39    1
    43     8    40    1
    44     9    41    1
    45    12    42    1
    46    15    43    1
    47    18    44    1
    48    19    45    1
    49    19    46    1
    50    19    47    1
    51    21    48    1
    52    21    49    1
    53    22    50    1
    54    22    51    1
    55    25    52    1
    56    26    53    1
    57    27    54    1
    58    33    55    1
    59    34    56    1
    60    34    57    1
    61    35    58    1
    62    35    59    1
