@<TRIPOS>MOLECULE
*****
 49 51 0 0 0
SMALL
USER_CHARGES

@<TRIPOS>ATOM
      1 C1          5.3347   -3.0800    0.0000 C.3     1  NONAME1     0.0820
      2 O1          4.0010   -2.3100    0.0000 O.3     1  NONAME1    -0.4644
      3 C2          2.8939   -3.0101   -0.4666 C.2     1  NONAME1     0.3416
      4 O2          1.9258   -2.3332   -0.8122 O.2     1  NONAME1    -0.2449
      5 C3          2.7678   -4.5284   -0.4919 C.ar    1  NONAME1     0.0910
      6 C4          3.6697   -5.5641   -0.7903 C.ar    1  NONAME1     0.0870
      7 N1          5.0053   -5.5520   -1.1162 N.am    1  NONAME1    -0.2753
      8 C5          6.0785   -6.4264   -1.0933 C.2     1  NONAME1     0.2486
      9 O3          7.0978   -5.9071   -1.5824 O.2     1  NONAME1    -0.2698
     10 C6          6.2519   -7.8297   -0.5582 C.ar    1  NONAME1     0.0373
     11 C7          7.5343   -8.3933   -0.7728 C.ar    1  NONAME1    -0.0496
     12 C8          7.8440   -9.7191   -0.4489 C.ar    1  NONAME1    -0.0608
     13 C9          6.8597  -10.5445    0.0674 C.ar    1  NONAME1    -0.0588
     14 C10         5.5943  -10.0200    0.3407 C.ar    1  NONAME1    -0.0497
     15 C11         4.4987  -10.9499    0.7820 C.3     1  NONAME1    -0.0397
     16 C12         5.3262   -8.6496    0.0932 C.ar    1  NONAME1    -0.0467
     17 S1          2.8677   -7.0137   -1.1583 S.2     1  NONAME1    -0.0678
     18 C13         1.3998   -6.5229   -0.4688 C.ar    1  NONAME1     0.0796
     19 C14         0.2931   -7.4912   -0.3202 C.2     1  NONAME1     0.2552
     20 O4         -0.8680   -7.1292   -0.1456 O.2     1  NONAME1    -0.2693
     21 N2          0.6896   -8.8219   -0.3723 N.am    1  NONAME1    -0.2811
     22 C15        -0.0908   -9.9900   -0.2462 C.ar    1  NONAME1     0.0337
     23 C16         0.5848  -11.2187   -0.2839 C.ar    1  NONAME1    -0.0405
     24 C17        -0.1029  -12.4288   -0.1523 C.ar    1  NONAME1    -0.0600
     25 C18        -1.4838  -12.4256    0.0068 C.ar    1  NONAME1    -0.0616
     26 C19        -2.1679  -11.2124    0.0363 C.ar    1  NONAME1    -0.0600
     27 C20        -1.4760  -10.0000   -0.0864 C.ar    1  NONAME1    -0.0405
     28 C21         1.4394   -5.1566   -0.1954 C.ar    1  NONAME1    -0.0154
     29 C22         0.2498   -4.3884    0.3183 C.3     1  NONAME1    -0.0376
     30 H1          5.4732   -2.9655    1.0894 H       1  NONAME1     0.0661
     31 H2          6.6684   -3.8500    0.0000 H       1  NONAME1     0.0661
     32 H3          5.8777   -2.2633   -0.5067 H       1  NONAME1     0.0661
     33 H4          5.3262   -4.6958   -1.5495 H       1  NONAME1     0.1556
     34 H5          8.3317   -7.7954   -1.2138 H       1  NONAME1     0.0625
     35 H6          8.8422  -10.1094   -0.6358 H       1  NONAME1     0.0618
     36 H7          7.0827  -11.5935    0.2538 H       1  NONAME1     0.0620
     37 H8          3.8505  -11.1586   -0.0745 H       1  NONAME1     0.0278
     38 H9          3.9059  -10.5159    1.5913 H       1  NONAME1     0.0278
     39 H10         4.8966  -11.9095    1.1311 H       1  NONAME1     0.0278
     40 H11         4.3725   -8.2732    0.4280 H       1  NONAME1     0.0628
     41 H12         1.6819   -8.9699   -0.5143 H       1  NONAME1     0.1551
     42 H13         1.6604  -11.2572   -0.4155 H       1  NONAME1     0.0636
     43 H14         0.4390  -13.3713   -0.1766 H       1  NONAME1     0.0618
     44 H15        -2.0260  -13.3623    0.1056 H       1  NONAME1     0.0618
     45 H16        -3.2495  -11.2047    0.1537 H       1  NONAME1     0.0618
     46 H17        -2.0543   -9.0819   -0.0594 H       1  NONAME1     0.0636
     47 H18         0.5594   -3.5472    0.9455 H       1  NONAME1     0.0278
     48 H19        -0.3433   -4.0113   -0.5206 H       1  NONAME1     0.0278
     49 H20        -0.3927   -5.0098    0.9489 H       1  NONAME1     0.0278
@<TRIPOS>BOND
     1     1     2    1
     2     2     3    1
     3     3     4    2
     4     3     5    1
     5     5     6   ar
     6     6     7    1
     7     7     8   am
     8     8     9    2
     9     8    10    1
    10    10    11   ar
    11    11    12   ar
    12    12    13   ar
    13    13    14   ar
    14    14    15    1
    15    14    16   ar
    16    10    16   ar
    17     6    17   ar
    18    17    18   ar
    19    18    19    1
    20    19    20    2
    21    19    21   am
    22    21    22    1
    23    22    23   ar
    24    23    24   ar
    25    24    25   ar
    26    25    26   ar
    27    26    27   ar
    28    22    27   ar
    29    18    28   ar
    30     5    28   ar
    31    28    29    1
    32     1    30    1
    33     1    31    1
    34     1    32    1
    35     7    33    1
    36    11    34    1
    37    12    35    1
    38    13    36    1
    39    15    37    1
    40    15    38    1
    41    15    39    1
    42    16    40    1
    43    21    41    1
    44    23    42    1
    45    24    43    1
    46    25    44    1
    47    26    45    1
    48    27    46    1
    49    29    47    1
    50    29    48    1
    51    29    49    1
