@<TRIPOS>MOLECULE
*****
 58 61 0 0 0
SMALL
USER_CHARGES

@<TRIPOS>ATOM
      1 C1          0.1104  -12.2336    3.9909 C.3     1  NONAME1    -0.0397
      2 C2         -1.3497  -12.0514    3.6980 C.ar    1  NONAME1    -0.0487
      3 C3         -2.3209  -12.6197    4.5012 C.ar    1  NONAME1    -0.0585
      4 C4         -3.6554  -12.3473    4.2366 C.ar    1  NONAME1    -0.0568
      5 C5         -4.0636  -11.5120    3.1583 C.ar    1  NONAME1    -0.0293
      6 C6         -5.5593  -11.3211    3.0892 C.3     1  NONAME1    -0.0380
      7 C7         -3.0929  -10.9597    2.2728 C.ar    1  NONAME1     0.0357
      8 N1         -3.3144  -10.1253    1.1679 N.pl3   1  NONAME1    -0.2904
      9 C8         -4.6583   -9.7481    0.7481 C.3     1  NONAME1     0.0781
     10 N2         -4.7075   -9.2226   -0.6349 N.3     1  NONAME1    -0.2371
     11 N3         -3.4324   -9.6909   -1.2435 N.3     1  NONAME1    -0.2260
     12 C9         -2.7002  -10.3992   -0.1503 C.3     1  NONAME1     0.1368
     13 S1         -0.9223  -10.1422   -0.4278 S.3     1  NONAME1    -0.1124
     14 C10        -0.6331   -8.4231    0.1162 C.3     1  NONAME1     0.0732
     15 C11         0.7858   -8.2804    0.6962 C.2     1  NONAME1     0.2236
     16 O1          1.1506   -8.9536    1.6607 O.2     1  NONAME1    -0.2749
     17 N4          1.5683   -7.2824    0.1182 N.am    1  NONAME1    -0.3013
     18 C12         3.0235   -7.2016    0.4489 C.3     1  NONAME1     0.1287
     19 C13         3.6544   -5.7980    0.3538 C.3     1  NONAME1     0.0033
     20 C14         3.6200   -4.9963   -0.9298 C.ar    1  NONAME1    -0.0201
     21 C15         4.3160   -3.7432   -1.1308 C.ar    1  NONAME1     0.0029
     22 C16         5.1871   -2.9705   -0.3322 C.ar    1  NONAME1    -0.0523
     23 C17         5.7032   -1.7649   -0.8297 C.ar    1  NONAME1    -0.0611
     24 C18         5.3538   -1.3160   -2.1006 C.ar    1  NONAME1    -0.0598
     25 C19         4.5021   -2.0630   -2.9178 C.ar    1  NONAME1    -0.0378
     26 C20         4.0129   -3.2780   -2.4108 C.ar    1  NONAME1     0.0467
     27 N5          3.2123   -4.2301   -2.9937 N.ar    1  NONAME1    -0.3604
     28 C21         2.9913   -5.2688   -2.1279 C.ar    1  NONAME1     0.0060
     29 C22         3.9365   -8.1601   -0.3624 C.2     1  NONAME1     0.3762
     30 O2          3.4733   -8.4998   -1.4955 O.co2   1  NONAME1    -0.2443
     31 O3          5.0316   -8.4814    0.1900 O.co2   1  NONAME1    -0.2443
     32 C23        -1.7506  -11.2254    2.6322 C.ar    1  NONAME1    -0.0374
     33 H1          0.2905  -13.1792    4.5130 H       1  NONAME1     0.0278
     34 H2          0.4724  -11.4109    4.6153 H       1  NONAME1     0.0278
     35 H3          0.6920  -12.2595    3.0632 H       1  NONAME1     0.0278
     36 H4         -2.0510  -13.2476    5.3455 H       1  NONAME1     0.0620
     37 H5         -4.3997  -12.7896    4.8988 H       1  NONAME1     0.0621
     38 H6         -5.8269  -10.2637    3.0424 H       1  NONAME1     0.0278
     39 H7         -5.9837  -11.8818    2.2518 H       1  NONAME1     0.0278
     40 H8         -6.0581  -11.6992    3.9911 H       1  NONAME1     0.0278
     41 H9         -5.3071  -10.6290    0.7233 H       1  NONAME1     0.0644
     42 H10        -5.0913   -9.0015    1.4207 H       1  NONAME1     0.0644
     43 H11        -5.5000   -9.6622   -1.1095 H       1  NONAME1     0.1424
     44 H12        -2.8529   -8.8743   -1.4450 H       1  NONAME1     0.1434
     45 H13        -2.8602  -11.4658   -0.3589 H       1  NONAME1     0.0803
     46 H14        -1.3363   -8.1310    0.9005 H       1  NONAME1     0.0472
     47 H15        -0.7644   -7.7561   -0.7409 H       1  NONAME1     0.0472
     48 H16         1.4223   -7.1658   -0.8754 H       1  NONAME1     0.1495
     49 H17         3.1136   -7.5101    1.4995 H       1  NONAME1     0.0619
     50 H18         4.7126   -5.8745    0.6462 H       1  NONAME1     0.0337
     51 H19         3.1804   -5.1689    1.1190 H       1  NONAME1     0.0337
     52 H20         5.4763   -3.3225    0.6534 H       1  NONAME1     0.0624
     53 H21         6.3876   -1.1856   -0.2168 H       1  NONAME1     0.0618
     54 H22         5.7607   -0.3773   -2.4680 H       1  NONAME1     0.0618
     55 H23         4.2407   -1.7205   -3.9109 H       1  NONAME1     0.0638
     56 H24         2.8667   -4.1908   -3.9405 H       1  NONAME1     0.1653
     57 H25         2.4289   -6.1304   -2.4593 H       1  NONAME1     0.0810
     58 H26        -0.9410  -10.7382    2.0994 H       1  NONAME1     0.0639
@<TRIPOS>BOND
     1     1     2    1
     2     2     3   ar
     3     3     4   ar
     4     4     5   ar
     5     5     6    1
     6     5     7   ar
     7     7     8    1
     8     8     9    1
     9     9    10    1
    10    10    11    1
    11    12    11    1
    12    12     8    1
    13    12    13    1
    14    13    14    1
    15    14    15    1
    16    15    16    2
    17    15    17   am
    18    18    17    1
    19    18    19    1
    20    19    20    1
    21    20    21   ar
    22    21    22   ar
    23    22    23   ar
    24    23    24   ar
    25    24    25   ar
    26    25    26   ar
    27    21    26   ar
    28    26    27   ar
    29    27    28   ar
    30    20    28   ar
    31    18    29    1
    32    29    30   ar
    33    29    31   ar
    34     7    32   ar
    35     2    32   ar
    36     1    33    1
    37     1    34    1
    38     1    35    1
    39     3    36    1
    40     4    37    1
    41     6    38    1
    42     6    39    1
    43     6    40    1
    44     9    41    1
    45     9    42    1
    46    10    43    1
    47    11    44    1
    48    12    45    1
    49    14    46    1
    50    14    47    1
    51    17    48    1
    52    18    49    1
    53    19    50    1
    54    19    51    1
    55    22    52    1
    56    23    53    1
    57    24    54    1
    58    25    55    1
    59    27    56    1
    60    28    57    1
    61    32    58    1
