@<TRIPOS>MOLECULE
*****
 33 35 0 0 0
SMALL
USER_CHARGES

@<TRIPOS>ATOM
      1 C1         -1.6522   -5.6377   -0.0918 C.3     1  NONAME1    -0.0057
      2 C2         -2.3536   -4.4505   -0.6206 C.ar    1  NONAME1     0.1123
      3 O1         -3.7096   -4.5814   -0.7197 O.2     1  NONAME1    -0.4674
      4 C3         -4.1963   -3.4270   -1.2317 C.ar    1  NONAME1     0.0928
      5 C4         -3.1682   -2.5523   -1.4821 C.ar    1  NONAME1    -0.0131
      6 C5         -1.9617   -3.1852   -1.0308 C.ar    1  NONAME1     0.0597
      7 C6         -0.5898   -2.6211   -0.9950 C.2     1  NONAME1     0.1896
      8 O2          0.2635   -3.1473   -1.7064 O.2     1  NONAME1    -0.2901
      9 C7         -0.3196   -1.3028    0.0000 C.3     1  NONAME1     0.1567
     10 C8         -0.5131   -0.0945   -0.9189 C.1     1  NONAME1     0.0808
     11 N1         -0.7771    0.8070   -1.6083 N.1     1  NONAME1    -0.1954
     12 C9          1.2204   -1.3028    0.0000 C.ar    1  NONAME1     0.1040
     13 N2          2.1473   -0.3217   -0.2125 N.ar    1  NONAME1    -0.2422
     14 C10         3.5710   -0.7158   -0.0420 C.ar    1  NONAME1     0.0791
     15 C11         4.8792    0.0194   -0.1925 C.ar    1  NONAME1    -0.0236
     16 C12         6.2576   -0.5328    0.0000 C.ar    1  NONAME1     0.0569
     17 C13         7.5913    0.2372    0.0000 C.3     1  NONAME1     0.4175
     18 F1          8.9250    1.0072    0.0000 F       1  NONAME1    -0.1659
     19 F2          8.1465   -0.5983   -1.0193 F       1  NONAME1    -0.1659
     20 F3          7.0512    1.3308   -0.7452 F       1  NONAME1    -0.1659
     21 C14         6.2064   -1.8874    0.3569 C.ar    1  NONAME1    -0.0489
     22 C15         4.9803   -2.6213    0.5385 C.ar    1  NONAME1    -0.0454
     23 C16         3.6895   -2.0343    0.3670 C.ar    1  NONAME1     0.0393
     24 S1          2.1028   -2.7107    0.6607 S.2     1  NONAME1    -0.0704
     25 H1         -2.2666   -6.1471    0.6580 H       1  NONAME1     0.0308
     26 H2         -1.4513   -6.3460   -0.9023 H       1  NONAME1     0.0308
     27 H3         -0.7053   -5.3632    0.3775 H       1  NONAME1     0.0308
     28 H4         -5.2697   -3.3810   -1.3582 H       1  NONAME1     0.1029
     29 H5         -3.2773   -1.5593   -1.8995 H       1  NONAME1     0.0656
     30 H6         -1.8596   -1.3028    0.0000 H       1  NONAME1     0.0607
     31 H7          4.7792    1.0723   -0.4637 H       1  NONAME1     0.0645
     32 H8          7.1401   -2.4300    0.5214 H       1  NONAME1     0.0623
     33 H9          5.0447   -3.6691    0.8321 H       1  NONAME1     0.0629
@<TRIPOS>BOND
     1     1     2    1
     2     2     3   ar
     3     3     4   ar
     4     4     5   ar
     5     5     6   ar
     6     2     6   ar
     7     6     7    1
     8     7     8    2
     9     9     7    1
    10     9    10    1
    11    10    11    3
    12     9    12    1
    13    12    13   ar
    14    13    14   ar
    15    14    15   ar
    16    15    16   ar
    17    16    17    1
    18    17    18    1
    19    17    19    1
    20    17    20    1
    21    16    21   ar
    22    21    22   ar
    23    22    23   ar
    24    14    23   ar
    25    23    24   ar
    26    12    24   ar
    27     1    25    1
    28     1    26    1
    29     1    27    1
    30     4    28    1
    31     5    29    1
    32     9    30    1
    33    15    31    1
    34    21    32    1
    35    22    33    1
