@<TRIPOS>MOLECULE
*****
 47 50 0 0 0
SMALL
USER_CHARGES

@<TRIPOS>ATOM
      1 O1          0.5108   -4.4813   -0.3853 O.2     1  NONAME1    -0.2734
      2 C1          0.3847   -3.2703   -0.2124 C.2     1  NONAME1     0.2393
      3 C2         -0.9243   -2.5000   -0.3052 C.3     1  NONAME1     0.0762
      4 S1         -2.3613   -3.5081    0.1847 S.3     1  NONAME1    -0.1157
      5 C3         -2.8191   -4.4115   -1.2935 C.ar    1  NONAME1     0.0120
      6 C4         -2.1236   -4.3848   -2.5070 C.ar    1  NONAME1    -0.0446
      7 C5         -2.5872   -5.1063   -3.6144 C.ar    1  NONAME1    -0.0152
      8 C6         -3.7379   -5.8815   -3.5130 C.ar    1  NONAME1     0.1621
      9 C7         -4.4384   -5.9254   -2.3084 C.ar    1  NONAME1     0.1631
     10 C8         -3.9794   -5.1983   -1.2076 C.ar    1  NONAME1    -0.0029
     11 O2         -5.5740   -6.6715   -2.1244 O.3     1  NONAME1    -0.4849
     12 C9         -6.1236   -7.1251   -3.3656 C.3     1  NONAME1     0.1237
     13 C10        -5.0396   -7.6173   -4.3108 C.3     1  NONAME1     0.1237
     14 O3         -4.1225   -6.5675   -4.6347 O.3     1  NONAME1    -0.4849
     15 N1          1.4762   -2.4628    0.0612 N.am    1  NONAME1    -0.2337
     16 N2          2.7431   -3.0576    0.1235 N.am    1  NONAME1    -0.2341
     17 C11         3.8592   -2.2466   -0.0370 C.2     1  NONAME1     0.2335
     18 O4          3.7387   -1.0318   -0.1758 O.2     1  NONAME1    -0.2739
     19 C12         5.1573   -3.0436   -0.0252 C.3     1  NONAME1     0.0525
     20 C13         6.4563   -2.2893   -0.0249 C.ar    1  NONAME1    -0.0136
     21 C14         6.6850   -0.9274   -0.0310 C.ar    1  NONAME1     0.0064
     22 N3          8.0347   -0.7025   -0.0319 N.ar    1  NONAME1    -0.3604
     23 C15         8.7143   -1.8960   -0.0192 C.ar    1  NONAME1     0.0467
     24 C16        10.0917   -2.1486   -0.0127 C.ar    1  NONAME1    -0.0378
     25 C17        10.5052   -3.4823    0.0020 C.ar    1  NONAME1    -0.0598
     26 C18         9.5770   -4.5193    0.0104 C.ar    1  NONAME1    -0.0611
     27 C19         8.2027   -4.2487    0.0027 C.ar    1  NONAME1    -0.0523
     28 C20         7.7557   -2.9094   -0.0132 C.ar    1  NONAME1     0.0033
     29 H1         -1.0416   -2.0686   -1.3024 H       1  NONAME1     0.0475
     30 H2         -0.8830   -1.6648    0.4034 H       1  NONAME1     0.0475
     31 H3         -1.2034   -3.8253   -2.6283 H       1  NONAME1     0.0630
     32 H4         -2.0356   -5.0780   -4.5502 H       1  NONAME1     0.0656
     33 H5         -4.5438   -5.2479   -0.2787 H       1  NONAME1     0.0666
     34 H6         -6.6988   -6.3038   -3.8095 H       1  NONAME1     0.0731
     35 H7         -6.8174   -7.9415   -3.1395 H       1  NONAME1     0.0731
     36 H8         -5.4885   -7.9646   -5.2473 H       1  NONAME1     0.0731
     37 H9         -4.4742   -8.4505   -3.8760 H       1  NONAME1     0.0731
     38 H10         1.4596   -1.4443    0.0155 H       1  NONAME1     0.1728
     39 H11         2.7685   -4.0746    0.0481 H       1  NONAME1     0.1728
     40 H12         5.1393   -3.6997   -0.9051 H       1  NONAME1     0.0408
     41 H13         5.1385   -3.6842    0.8665 H       1  NONAME1     0.0408
     42 H14         6.0020   -0.0866   -0.0386 H       1  NONAME1     0.0810
     43 H15         8.4740    0.2071   -0.0395 H       1  NONAME1     0.1653
     44 H16        10.8160   -1.3407   -0.0194 H       1  NONAME1     0.0638
     45 H17        11.5690   -3.7118    0.0071 H       1  NONAME1     0.0618
     46 H18         9.9200   -5.5510    0.0221 H       1  NONAME1     0.0618
     47 H19         7.4913   -5.0683    0.0094 H       1  NONAME1     0.0624
@<TRIPOS>BOND
     1     1     2    2
     2     2     3    1
     3     3     4    1
     4     4     5    1
     5     5     6   ar
     6     6     7   ar
     7     7     8   ar
     8     8     9   ar
     9     9    10   ar
    10     5    10   ar
    11     9    11    1
    12    11    12    1
    13    12    13    1
    14    13    14    1
    15     8    14    1
    16     2    15   am
    17    15    16    1
    18    16    17   am
    19    17    18    2
    20    17    19    1
    21    19    20    1
    22    20    21   ar
    23    21    22   ar
    24    22    23   ar
    25    23    24   ar
    26    24    25   ar
    27    25    26   ar
    28    26    27   ar
    29    27    28   ar
    30    20    28   ar
    31    23    28   ar
    32     3    29    1
    33     3    30    1
    34     6    31    1
    35     7    32    1
    36    10    33    1
    37    12    34    1
    38    12    35    1
    39    13    36    1
    40    13    37    1
    41    15    38    1
    42    16    39    1
    43    19    40    1
    44    19    41    1
    45    21    42    1
    46    22    43    1
    47    24    44    1
    48    25    45    1
    49    26    46    1
    50    27    47    1
