@<TRIPOS>MOLECULE
*****
 55 56 0 0 0
SMALL
USER_CHARGES

@<TRIPOS>ATOM
      1 C1        -10.8758   -4.5458   -0.1382 C.3     1  NONAME1    -0.0306
      2 C2         -9.3610   -4.5401   -0.1342 C.3     1  NONAME1     0.0900
      3 O1         -8.9000   -3.1832   -0.1059 O.3     1  NONAME1    -0.4614
      4 C3         -7.5363   -3.0848   -0.0633 C.2     1  NONAME1     0.3412
      5 O2         -6.8015   -4.0654   -0.0224 O.2     1  NONAME1    -0.2449
      6 C4         -7.0290   -1.6989   -0.0576 C.ar    1  NONAME1     0.0828
      7 C5         -7.7720   -0.5181    0.0000 C.ar    1  NONAME1     0.0277
      8 C6         -9.3036   -0.3571    0.0000 C.3     1  NONAME1    -0.0236
      9 N1         -6.8204    0.5357    0.0544 N.ar    1  NONAME1    -0.3537
     10 C7         -5.4987    0.0664    0.0686 C.ar    1  NONAME1     0.1060
     11 C8         -4.1635    0.7350    0.2977 C.2     1  NONAME1     0.2648
     12 O3         -3.2730    0.0816    0.8446 O.2     1  NONAME1    -0.2682
     13 N2         -3.8961    2.0600   -0.0928 N.am    1  NONAME1    -0.2803
     14 C9         -2.5707    2.6905   -0.1162 C.ar    1  NONAME1     0.0338
     15 C10        -2.4629    4.0856   -0.2561 C.ar    1  NONAME1    -0.0398
     16 C11        -1.1868    4.7421   -0.3124 C.ar    1  NONAME1    -0.0479
     17 C12         0.0501    4.0494   -0.2577 C.ar    1  NONAME1     0.0368
     18 C13         1.3667    4.8497   -0.3712 C.2     1  NONAME1     0.2441
     19 O4          1.2771    6.0734   -0.4760 O.2     1  NONAME1    -0.2702
     20 N3          2.6365    4.2138   -0.3721 N.am    1  NONAME1    -0.3111
     21 C14         3.8896    4.9623   -0.7310 C.3     1  NONAME1     0.0142
     22 C15         5.3347    4.6200    0.0000 C.3     1  NONAME1    -0.0311
     23 C16         5.6602    3.6438    1.1457 C.3     1  NONAME1    -0.0612
     24 C17         6.3429    4.8262   -1.1457 C.3     1  NONAME1    -0.0612
     25 C18        -0.0619    2.6651   -0.1210 C.ar    1  NONAME1    -0.0479
     26 C19        -1.3420    2.0068   -0.0454 C.ar    1  NONAME1    -0.0398
     27 C20        -5.6311   -1.3235   -0.0914 C.ar    1  NONAME1    -0.0064
     28 C21        -4.4909   -2.2957   -0.2120 C.3     1  NONAME1    -0.0368
     29 H1        -11.2667   -3.8901   -0.9222 H       1  NONAME1     0.0262
     30 H2        -11.2615   -4.1744    0.8166 H       1  NONAME1     0.0262
     31 H3        -11.2567   -5.5591   -0.2966 H       1  NONAME1     0.0262
     32 H4         -8.9972   -5.0817    0.7475 H       1  NONAME1     0.0695
     33 H5         -8.9914   -5.0292   -1.0429 H       1  NONAME1     0.0695
     34 H6         -9.2869    0.7475    0.1146 H       1  NONAME1     0.0292
     35 H7        -10.8352   -0.1961    0.0000 H       1  NONAME1     0.0292
     36 H8         -9.4318   -0.7955    1.0136 H       1  NONAME1     0.0292
     37 H9         -7.0788    1.5070    0.1548 H       1  NONAME1     0.1657
     38 H10        -4.6788    2.6429   -0.3483 H       1  NONAME1     0.1552
     39 H11        -3.3558    4.7047   -0.3051 H       1  NONAME1     0.0636
     40 H12        -1.1804    5.8311   -0.4015 H       1  NONAME1     0.0626
     41 H13         2.6631    3.2121   -0.4414 H       1  NONAME1     0.1490
     42 H14         3.7060    6.0233   -0.5126 H       1  NONAME1     0.0465
     43 H15         3.9788    4.8665   -1.8187 H       1  NONAME1     0.0465
     44 H16         4.3265    4.4138    1.1457 H       1  NONAME1     0.0311
     45 H17         6.0392    2.8352    0.4886 H       1  NONAME1     0.0233
     46 H18         5.9858    2.6676    2.2915 H       1  NONAME1     0.0233
     47 H19         6.4966    4.2470    1.5567 H       1  NONAME1     0.0233
     48 H20         6.2592    5.9336   -1.1458 H       1  NONAME1     0.0233
     49 H21         7.3510    5.0324   -2.2915 H       1  NONAME1     0.0233
     50 H22         7.2456    4.5837   -0.5492 H       1  NONAME1     0.0233
     51 H23         0.8268    2.0463   -0.0674 H       1  NONAME1     0.0626
     52 H24        -1.3210    0.9215    0.0347 H       1  NONAME1     0.0636
     53 H25        -4.7481   -3.1323   -0.8673 H       1  NONAME1     0.0278
     54 H26        -4.2195   -2.6857    0.7735 H       1  NONAME1     0.0278
     55 H27        -3.6100   -1.8312   -0.6651 H       1  NONAME1     0.0278
@<TRIPOS>BOND
     1     1     2    1
     2     2     3    1
     3     3     4    1
     4     4     5    2
     5     4     6    1
     6     6     7   ar
     7     7     8    1
     8     7     9   ar
     9     9    10   ar
    10    10    11    1
    11    11    12    2
    12    11    13   am
    13    13    14    1
    14    14    15   ar
    15    15    16   ar
    16    16    17   ar
    17    17    18    1
    18    18    19    2
    19    18    20   am
    20    20    21    1
    21    21    22    1
    22    22    23    1
    23    22    24    1
    24    17    25   ar
    25    25    26   ar
    26    14    26   ar
    27    10    27   ar
    28     6    27   ar
    29    27    28    1
    30     1    29    1
    31     1    30    1
    32     1    31    1
    33     2    32    1
    34     2    33    1
    35     8    34    1
    36     8    35    1
    37     8    36    1
    38     9    37    1
    39    13    38    1
    40    15    39    1
    41    16    40    1
    42    20    41    1
    43    21    42    1
    44    21    43    1
    45    22    44    1
    46    23    45    1
    47    23    46    1
    48    23    47    1
    49    24    48    1
    50    24    49    1
    51    24    50    1
    52    25    51    1
    53    26    52    1
    54    28    53    1
    55    28    54    1
    56    28    55    1
