@<TRIPOS>MOLECULE
*****
 55 56 0 0 0
SMALL
USER_CHARGES

@<TRIPOS>ATOM
      1 C1         -4.4798   -6.2260   -1.4708 C.3     1  NONAME1     0.0366
      2 O1         -3.7536   -5.0354   -1.1867 O.3     1  NONAME1    -0.3796
      3 C2         -2.9158   -5.1865   -0.0395 C.3     1  NONAME1     0.0813
      4 C3         -1.5856   -5.8243   -0.4323 C.3     1  NONAME1     0.1128
      5 O2         -1.0639   -6.5038    0.7148 O.3     1  NONAME1    -0.4889
      6 C4          0.0774   -7.1972    0.4083 C.ar    1  NONAME1     0.1327
      7 C5         -0.0769   -8.5793    0.2442 C.ar    1  NONAME1    -0.0192
      8 C6          1.0303   -9.3849   -0.0047 C.ar    1  NONAME1    -0.0583
      9 C7          2.2971   -8.8137   -0.0590 C.ar    1  NONAME1    -0.0608
     10 C8          2.4578   -7.4346    0.1261 C.ar    1  NONAME1    -0.0461
     11 C9          1.3481   -6.6001    0.3549 C.ar    1  NONAME1     0.0786
     12 C10         1.4884   -5.1164    0.5400 C.2     1  NONAME1     0.2531
     13 O3          0.5710   -4.4285    0.9823 O.2     1  NONAME1    -0.2697
     14 N1          2.6906   -4.5400    0.1642 N.am    1  NONAME1    -0.2635
     15 C11         3.0287   -3.2460    0.4994 C.2     1  NONAME1     0.1411
     16 S1          4.5108   -3.0760    1.2351 S.2     1  NONAME1    -0.0182
     17 N2          2.0495   -2.3209    0.2252 N.am    1  NONAME1    -0.2960
     18 C12         2.0245   -0.9061    0.1773 C.ar    1  NONAME1     0.0448
     19 C13         0.7418   -0.3494    0.3773 C.ar    1  NONAME1    -0.0398
     20 C14         0.5291    1.0323    0.3929 C.ar    1  NONAME1    -0.0600
     21 C15         1.5964    1.8983    0.1986 C.ar    1  NONAME1    -0.0609
     22 C16         2.8659    1.3769   -0.0511 C.ar    1  NONAME1    -0.0478
     23 C17         3.0830   -0.0163   -0.0843 C.ar    1  NONAME1     0.0578
     24 C18         4.4050   -0.4338   -0.6041 C.2     1  NONAME1     0.2459
     25 O4          4.4748   -1.1409   -1.6044 O.2     1  NONAME1    -0.2701
     26 N3          5.4927    0.0410    0.1073 N.am    1  NONAME1    -0.3112
     27 C19         6.7800   -0.6187   -0.0236 C.3     1  NONAME1     0.0140
     28 C20         7.9476    0.3564   -0.0709 C.3     1  NONAME1    -0.0141
     29 C21         9.2574   -0.3987   -0.2615 C.3     1  NONAME1     0.0456
     30 O5          9.4857   -1.2572    0.8486 O.3     1  NONAME1    -0.3950
     31 H1         -4.9229   -6.1284   -2.4646 H       1  NONAME1     0.0524
     32 H2         -5.2799   -6.3581   -0.7373 H       1  NONAME1     0.0524
     33 H3         -3.8288   -7.1062   -1.4675 H       1  NONAME1     0.0524
     34 H4         -3.4323   -5.7531    0.7450 H       1  NONAME1     0.0593
     35 H5         -2.7292   -4.1880    0.3722 H       1  NONAME1     0.0593
     36 H6         -0.9114   -5.0335   -0.7803 H       1  NONAME1     0.0720
     37 H7         -1.7047   -6.5234   -1.2675 H       1  NONAME1     0.0720
     38 H8         -1.0658   -9.0250    0.3131 H       1  NONAME1     0.0654
     39 H9          0.9064  -10.4566   -0.1401 H       1  NONAME1     0.0619
     40 H10         3.1676   -9.4429   -0.2337 H       1  NONAME1     0.0618
     41 H11         3.4763   -7.0622    0.1054 H       1  NONAME1     0.0626
     42 H12         3.5004   -5.1348    0.1185 H       1  NONAME1     0.1568
     43 H13         1.1282   -2.7585    0.2350 H       1  NONAME1     0.1539
     44 H14        -0.1190   -0.9983    0.5364 H       1  NONAME1     0.0636
     45 H15        -0.4732    1.4237    0.5515 H       1  NONAME1     0.0618
     46 H16         1.4358    2.9734    0.2038 H       1  NONAME1     0.0618
     47 H17         3.6788    2.0650   -0.2773 H       1  NONAME1     0.0626
     48 H18         5.2984    0.4589    1.0074 H       1  NONAME1     0.1490
     49 H19         6.8857   -1.2642    0.8549 H       1  NONAME1     0.0463
     50 H20         6.7855   -1.2640   -0.9079 H       1  NONAME1     0.0463
     51 H21         7.8094    1.0690   -0.8912 H       1  NONAME1     0.0302
     52 H22         7.9779    0.9289    0.8640 H       1  NONAME1     0.0302
     53 H23         9.2254   -1.0058   -1.1729 H       1  NONAME1     0.0557
     54 H24        10.0954    0.3004   -0.3333 H       1  NONAME1     0.0557
     55 H25        10.2281   -1.8404    0.6151 H       1  NONAME1     0.2094
@<TRIPOS>BOND
     1     1     2    1
     2     2     3    1
     3     3     4    1
     4     4     5    1
     5     5     6    1
     6     6     7   ar
     7     7     8   ar
     8     8     9   ar
     9     9    10   ar
    10    10    11   ar
    11     6    11   ar
    12    11    12    1
    13    12    13    2
    14    12    14   am
    15    14    15    1
    16    15    16    2
    17    15    17    1
    18    17    18    1
    19    18    19   ar
    20    19    20   ar
    21    20    21   ar
    22    21    22   ar
    23    22    23   ar
    24    18    23   ar
    25    23    24    1
    26    24    25    2
    27    24    26   am
    28    26    27    1
    29    27    28    1
    30    28    29    1
    31    29    30    1
    32     1    31    1
    33     1    32    1
    34     1    33    1
    35     3    34    1
    36     3    35    1
    37     4    36    1
    38     4    37    1
    39     7    38    1
    40     8    39    1
    41     9    40    1
    42    10    41    1
    43    14    42    1
    44    17    43    1
    45    19    44    1
    46    20    45    1
    47    21    46    1
    48    22    47    1
    49    26    48    1
    50    27    49    1
    51    27    50    1
    52    28    51    1
    53    28    52    1
    54    29    53    1
    55    29    54    1
    56    30    55    1
