REMARK  6 active torsions:
REMARK  status: ('A' for Active; 'I' for Inactive)
REMARK       I    between atoms: N1_2  and  C2_3 
REMARK    1  A    between atoms: C2_3  and  C3_5 
REMARK    2  A    between atoms: C6_8  and  C7_9 
REMARK    3  A    between atoms: C7_9  and  N2_10 
REMARK       I    between atoms: N2_10  and  C9_12 
REMARK    4  A    between atoms: C9_12  and  C10_14 
REMARK    5  A    between atoms: C14_19  and  N4_20 
REMARK    6  A    between atoms: N4_20  and  C15_21 
ROOT
ATOM      1  N2  NON d   1       4.001 -14.630   0.000  0.00  0.00    -0.348 N 
ATOM      2  C8  NON d   1       5.335 -13.860   0.000  0.00  0.00     0.153 C 
ATOM      3  C9  NON d   1       3.933 -16.020   0.271  0.00  0.00     0.257 C 
ATOM      4  O2  NON d   1       2.857 -16.599   0.408  0.00  0.00    -0.267 OA
ENDROOT
BRANCH   3   5
ATOM      5  C10 NON d   1       5.192 -16.839   0.389  0.00  0.00     0.078 C 
ATOM      6  C11 NON d   1       6.337 -16.323   1.024  0.00  0.00     0.022 C 
ATOM      7  C12 NON d   1       7.560 -16.977   0.933  0.00  0.00     0.020 C 
ATOM      8  C13 NON d   1       7.588 -18.174   0.264  0.00  0.00     0.119 C 
ATOM      9  N3  NON d   1       6.480 -18.771  -0.211  0.00  0.00    -0.242 NA
ATOM     10  C14 NON d   1       5.270 -18.157  -0.096  0.00  0.00     0.143 C 
BRANCH  10  11
ATOM     11  N4  NON d   1       4.114 -18.903  -0.422  0.00  0.00    -0.338 N 
ATOM     12  H15 NON d   1       3.255 -18.382  -0.214  0.00  0.00     0.167 HD
BRANCH  11  13
ATOM     13  C15 NON d   1       3.905 -20.305  -0.298  0.00  0.00     0.072 A 
ATOM     14  C16 NON d   1       4.934 -21.252  -0.179  0.00  0.00     0.033 A 
ATOM     15  C17 NON d   1       4.665 -22.623  -0.061  0.00  0.00     0.002 A 
ATOM     16  C18 NON d   1       3.354 -23.084  -0.085  0.00  0.00     0.003 A 
ATOM     17  C19 NON d   1       2.313 -22.172  -0.239  0.00  0.00     0.044 A 
ATOM     18  C20 NON d   1       2.595 -20.808  -0.353  0.00  0.00     0.143 A 
ATOM     19  F1  NON d   1       1.568 -19.955  -0.489  0.00  0.00    -0.204 F 
ENDBRANCH  11  13
ENDBRANCH  10  11
ENDBRANCH   3   5
BRANCH   1  20
ATOM     20  C7  NON d   1       2.764 -13.787   0.291  0.00  0.00     0.164 C 
BRANCH  20  21
ATOM     21  C6  NON d   1       2.732 -12.212   0.199  0.00  0.00    -0.040 A 
ATOM     22  C5  NON d   1       3.686 -11.358   0.774  0.00  0.00     0.010 A 
ATOM     23  C4  NON d   1       3.575  -9.929   0.719  0.00  0.00     0.017 A 
ATOM     24  C3  NON d   1       2.468  -9.253   0.159  0.00  0.00     0.032 A 
ATOM     25  C22 NON d   1       1.471 -10.088  -0.355  0.00  0.00     0.017 A 
ATOM     26  C21 NON d   1       1.606 -11.529  -0.337  0.00  0.00     0.010 A 
BRANCH  24  27
ATOM     27  C2  NON d   1       2.502  -7.707   0.119  0.00  0.00     0.251 C 
ATOM     28  N1  NON d   1       1.334  -6.930   0.000  0.00  0.00    -0.361 N 
ATOM     29  C1  NON d   1       1.334  -5.390   0.000  0.00  0.00     0.149 C 
ATOM     30  H4  NON d   1       0.441  -7.404  -0.022  0.00  0.00     0.162 HD
ATOM     31  O1  NON d   1       3.602  -7.160   0.212  0.00  0.00    -0.268 OA
ENDBRANCH  24  27
ENDBRANCH  20  21
ENDBRANCH   1  20
TORSDOF 6
