@<TRIPOS>MOLECULE
*****
 75 77 0 0 0
SMALL
USER_CHARGES

@<TRIPOS>ATOM
      1 C1          2.6673   -7.6999    0.0183 C.3     1  NONAME1    -0.0639
      2 C2          2.6674   -6.1600    0.0000 C.3     1  NONAME1    -0.0400
      3 C3          3.4934   -5.1338    0.9184 C.3     1  NONAME1     0.0155
      4 N1          3.7386   -3.6570    0.2936 N.am    1  NONAME1    -0.2854
      5 C4          2.6471   -3.0065   -0.3427 C.2     1  NONAME1     0.2208
      6 O1          2.7889   -2.1174   -1.1823 O.2     1  NONAME1    -0.2752
      7 C5          1.2558   -3.5217    0.0157 C.3     1  NONAME1     0.0494
      8 C6         -0.0023   -2.6914   -0.1359 C.ar    1  NONAME1    -0.0349
      9 C7         -1.2200   -3.4237   -0.3044 C.ar    1  NONAME1    -0.0544
     10 C8         -2.4630   -2.7907   -0.3510 C.ar    1  NONAME1    -0.0159
     11 C9         -2.4694   -1.4275   -0.2125 C.ar    1  NONAME1     0.1662
     12 C10        -1.3043   -0.7077   -0.0376 C.ar    1  NONAME1     0.1665
     13 C11        -0.0611   -1.3019    0.0136 C.ar    1  NONAME1    -0.0125
     14 O2         -1.5496    0.6255    0.1005 O.3     1  NONAME1    -0.4526
     15 C12        -2.9875    0.6576   -0.0342 C.3     1  NONAME1     0.2332
     16 O3         -3.5788   -0.6430   -0.2189 O.3     1  NONAME1    -0.4526
     17 C13         5.3347   -3.0800    0.0000 C.3     1  NONAME1     0.1341
     18 C14         6.6849   -3.4902    1.1433 C.2     1  NONAME1     0.2387
     19 O4          6.4413   -4.1776    2.1454 O.2     1  NONAME1    -0.2734
     20 N2          8.0669   -3.1194    0.8986 N.am    1  NONAME1    -0.3085
     21 C15         9.3358   -3.8500    0.0000 C.3     1  NONAME1     0.0295
     22 C16         8.5658   -5.1837    0.0000 C.3     1  NONAME1    -0.0440
     23 C17        10.1058   -2.5163    0.0000 C.3     1  NONAME1    -0.0440
     24 C18        10.6694   -4.6200    0.0000 C.3     1  NONAME1    -0.0272
     25 C19        11.6633   -4.4384    1.1622 C.3     1  NONAME1    -0.0358
     26 C20        12.6573   -4.2569    2.3245 C.3     1  NONAME1    -0.0600
     27 C21        12.7220   -3.9132    0.1748 C.3     1  NONAME1    -0.0600
     28 C22        10.6047   -4.9636    2.1497 C.3     1  NONAME1    -0.0600
     29 C23         5.3347   -1.5400    0.0000 C.ar    1  NONAME1     0.0648
     30 C24         4.5257   -0.7263    0.8055 C.ar    1  NONAME1     0.1292
     31 O5          3.6011   -1.2593    1.6585 O.3     1  NONAME1    -0.5062
     32 C25         4.6084    0.6689    0.7761 C.ar    1  NONAME1     0.0219
     33 C26         5.5691    1.2797   -0.0112 C.ar    1  NONAME1     0.1238
     34 O6          5.6563    2.6398    0.0365 O.3     1  NONAME1    -0.5065
     35 C27         6.4235    0.5166   -0.7949 C.ar    1  NONAME1     0.0219
     36 C28         6.2846   -0.8775   -0.7952 C.ar    1  NONAME1     0.1292
     37 O7          7.1564   -1.6341   -1.5341 O.3     1  NONAME1    -0.5062
     38 H1          1.8666   -7.8143   -0.7425 H       1  NONAME1     0.0230
     39 H2          2.6673   -9.2398    0.0366 H       1  NONAME1     0.0230
     40 H3          3.6529   -7.7995   -0.4803 H       1  NONAME1     0.0230
     41 H4          1.6261   -5.9619    0.2730 H       1  NONAME1     0.0278
     42 H5          2.8084   -5.8390   -1.0414 H       1  NONAME1     0.0278
     43 H6          4.4373   -5.5907    1.2298 H       1  NONAME1     0.0465
     44 H7          2.9346   -4.9563    1.8437 H       1  NONAME1     0.0465
     45 H8          1.2508   -3.8609    1.0548 H       1  NONAME1     0.0407
     46 H9          1.0968   -4.3519   -0.6774 H       1  NONAME1     0.0407
     47 H10        -1.1883   -4.5097   -0.3889 H       1  NONAME1     0.0622
     48 H11        -3.3819   -3.3537   -0.4829 H       1  NONAME1     0.0655
     49 H12         0.8319   -0.7019    0.1508 H       1  NONAME1     0.0658
     50 H13        -3.2444    1.2825   -0.8970 H       1  NONAME1     0.1166
     51 H14        -3.4163    1.1091    0.8676 H       1  NONAME1     0.1166
     52 H15         5.3347   -4.6200    0.0000 H       1  NONAME1     0.0650
     53 H16         7.9623   -2.1882    0.5179 H       1  NONAME1     0.1493
     54 H17         7.6389   -4.8006   -0.4824 H       1  NONAME1     0.0250
     55 H18         7.7958   -6.5174    0.0000 H       1  NONAME1     0.0250
     56 H19         8.9790   -5.6003   -0.9562 H       1  NONAME1     0.0250
     57 H20        10.9561   -2.4469   -0.6908 H       1  NONAME1     0.0250
     58 H21        10.4119   -2.1696    0.9955 H       1  NONAME1     0.0250
     59 H22         9.4938   -1.7105   -0.4287 H       1  NONAME1     0.0250
     60 H23        11.0859   -4.4425   -1.0164 H       1  NONAME1     0.0291
     61 H24        10.6403   -5.7222   -0.1387 H       1  NONAME1     0.0291
     62 H25        12.0638   -3.5380    2.9299 H       1  NONAME1     0.0235
     63 H26        13.6512   -4.0753    3.4867 H       1  NONAME1     0.0235
     64 H27        12.6869   -5.3127    2.6712 H       1  NONAME1     0.0235
     65 H28        13.4718   -4.7211    0.3197 H       1  NONAME1     0.0235
     66 H29        13.7807   -3.3880   -0.8126 H       1  NONAME1     0.0235
     67 H30        12.9363   -2.9372    0.6627 H       1  NONAME1     0.0235
     68 H31         9.9374   -4.0947    2.1940 H       1  NONAME1     0.0235
     69 H32         9.5460   -5.4889    3.1371 H       1  NONAME1     0.0235
     70 H33        10.3863   -5.9565    1.7199 H       1  NONAME1     0.0235
     71 H34         2.7542   -0.8568    1.3920 H       1  NONAME1     0.2922
     72 H35         3.9472    1.2755    1.3880 H       1  NONAME1     0.0691
     73 H36         6.4128    2.9344   -0.4939 H       1  NONAME1     0.2921
     74 H37         7.1969    0.9984   -1.3816 H       1  NONAME1     0.0691
     75 H38         7.6544   -1.0411   -2.1242 H       1  NONAME1     0.2922
@<TRIPOS>BOND
     1     1     2    1
     2     2     3    1
     3     3     4    1
     4     4     5   am
     5     5     6    2
     6     5     7    1
     7     7     8    1
     8     8     9   ar
     9     9    10   ar
    10    10    11   ar
    11    11    12   ar
    12    12    13   ar
    13     8    13   ar
    14    12    14    1
    15    14    15    1
    16    15    16    1
    17    11    16    1
    18    17     4    1
    19    17    18    1
    20    18    19    2
    21    18    20   am
    22    20    21    1
    23    21    22    1
    24    21    23    1
    25    21    24    1
    26    24    25    1
    27    25    26    1
    28    25    27    1
    29    25    28    1
    30    17    29    1
    31    29    30   ar
    32    30    31    1
    33    30    32   ar
    34    32    33   ar
    35    33    34    1
    36    33    35   ar
    37    35    36   ar
    38    29    36   ar
    39    36    37    1
    40     1    38    1
    41     1    39    1
    42     1    40    1
    43     2    41    1
    44     2    42    1
    45     3    43    1
    46     3    44    1
    47     7    45    1
    48     7    46    1
    49     9    47    1
    50    10    48    1
    51    13    49    1
    52    15    50    1
    53    15    51    1
    54    17    52    1
    55    20    53    1
    56    22    54    1
    57    22    55    1
    58    22    56    1
    59    23    57    1
    60    23    58    1
    61    23    59    1
    62    24    60    1
    63    24    61    1
    64    26    62    1
    65    26    63    1
    66    26    64    1
    67    27    65    1
    68    27    66    1
    69    27    67    1
    70    28    68    1
    71    28    69    1
    72    28    70    1
    73    31    71    1
    74    32    72    1
    75    34    73    1
    76    35    74    1
    77    37    75    1
