REMARK  5 active torsions:
REMARK  status: ('A' for Active; 'I' for Inactive)
REMARK    1  A    between atoms: C2_4  and  N3_5 
REMARK       I    between atoms: N3_5  and  C3_6 
REMARK    2  A    between atoms: C3_6  and  C4_8 
REMARK    3  A    between atoms: C4_8  and  N4_9 
REMARK    4  A    between atoms: C6_11  and  C7_12 
REMARK    5  A    between atoms: C11_17  and  N6_18 
ROOT
ATOM      1  N4  NON d   1      -1.811   3.123  -0.035  0.00  0.00    -0.272 N 
ATOM      2  C5  NON d   1      -2.932   2.432   0.344  0.00  0.00     0.126 C 
ATOM      3  C6  NON d   1      -4.026   3.163  -0.078  0.00  0.00     0.014 C 
ATOM      4  C12 NON d   1      -3.451   4.346  -0.594  0.00  0.00     0.152 C 
ATOM      5  N7  NON d   1      -2.117   4.342  -0.532  0.00  0.00    -0.184 NA
ENDROOT
BRANCH   1   6
ATOM      6  C4  NON d   1      -0.401   2.763   0.087  0.00  0.00     0.253 C 
BRANCH   6   7
ATOM      7  C3  NON d   1      -0.074   1.278   0.070  0.00  0.00     0.243 C 
ATOM      8  N3  NON d   1       1.298   1.058   0.029  0.00  0.00    -0.308 N 
ATOM      9  H4  NON d   1       1.938   1.839  -0.003  0.00  0.00     0.170 HD
ATOM     10  O1  NON d   1      -0.943   0.411   0.104  0.00  0.00    -0.271 OA
BRANCH   8  11
ATOM     11  C2  NON d   1       1.896  -0.194   0.024  0.00  0.00     0.163 A 
ATOM     12  N2  NON d   1       1.228  -1.347   0.052  0.00  0.00    -0.153 NA
ATOM     13  N1  NON d   1       2.179  -2.294   0.037  0.00  0.00    -0.271 N 
ATOM     14  C1  NON d   1       1.783  -3.683   0.049  0.00  0.00     0.180 C 
ATOM     15  C18 NON d   1       3.458  -1.803  -0.008  0.00  0.00     0.066 A 
ATOM     16  C17 NON d   1       4.711  -2.434  -0.046  0.00  0.00     0.032 A 
ATOM     17  C13 NON d   1       3.308  -0.418  -0.014  0.00  0.00     0.040 A 
ATOM     18  C16 NON d   1       5.844  -1.616  -0.087  0.00  0.00     0.002 A 
ATOM     19  C15 NON d   1       5.726  -0.228  -0.091  0.00  0.00     0.001 A 
ATOM     20  C14 NON d   1       4.467   0.387  -0.056  0.00  0.00     0.018 A 
ENDBRANCH   8  11
ENDBRANCH   6   7
ENDBRANCH   1   6
BRANCH   3  21
ATOM     21  C7  NON d   1      -5.403   2.688  -0.015  0.00  0.00     0.013 A 
ATOM     22  C8  NON d   1      -5.631   1.310  -0.133  0.00  0.00     0.101 A 
ATOM     23  N5  NON d   1      -6.878   0.817  -0.167  0.00  0.00    -0.374 N 
ATOM     24  C9  NON d   1      -7.958   1.605  -0.121  0.00  0.00     0.089 A 
ATOM     25  H9  NON d   1      -7.002  -0.193  -0.256  0.00  0.00     0.164 HD
ATOM     26  C10 NON d   1      -7.802   2.979  -0.004  0.00  0.00     0.041 A 
ATOM     27  C11 NON d   1      -6.522   3.537   0.112  0.00  0.00     0.019 A 
BRANCH  27  28
ATOM     28  N6  NON d   1      -6.423   4.935   0.141  0.00  0.00    -0.302 NA
ATOM     29  H12 NON d   1      -5.590   5.293   0.606  0.00  0.00     0.124 HD
ATOM     30  H13 NON d   1      -7.249   5.439   0.453  0.00  0.00     0.124 HD
ENDBRANCH  27  28
ENDBRANCH   3  21
TORSDOF 5
