REMARK  10 active torsions:
REMARK  status: ('A' for Active; 'I' for Inactive)
REMARK    1  A    between atoms: C2_2  and  N1_5 
REMARK       I    between atoms: N1_5  and  C5_6 
REMARK    2  A    between atoms: C6_8  and  C5_6 
REMARK    3  A    between atoms: C6_8  and  C7_9 
REMARK    4  A    between atoms: C6_8  and  N2_18 
REMARK    5  A    between atoms: C8_10  and  O2_11 
REMARK    6  A    between atoms: C10_13  and  O3_14 
REMARK    7  A    between atoms: C12_16  and  O4_17 
REMARK       I    between atoms: N2_18  and  C13_19 
REMARK    8  A    between atoms: N2_18  and  C20_30 
REMARK    9  A    between atoms: C13_19  and  C14_21 
REMARK   10  A    between atoms: C18_25  and  N3_26 
ROOT
ATOM      1  C6  NON d   1       2.832  -3.410   0.607  0.00  0.00     0.224 C 
ENDROOT
BRANCH   1   2
ATOM      2  C5  NON d   1       4.335  -2.970   0.958  0.00  0.00     0.246 C 
ATOM      3  N1  NON d   1       5.335  -3.080   0.000  0.00  0.00    -0.351 N 
ATOM      4  H10 NON d   1       5.017  -3.449  -0.895  0.00  0.00     0.163 HD
ATOM      5  O1  NON d   1       4.589  -2.477   2.062  0.00  0.00    -0.271 OA
BRANCH   3   6
ATOM      6  C2  NON d   1       6.668  -2.310   0.000  0.00  0.00     0.022 C 
ATOM      7  C1  NON d   1       8.002  -1.540   0.000  0.00  0.00     0.037 C 
ATOM      8  C3  NON d   1       7.438  -3.644   0.000  0.00  0.00     0.037 C 
ATOM      9  C4  NON d   1       5.898  -0.976   0.000  0.00  0.00     0.037 C 
ENDBRANCH   3   6
ENDBRANCH   1   2
BRANCH   1  10
ATOM     10  C7  NON d   1       2.756  -4.919   0.306  0.00  0.00     0.041 A 
ATOM     11  C8  NON d   1       3.469  -5.554  -0.723  0.00  0.00     0.080 A 
ATOM     12  C9  NON d   1       3.365  -6.932  -0.942  0.00  0.00     0.073 A 
ATOM     13  C10 NON d   1       2.494  -7.689  -0.170  0.00  0.00     0.071 A 
ATOM     14  C11 NON d   1       1.710  -7.092   0.802  0.00  0.00     0.073 A 
ATOM     15  C12 NON d   1       1.843  -5.720   1.024  0.00  0.00     0.080 A 
BRANCH  11  16
ATOM     16  O2  NON d   1       4.253  -4.822  -1.575  0.00  0.00    -0.360 OA
ATOM     17  H12 NON d   1       4.620  -5.431  -2.243  0.00  0.00     0.217 HD
ENDBRANCH  11  16
BRANCH  13  18
ATOM     18  O3  NON d   1       2.419  -9.027  -0.426  0.00  0.00    -0.361 OA
ATOM     19  H14 NON d   1       1.787  -9.430   0.191  0.00  0.00     0.217 HD
ENDBRANCH  13  18
BRANCH  15  20
ATOM     20  O4  NON d   1       0.982  -5.129   1.912  0.00  0.00    -0.360 OA
ATOM     21  H16 NON d   1       0.102  -5.506   1.729  0.00  0.00     0.217 HD
ENDBRANCH  15  20
ENDBRANCH   1  10
BRANCH   1  22
ATOM     22  N2  NON d   1       1.875  -2.570  -0.221  0.00  0.00    -0.295 N 
ATOM     23  C13 NON d   1       0.616  -3.156  -0.544  0.00  0.00     0.259 C 
ATOM     24  O5  NON d   1       0.510  -4.200  -1.189  0.00  0.00    -0.267 OA
BRANCH  23  25
ATOM     25  C14 NON d   1      -0.688  -2.530  -0.080  0.00  0.00     0.035 A 
ATOM     26  C15 NON d   1      -0.790  -1.621   0.985  0.00  0.00     0.017 A 
ATOM     27  C16 NON d   1      -2.026  -1.069   1.356  0.00  0.00     0.003 A 
ATOM     28  C17 NON d   1      -3.191  -1.464   0.705  0.00  0.00     0.036 A 
ATOM     29  C18 NON d   1      -3.111  -2.417  -0.310  0.00  0.00     0.103 A 
ATOM     30  C19 NON d   1      -1.875  -2.946  -0.713  0.00  0.00     0.053 A 
BRANCH  29  31
ATOM     31  N3  NON d   1      -4.346  -2.889  -0.945  0.00  0.00    -0.116 N 
ATOM     32  O6  NON d   1      -4.318  -3.997  -1.500  0.00  0.00    -0.532 OA
ATOM     33  O7  NON d   1      -5.342  -2.160  -0.870  0.00  0.00    -0.532 OA
ENDBRANCH  29  31
ENDBRANCH  23  25
BRANCH  22  34
ATOM     34  C20 NON d   1       1.963  -1.135  -0.290  0.00  0.00     0.040 A 
ATOM     35  C21 NON d   1       1.319  -0.481  -1.364  0.00  0.00     0.030 A 
ATOM     36  C22 NON d   1       1.217   0.911  -1.423  0.00  0.00     0.004 A 
ATOM     37  C23 NON d   1       1.780   1.684  -0.418  0.00  0.00     0.024 A 
ATOM     38  C24 NON d   1       2.442   1.055   0.634  0.00  0.00     0.036 A 
ATOM     39 Cl1  NON d   1       3.119   2.019   1.892  0.00  0.00    -0.084 Cl
ATOM     40  C25 NON d   1       2.540  -0.343   0.704  0.00  0.00     0.053 A 
ENDBRANCH  22  34
ENDBRANCH   1  22
TORSDOF 10
