@<TRIPOS>MOLECULE
*****
 41 42 0 0 0
SMALL
USER_CHARGES

@<TRIPOS>ATOM
      1 C1         -0.2376   -9.7766    0.2652 C.3     1  NONAME1    -0.0397
      2 C2          0.4971   -8.4729    0.1800 C.ar    1  NONAME1    -0.0503
      3 C3          1.0370   -7.8709    1.3162 C.ar    1  NONAME1    -0.0570
      4 C4          1.7347   -6.6531    1.2194 C.ar    1  NONAME1    -0.0351
      5 C5          1.8974   -5.9537    0.0000 C.ar    1  NONAME1     0.1055
      6 S1          2.6674   -4.6200    0.0000 S.O2    1  NONAME1     0.0616
      7 O1          2.6142   -4.5076   -1.4705 O.2     1  NONAME1    -0.1528
      8 O2          1.5768   -4.0268    0.7929 O.2     1  NONAME1    -0.1528
      9 N1          3.4374   -3.2863    0.0000 N.3     1  NONAME1    -0.1634
     10 C6          4.8287   -3.3691   -0.5392 C.3     1  NONAME1     0.0991
     11 C7          5.7403   -4.0376    0.4888 C.2     1  NONAME1     0.2512
     12 O3          5.4215   -5.0395    1.1257 O.2     1  NONAME1    -0.2723
     13 N2          6.9686   -3.4376    0.6421 N.am    1  NONAME1    -0.1964
     14 O4          7.8813   -4.0634    1.5170 O.3     1  NONAME1    -0.2952
     15 C8          2.7480   -1.9626   -0.1168 C.3     1  NONAME1     0.0460
     16 C9          3.4995   -0.6365    0.0046 C.ar    1  NONAME1    -0.0317
     17 C10         2.8405    0.5122   -0.4807 C.ar    1  NONAME1    -0.0573
     18 C11         3.4227    1.7784   -0.3997 C.ar    1  NONAME1    -0.0615
     19 C12         4.6882    1.9233    0.1552 C.ar    1  NONAME1    -0.0617
     20 C13         5.3382    0.8110    0.6856 C.ar    1  NONAME1    -0.0615
     21 C14         4.7252   -0.4483    0.6552 C.ar    1  NONAME1    -0.0573
     22 C15         1.3662   -6.6282   -1.1282 C.ar    1  NONAME1    -0.0351
     23 C16         0.6948   -7.8570   -1.0494 C.ar    1  NONAME1    -0.0570
     24 H1         -0.8238   -9.8324    1.1881 H       1  NONAME1     0.0278
     25 H2          0.4703  -10.6102    0.2386 H       1  NONAME1     0.0278
     26 H3         -0.9386   -9.8862   -0.5696 H       1  NONAME1     0.0278
     27 H4          0.9070   -8.3307    2.2934 H       1  NONAME1     0.0621
     28 H5          2.1136   -6.2176    2.1466 H       1  NONAME1     0.0637
     29 H6          5.2299   -2.4051   -0.8515 H       1  NONAME1     0.0540
     30 H7          4.8851   -3.9865   -1.4423 H       1  NONAME1     0.0540
     31 H8          7.3430   -2.7227    0.0242 H       1  NONAME1     0.1822
     32 H9          7.3780   -4.8432    1.8371 H       1  NONAME1     0.2414
     33 H10         1.9992   -1.8749    0.6816 H       1  NONAME1     0.0493
     34 H11         2.2227   -1.9520   -1.0788 H       1  NONAME1     0.0493
     35 H12         1.8419    0.4247   -0.9077 H       1  NONAME1     0.0621
     36 H13         2.8825    2.6491   -0.7645 H       1  NONAME1     0.0618
     37 H14         5.1544    2.9041    0.1998 H       1  NONAME1     0.0618
     38 H15         6.3171    0.9300    1.1439 H       1  NONAME1     0.0618
     39 H16         5.2259   -1.2709    1.1544 H       1  NONAME1     0.0621
     40 H17         1.4578   -6.2077   -2.1305 H       1  NONAME1     0.0637
     41 H18         0.3204   -8.3118   -1.9645 H       1  NONAME1     0.0621
@<TRIPOS>BOND
     1     1     2    1
     2     2     3   ar
     3     3     4   ar
     4     4     5   ar
     5     5     6    1
     6     6     7    2
     7     6     8    2
     8     6     9    1
     9     9    10    1
    10    10    11    1
    11    11    12    2
    12    11    13   am
    13    13    14    1
    14     9    15    1
    15    15    16    1
    16    16    17   ar
    17    17    18   ar
    18    18    19   ar
    19    19    20   ar
    20    20    21   ar
    21    16    21   ar
    22     5    22   ar
    23    22    23   ar
    24     2    23   ar
    25     1    24    1
    26     1    25    1
    27     1    26    1
    28     3    27    1
    29     4    28    1
    30    10    29    1
    31    10    30    1
    32    13    31    1
    33    14    32    1
    34    15    33    1
    35    15    34    1
    36    17    35    1
    37    18    36    1
    38    19    37    1
    39    20    38    1
    40    21    39    1
    41    22    40    1
    42    23    41    1
