REMARK  5 active torsions:
REMARK  status: ('A' for Active; 'I' for Inactive)
REMARK    1  A    between atoms: N1_1  and  C1_2 
REMARK    2  A    between atoms: C4_6  and  N2_7 
REMARK       I    between atoms: N2_7  and  C5_8 
REMARK    3  A    between atoms: C5_8  and  C6_10 
REMARK    4  A    between atoms: C9_13  and  N3_14 
REMARK    5  A    between atoms: N3_14  and  C10_15 
ROOT
ATOM      1  N2  NON d   1      -2.950  10.038  -0.078  0.00  0.00    -0.323 N 
ATOM      2  C5  NON d   1      -1.715  10.668  -0.157  0.00  0.00     0.257 C 
ATOM      3  O1  NON d   1      -1.539  11.879  -0.256  0.00  0.00    -0.267 OA
ATOM      4  H4  NON d   1      -2.965   9.035   0.047  0.00  0.00     0.169 HD
ENDROOT
BRANCH   1   5
ATOM      5  C4  NON d   1      -4.222  10.670  -0.081  0.00  0.00     0.038 A 
ATOM      6  C3  NON d   1      -4.413  12.052  -0.139  0.00  0.00     0.055 A 
ATOM      7  C2  NON d   1      -5.704  12.599  -0.126  0.00  0.00     0.059 A 
ATOM      8  C1  NON d   1      -6.847  11.790  -0.023  0.00  0.00     0.050 A 
ATOM      9 Cl1  NON d   1      -5.857  14.325  -0.198  0.00  0.00    -0.082 Cl
ATOM     10  C15 NON d   1      -6.642  10.399  -0.014  0.00  0.00     0.059 A 
ATOM     11  C14 NON d   1      -5.352   9.848  -0.020  0.00  0.00     0.055 A 
ATOM     12 Cl2  NON d   1      -7.989   9.312   0.037  0.00  0.00    -0.082 Cl
BRANCH   8  13
ATOM     13  N1  NON d   1      -8.143  12.339  -0.154  0.00  0.00    -0.300 NA
ATOM     14  H1  NON d   1      -8.201  13.312   0.140  0.00  0.00     0.124 HD
ATOM     15  H2  NON d   1      -8.877  11.752   0.234  0.00  0.00     0.124 HD
ENDBRANCH   8  13
ENDBRANCH   1   5
BRANCH   2  16
ATOM     16  C6  NON d   1      -0.500   9.813  -0.091  0.00  0.00     0.050 A 
ATOM     17  C7  NON d   1       0.698  10.387   0.334  0.00  0.00     0.022 A 
ATOM     18  C8  NON d   1       1.855   9.611   0.405  0.00  0.00     0.045 A 
ATOM     19  C9  NON d   1       1.812   8.272   0.020  0.00  0.00     0.103 A 
ATOM     20  N4  NON d   1       0.660   7.703  -0.402  0.00  0.00    -0.248 NA
ATOM     21  C13 NON d   1      -0.459   8.477  -0.455  0.00  0.00     0.135 A 
BRANCH  19  22
ATOM     22  N3  NON d   1       2.991   7.504   0.172  0.00  0.00    -0.273 NA
ATOM     23  H7  NON d   1       3.796   8.063  -0.096  0.00  0.00     0.129 HD
BRANCH  22  24
ATOM     24  C10 NON d   1       3.014   6.130  -0.344  0.00  0.00     0.062 A 
ATOM     25  C11 NON d   1       3.859   5.090   0.413  0.00  0.00     0.021 A 
ATOM     26  C12 NON d   1       2.340   5.024   0.318  0.00  0.00     0.021 A 
ENDBRANCH  22  24
ENDBRANCH  19  22
ENDBRANCH   2  16
TORSDOF 5
