REMARK  9 active torsions:
REMARK  status: ('A' for Active; 'I' for Inactive)
REMARK    1  A    between atoms: C2_2  and  C3_3 
REMARK    2  A    between atoms: C2_2  and  N9_31 
REMARK    3  A    between atoms: C4_6  and  S1_7 
REMARK    4  A    between atoms: S1_7  and  C5_8 
REMARK    5  A    between atoms: C5_8  and  C6_9 
REMARK    6  A    between atoms: C7_11  and  N4_12 
REMARK    7  A    between atoms: C8_14  and  N6_15 
REMARK    8  A    between atoms: N6_15  and  C9_16 
REMARK    9  A    between atoms: N8_23  and  C15_24 
ROOT
ATOM      1  S1  NON d   1       0.573  -5.962   0.682  0.00  0.00    -0.082 SA
ENDROOT
BRANCH   1   2
ATOM      2  C4  NON d   1       1.256  -4.398   1.005  0.00  0.00     0.196 C 
ATOM      3  N2  NON d   1       2.506  -4.118   1.302  0.00  0.00    -0.122 NA
ATOM      4  N1  NON d   1       2.671  -2.744   1.262  0.00  0.00    -0.131 NA
ATOM      5  C3  NON d   1       1.510  -2.180   0.948  0.00  0.00     0.158 C 
ATOM      6  N8  NON d   1       0.517  -3.224   1.058  0.00  0.00    -0.274 N 
BRANCH   5   7
ATOM      7  C2  NON d   1       1.334  -0.770   0.000  0.00  0.00     0.146 C 
ATOM      8  C1  NON d   1       0.000   0.000   0.000  0.00  0.00     0.040 C 
BRANCH   7   9
ATOM      9  N9  NON d   1       2.667   0.000   0.000  0.00  0.00    -0.410 N 
ATOM     10  C21 NON d   1       3.898  -0.683  -0.276  0.00  0.00     0.143 C 
ATOM     11  C22 NON d   1       2.680   1.432   0.127  0.00  0.00     0.143 C 
ENDBRANCH   7   9
ENDBRANCH   5   7
BRANCH   6  12
ATOM     12  C15 NON d   1      -0.919  -3.082   1.120  0.00  0.00     0.043 A 
ATOM     13  C16 NON d   1      -1.770  -3.792   0.253  0.00  0.00     0.033 A 
ATOM     14  C17 NON d   1      -3.143  -3.510   0.223  0.00  0.00     0.044 A 
ATOM     15  C18 NON d   1      -3.658  -2.516   1.042  0.00  0.00     0.116 A 
ATOM     16  F1  NON d   1      -4.961  -2.218   0.979  0.00  0.00    -0.206 F 
ATOM     17  C19 NON d   1      -2.831  -1.803   1.905  0.00  0.00     0.044 A 
ATOM     18  C20 NON d   1      -1.462  -2.086   1.950  0.00  0.00     0.033 A 
ENDBRANCH   6  12
ENDBRANCH   1   2
BRANCH   1  19
ATOM     19  C5  NON d   1       1.939  -7.137   0.666  0.00  0.00     0.163 C 
BRANCH  19  20
ATOM     20  C6  NON d   1       2.959  -7.036  -0.443  0.00  0.00     0.158 A 
ATOM     21  N3  NON d   1       3.428  -8.174  -0.959  0.00  0.00    -0.201 NA
ATOM     22  C7  NON d   1       4.483  -8.040  -1.749  0.00  0.00     0.219 A 
ATOM     23  N5  NON d   1       5.118  -6.905  -1.993  0.00  0.00    -0.031 NA
ATOM     24  C8  NON d   1       4.587  -5.823  -1.438  0.00  0.00     0.731 A 
ATOM     25  N7  NON d   1       3.488  -5.847  -0.698  0.00  0.00    -0.046 NA
BRANCH  22  26
ATOM     26  N4  NON d   1       5.020  -9.192  -2.292  0.00  0.00    -0.270 NA
ATOM     27  H7  NON d   1       6.002  -9.049  -2.488  0.00  0.00     0.127 HD
ATOM     28  H8  NON d   1       4.775  -9.996  -1.732  0.00  0.00     0.127 HD
ENDBRANCH  22  26
BRANCH  24  29
ATOM     29  N6  NON d   1       5.156  -4.556  -1.548  0.00  0.00    -0.188 N 
ATOM     30  H9  NON d   1       4.600  -3.940  -0.963  0.00  0.00     0.184 HD
BRANCH  29  31
ATOM     31  C9  NON d   1       6.469  -4.122  -1.770  0.00  0.00     0.049 A 
ATOM     32  C10 NON d   1       7.531  -4.965  -2.101  0.00  0.00     0.030 A 
ATOM     33  C11 NON d   1       8.813  -4.454  -2.331  0.00  0.00     0.002 A 
ATOM     34  C12 NON d   1       9.049  -3.084  -2.256  0.00  0.00     0.000 A 
ATOM     35  C13 NON d   1       7.999  -2.223  -1.965  0.00  0.00     0.002 A 
ATOM     36  C14 NON d   1       6.724  -2.741  -1.736  0.00  0.00     0.030 A 
ENDBRANCH  29  31
ENDBRANCH  24  29
ENDBRANCH  19  20
ENDBRANCH   1  19
TORSDOF 9
