REMARK  2 active torsions:
REMARK  status: ('A' for Active; 'I' for Inactive)
REMARK       I    between atoms: C1_2  and  N1_3 
REMARK    1  A    between atoms: C1_2  and  C2_5 
REMARK    2  A    between atoms: N1_3  and  O2_4 
ROOT
ATOM      1  C2  NON d   1       1.250   2.258   0.000  0.00  0.00     0.051 A 
ATOM      2  C3  NON d   1       2.494   1.589   0.000  0.00  0.00     0.018 A 
ATOM      3  C4  NON d   1       2.579   0.195   0.000  0.00  0.00     0.001 A 
ATOM      4  C5  NON d   1       1.418  -0.565   0.000  0.00  0.00     0.001 A 
ATOM      5  C6  NON d   1       0.178   0.070   0.000  0.00  0.00     0.020 A 
ATOM      6  C7  NON d   1       0.083   1.474   0.000  0.00  0.00     0.026 A 
ATOM      7 Br1  NON d   1      -1.697   2.144  -0.000  0.00  0.00    -0.050 Br
ENDROOT
BRANCH   1   8
ATOM      8  C1  NON d   1       1.343   3.753  -0.000  0.00  0.00     0.276 C 
ATOM      9  O1  NON d   1       2.440   4.316  -0.000  0.00  0.00    -0.265 OA
ATOM     10  N1  NON d   1       0.196   4.500   0.000  0.00  0.00    -0.233 N 
ATOM     11  H1  NON d   1      -0.751   4.138   0.000  0.00  0.00     0.197 HD
BRANCH  10  12
ATOM     12  O2  NON d   1       0.353   5.903   0.000  0.00  0.00    -0.287 OA
ATOM     13  H2  NON d   1       1.331   5.997  -0.000  0.00  0.00     0.244 HD
ENDBRANCH  10  12
ENDBRANCH   1   8
TORSDOF 2
