@<TRIPOS>MOLECULE
*****
 56 58 0 0 0
SMALL
USER_CHARGES

@<TRIPOS>ATOM
      1 C1         -0.9544    0.0934    0.9700 C.3     1  NONAME1    -0.0653
      2 C2          0.3707    0.8439    0.9167 C.3     1  NONAME1    -0.0558
      3 C3          1.6000   -0.0423    1.1728 C.3     1  NONAME1    -0.0502
      4 C4          1.9632   -0.9124   -0.0370 C.3     1  NONAME1    -0.0186
      5 C5          3.1837   -1.8184    0.1866 C.3     1  NONAME1     0.0896
      6 O1          4.3999   -1.0582    0.2080 O.3     1  NONAME1    -0.4920
      7 C6          5.5798   -1.7639    0.1724 C.ar    1  NONAME1     0.1205
      8 C7          6.7519   -0.9966    0.1373 C.ar    1  NONAME1    -0.0192
      9 C8          8.0305   -1.5963    0.0923 C.ar    1  NONAME1    -0.0461
     10 C9          8.1557   -2.9889    0.0804 C.ar    1  NONAME1     0.0384
     11 C10         9.4607   -3.7371    0.0297 C.2     1  NONAME1     0.2601
     12 O2          9.4567   -4.9696   -0.0204 O.2     1  NONAME1    -0.2687
     13 N1         10.6605   -3.0406    0.0459 N.am    1  NONAME1    -0.2303
     14 N2         11.8536   -3.8067    0.0149 N.am    1  NONAME1    -0.2313
     15 C11        13.0878   -3.1731    0.0366 C.2     1  NONAME1     0.2667
     16 O3         13.1811   -1.9464    0.0829 O.2     1  NONAME1    -0.2705
     17 C12        14.2950   -4.1415    0.0048 C.3     1  NONAME1     0.1666
     18 O4         15.5278   -3.4288   -0.0266 O.3     1  NONAME1    -0.4827
     19 C13        16.7096   -4.1199   -0.0244 C.ar    1  NONAME1     0.1218
     20 C14        17.8459   -3.3064   -0.0314 C.ar    1  NONAME1    -0.0193
     21 C15        19.1312   -3.8582   -0.0249 C.ar    1  NONAME1    -0.0506
     22 C16        19.3130   -5.2439   -0.0148 C.ar    1  NONAME1    -0.0177
     23 C17        20.6022   -5.8082   -0.0076 C.ar    1  NONAME1    -0.0540
     24 C18        20.7757   -7.1921    0.0009 C.ar    1  NONAME1    -0.0612
     25 C19        19.6625   -8.0261    0.0051 C.ar    1  NONAME1    -0.0612
     26 C20        18.3742   -7.4769   -0.0020 C.ar    1  NONAME1    -0.0539
     27 C21        18.1738   -6.0836   -0.0099 C.ar    1  NONAME1    -0.0144
     28 C22        16.8782   -5.5053   -0.0163 C.ar    1  NONAME1    -0.0122
     29 C23         6.9745   -3.7523    0.1153 C.ar    1  NONAME1    -0.0461
     30 C24         5.7038   -3.1511    0.1652 C.ar    1  NONAME1    -0.0192
     31 H1         -1.7761    0.7620    0.6895 H       1  NONAME1     0.0230
     32 H2         -1.1555   -0.2706    1.9829 H       1  NONAME1     0.0230
     33 H3         -0.9729   -0.7600    0.2871 H       1  NONAME1     0.0230
     34 H4          0.3403    1.6345    1.6764 H       1  NONAME1     0.0263
     35 H5          0.4654    1.3437   -0.0542 H       1  NONAME1     0.0263
     36 H6          1.4218   -0.6725    2.0523 H       1  NONAME1     0.0266
     37 H7          2.4498    0.6080    1.4101 H       1  NONAME1     0.0266
     38 H8          1.1084   -1.5514   -0.2862 H       1  NONAME1     0.0298
     39 H9          2.1510   -0.2607   -0.8987 H       1  NONAME1     0.0298
     40 H10         3.0741   -2.3673    1.1294 H       1  NONAME1     0.0696
     41 H11         3.2078   -2.5273   -0.6498 H       1  NONAME1     0.0696
     42 H12         6.6726    0.0894    0.1412 H       1  NONAME1     0.0654
     43 H13         8.8979   -0.9453    0.0612 H       1  NONAME1     0.0626
     44 H14        10.7694   -2.0319    0.1047 H       1  NONAME1     0.1731
     45 H15        11.7255   -4.8171   -0.0278 H       1  NONAME1     0.1729
     46 H16        14.2020   -4.7635   -0.8931 H       1  NONAME1     0.0795
     47 H17        14.2445   -4.7617    0.9074 H       1  NONAME1     0.0795
     48 H18        17.7296   -2.2245   -0.0394 H       1  NONAME1     0.0654
     49 H19        19.9889   -3.1863   -0.0311 H       1  NONAME1     0.0625
     50 H20        21.4837   -5.1698   -0.0115 H       1  NONAME1     0.0624
     51 H21        21.7773   -7.6164    0.0060 H       1  NONAME1     0.0618
     52 H22        19.7953   -9.1056    0.0107 H       1  NONAME1     0.0618
     53 H23        17.5235   -8.1536   -0.0002 H       1  NONAME1     0.0624
     54 H24        16.0188   -6.1689   -0.0139 H       1  NONAME1     0.0660
     55 H25         7.0313   -4.8405    0.1037 H       1  NONAME1     0.0626
     56 H26         4.8379   -3.8049    0.1957 H       1  NONAME1     0.0654
@<TRIPOS>BOND
     1     1     2    1
     2     2     3    1
     3     3     4    1
     4     4     5    1
     5     5     6    1
     6     6     7    1
     7     7     8   ar
     8     8     9   ar
     9     9    10   ar
    10    10    11    1
    11    11    12    2
    12    11    13   am
    13    13    14    1
    14    14    15   am
    15    15    16    2
    16    15    17    1
    17    17    18    1
    18    18    19    1
    19    19    20   ar
    20    20    21   ar
    21    21    22   ar
    22    22    23   ar
    23    23    24   ar
    24    24    25   ar
    25    25    26   ar
    26    26    27   ar
    27    22    27   ar
    28    27    28   ar
    29    19    28   ar
    30    10    29   ar
    31    29    30   ar
    32     7    30   ar
    33     1    31    1
    34     1    32    1
    35     1    33    1
    36     2    34    1
    37     2    35    1
    38     3    36    1
    39     3    37    1
    40     4    38    1
    41     4    39    1
    42     5    40    1
    43     5    41    1
    44     8    42    1
    45     9    43    1
    46    13    44    1
    47    14    45    1
    48    17    46    1
    49    17    47    1
    50    20    48    1
    51    21    49    1
    52    23    50    1
    53    24    51    1
    54    25    52    1
    55    26    53    1
    56    28    54    1
    57    29    55    1
    58    30    56    1
