REMARK  13 active torsions:
REMARK  status: ('A' for Active; 'I' for Inactive)
REMARK    1  A    between atoms: C2_2  and  C3_3 
REMARK    2  A    between atoms: C3_3  and  N1_4 
REMARK       I    between atoms: N1_4  and  C4_5 
REMARK    3  A    between atoms: C13_17  and  N1_4 
REMARK    4  A    between atoms: C4_5  and  C5_7 
REMARK    5  A    between atoms: C5_7  and  C6_8 
REMARK    6  A    between atoms: C13_17  and  C14_18 
REMARK    7  A    between atoms: C13_17  and  C23_29 
REMARK       I    between atoms: C14_18  and  N2_20 
REMARK    8  A    between atoms: N2_20  and  C15_21 
REMARK    9  A    between atoms: C15_21  and  C18_24 
REMARK   10  A    between atoms: C18_24  and  C19_25 
REMARK   11  A    between atoms: C24_30  and  O5_31 
REMARK   12  A    between atoms: C26_33  and  O6_34 
REMARK   13  A    between atoms: C28_36  and  O7_37 
ROOT
ATOM      1  C13 NON d   1       5.335  -3.080   0.000  0.00  0.00     0.212 C 
ENDROOT
BRANCH   1   2
ATOM      2  N1  NON d   1       3.739  -3.657   0.294  0.00  0.00    -0.335 N 
ATOM      3  C4  NON d   1       2.647  -3.006  -0.343  0.00  0.00     0.225 C 
ATOM      4  O1  NON d   1       2.789  -2.117  -1.182  0.00  0.00    -0.273 OA
BRANCH   2   5
ATOM      5  C3  NON d   1       3.493  -5.134   0.918  0.00  0.00     0.127 C 
BRANCH   5   6
ATOM      6  C2  NON d   1       2.667  -6.160   0.000  0.00  0.00     0.015 C 
ATOM      7  C1  NON d   1       2.667  -7.700   0.018  0.00  0.00     0.006 C 
ENDBRANCH   5   6
ENDBRANCH   2   5
BRANCH   3   8
ATOM      8  C5  NON d   1       1.256  -3.522   0.016  0.00  0.00     0.141 C 
BRANCH   8   9
ATOM      9  C6  NON d   1      -0.002  -2.691  -0.136  0.00  0.00    -0.047 A 
ATOM     10  C7  NON d   1      -1.220  -3.424  -0.304  0.00  0.00     0.010 A 
ATOM     11  C8  NON d   1      -2.463  -2.791  -0.351  0.00  0.00     0.040 A 
ATOM     12  C9  NON d   1      -2.469  -1.427  -0.212  0.00  0.00     0.105 A 
ATOM     13  C10 NON d   1      -1.304  -0.708  -0.038  0.00  0.00     0.105 A 
ATOM     14  O3  NON d   1      -3.579  -0.643  -0.219  0.00  0.00    -0.323 OA
ATOM     15  C11 NON d   1      -0.061  -1.302   0.014  0.00  0.00     0.047 A 
ATOM     16  O2  NON d   1      -1.550   0.625   0.101  0.00  0.00    -0.323 OA
ATOM     17  C12 NON d   1      -2.987   0.658  -0.034  0.00  0.00     0.352 A 
ENDBRANCH   8   9
ENDBRANCH   3   8
ENDBRANCH   1   2
BRANCH   1  18
ATOM     18  C14 NON d   1       6.685  -3.490   1.143  0.00  0.00     0.225 C 
ATOM     19  O4  NON d   1       6.441  -4.178   2.145  0.00  0.00    -0.277 OA
ATOM     20  N2  NON d   1       8.067  -3.119   0.899  0.00  0.00    -0.252 NA
ATOM     21  H16 NON d   1       7.962  -2.188   0.518  0.00  0.00     0.131 HD
BRANCH  20  22
ATOM     22  C15 NON d   1       9.336  -3.850   0.000  0.00  0.00     0.011 C 
ATOM     23  C16 NON d   1       8.566  -5.184   0.000  0.00  0.00     0.032 C 
ATOM     24  C17 NON d   1      10.106  -2.516   0.000  0.00  0.00     0.032 C 
BRANCH  22  25
ATOM     25  C18 NON d   1      10.669  -4.620   0.000  0.00  0.00     0.033 C 
BRANCH  25  26
ATOM     26  C19 NON d   1      11.663  -4.438   1.162  0.00  0.00    -0.050 C 
ATOM     27  C20 NON d   1      12.657  -4.257   2.325  0.00  0.00     0.014 C 
ATOM     28  C21 NON d   1      12.722  -3.913   0.175  0.00  0.00     0.014 C 
ATOM     29  C22 NON d   1      10.605  -4.964   2.150  0.00  0.00     0.014 C 
ENDBRANCH  25  26
ENDBRANCH  22  25
ENDBRANCH  20  22
ENDBRANCH   1  18
BRANCH   1  30
ATOM     30  C23 NON d   1       5.335  -1.540   0.000  0.00  0.00     0.040 A 
ATOM     31  C24 NON d   1       4.526  -0.726   0.805  0.00  0.00     0.080 A 
ATOM     32  C25 NON d   1       4.608   0.669   0.776  0.00  0.00     0.073 A 
ATOM     33  C26 NON d   1       5.569   1.280  -0.011  0.00  0.00     0.071 A 
ATOM     34  C27 NON d   1       6.423   0.517  -0.795  0.00  0.00     0.073 A 
ATOM     35  C28 NON d   1       6.285  -0.877  -0.795  0.00  0.00     0.080 A 
BRANCH  31  36
ATOM     36  O5  NON d   1       3.601  -1.259   1.659  0.00  0.00    -0.360 OA
ATOM     37  H34 NON d   1       2.754  -0.857   1.392  0.00  0.00     0.217 HD
ENDBRANCH  31  36
BRANCH  33  38
ATOM     38  O6  NON d   1       5.656   2.640   0.036  0.00  0.00    -0.361 OA
ATOM     39  H36 NON d   1       6.413   2.934  -0.494  0.00  0.00     0.217 HD
ENDBRANCH  33  38
BRANCH  35  40
ATOM     40  O7  NON d   1       7.156  -1.634  -1.534  0.00  0.00    -0.360 OA
ATOM     41  H38 NON d   1       7.654  -1.041  -2.124  0.00  0.00     0.217 HD
ENDBRANCH  35  40
ENDBRANCH   1  30
TORSDOF 13
