REMARK  7 active torsions:
REMARK  status: ('A' for Active; 'I' for Inactive)
REMARK    1  A    between atoms: C3_3  and  C2_2 
REMARK    2  A    between atoms: C3_3  and  C5_5 
REMARK       I    between atoms: C5_5  and  N1_7 
REMARK    3  A    between atoms: N1_7  and  C6_8 
REMARK    4  A    between atoms: C10_12  and  C11_13 
REMARK    5  A    between atoms: C11_13  and  N2_14 
REMARK       I    between atoms: N2_14  and  C12_15 
REMARK    6  A    between atoms: C12_15  and  C13_17 
REMARK    7  A    between atoms: C16_20  and  C17_21 
ROOT
ATOM      1  C11 NON d   1       2.332  -9.061  -0.058  0.00  0.00     0.161 C 
ENDROOT
BRANCH   1   2
ATOM      2  C10 NON d   1       0.945  -8.467  -0.096  0.00  0.00    -0.038 A 
ATOM      3  C9  NON d   1       0.962  -7.058  -0.079  0.00  0.00     0.009 A 
ATOM      4  C8  NON d   1      -0.207  -6.329  -0.062  0.00  0.00     0.003 A 
ATOM      5  C7  NON d   1      -1.423  -7.000  -0.068  0.00  0.00     0.029 A 
ATOM      6  C6  NON d   1      -1.509  -8.404  -0.084  0.00  0.00     0.035 A 
ATOM      7  C19 NON d   1      -0.299  -9.137  -0.101  0.00  0.00     0.038 A 
BRANCH   6   8
ATOM      8  N1  NON d   1      -2.773  -9.094  -0.082  0.00  0.00    -0.327 N 
ATOM      9  C5  NON d   1      -4.001  -8.470   0.000  0.00  0.00     0.226 C 
ATOM     10  O1  NON d   1      -4.129  -7.245   0.108  0.00  0.00    -0.273 OA
ATOM     11  H10 NON d   1      -2.739 -10.104  -0.114  0.00  0.00     0.169 HD
BRANCH   9  12
ATOM     12  C3  NON d   1      -5.335  -9.240   0.000  0.00  0.00     0.074 C 
ATOM     13  C4  NON d   1      -5.335 -10.780   0.000  0.00  0.00     0.020 C 
BRANCH  12  14
ATOM     14  C2  NON d   1      -6.668  -8.470   0.000  0.00  0.00     0.009 C 
ATOM     15  C1  NON d   1      -7.662  -8.652   1.162  0.00  0.00     0.006 C 
ENDBRANCH  12  14
ENDBRANCH   9  12
ENDBRANCH   6   8
ENDBRANCH   1   2
BRANCH   1  16
ATOM     16  N2  NON d   1       2.539 -10.472  -0.048  0.00  0.00    -0.352 N 
ATOM     17  C12 NON d   1       3.731 -11.158   0.066  0.00  0.00     0.257 C 
ATOM     18  O2  NON d   1       3.576 -12.363   0.286  0.00  0.00    -0.267 OA
ATOM     19  H16 NON d   1       1.759 -11.088   0.125  0.00  0.00     0.163 HD
BRANCH  17  20
ATOM     20  C13 NON d   1       5.116 -10.512  -0.039  0.00  0.00     0.101 A 
ATOM     21  C14 NON d   1       5.357  -9.195   0.124  0.00  0.00     0.025 A 
ATOM     22  C15 NON d   1       6.681  -8.643   0.100  0.00  0.00     0.038 A 
ATOM     23  C16 NON d   1       7.700  -9.507  -0.027  0.00  0.00     0.144 A 
ATOM     24  N3  NON d   1       7.593 -10.853  -0.193  0.00  0.00    -0.205 NA
ATOM     25  C18 NON d   1       6.359 -11.397  -0.276  0.00  0.00     0.283 A 
ATOM     26  O3  NON d   1       6.195 -12.583  -0.548  0.00  0.00    -0.265 OA
BRANCH  23  27
ATOM     27  C17 NON d   1       9.124  -8.956   0.029  0.00  0.00     0.434 C 
ATOM     28  F1  NON d   1       9.701  -8.863  -1.202  0.00  0.00    -0.165 F 
ATOM     29  F2  NON d   1       9.970  -9.681   0.812  0.00  0.00    -0.165 F 
ATOM     30  F3  NON d   1       9.161  -7.686   0.541  0.00  0.00    -0.165 F 
ENDBRANCH  23  27
ENDBRANCH  17  20
ENDBRANCH   1  16
TORSDOF 7
