REMARK  5 active torsions:
REMARK  status: ('A' for Active; 'I' for Inactive)
REMARK    1  A    between atoms: C4_7  and  C5_8 
REMARK    2  A    between atoms: C5_8  and  C6_9 
REMARK       I    between atoms: C6_9  and  N2_11 
REMARK    3  A    between atoms: N2_11  and  C7_12 
REMARK    4  A    between atoms: C8_14  and  C9_15 
REMARK    5  A    between atoms: C11_18  and  C12_19 
REMARK       I    between atoms: C12_19  and  N5_20 
ROOT
ATOM      1  C7  NON d   1      -0.530  -6.116  -0.068  0.00  0.00     0.173 A 
ATOM      2  N3  NON d   1      -1.777  -5.661  -0.070  0.00  0.00    -0.223 NA
ATOM      3  C8  NON d   1      -1.765  -4.257   0.008  0.00  0.00     0.078 A 
ATOM      4  C14 NON d   1      -0.505  -3.703   0.111  0.00  0.00     0.086 A 
ATOM      5  S3  NON d   1       0.674  -4.914   0.139  0.00  0.00    -0.061 SA
ENDROOT
BRANCH   1   6
ATOM      6  N2  NON d   1      -0.166  -7.463  -0.159  0.00  0.00    -0.306 N 
ATOM      7  C6  NON d   1       1.130  -7.911  -0.396  0.00  0.00     0.225 C 
ATOM      8  O1  NON d   1       2.083  -7.180  -0.658  0.00  0.00    -0.273 OA
ATOM      9  H7  NON d   1      -0.949  -8.101  -0.163  0.00  0.00     0.171 HD
BRANCH   7  10
ATOM     10  C5  NON d   1       1.354  -9.432  -0.392  0.00  0.00     0.124 C 
BRANCH  10  11
ATOM     11  C4  NON d   1       2.870  -9.739  -0.509  0.00  0.00     0.111 C 
ATOM     12  S2  NON d   1       3.700  -9.728   1.119  0.00  0.00    -0.087 SA
ATOM     13  C3  NON d   1       4.816 -10.988   0.573  0.00  0.00     0.161 C 
ATOM     14  N1  NON d   1       4.363 -11.674  -0.531  0.00  0.00    -0.238 NA
ATOM     15  S1  NON d   1       6.273 -11.260   1.344  0.00  0.00    -0.051 SA
ATOM     16  C2  NON d   1       3.353 -11.077  -1.087  0.00  0.00     0.025 C 
ATOM     17  C1  NON d   1       2.680 -11.610  -2.366  0.00  0.00     0.067 C 
ENDBRANCH  10  11
ENDBRANCH   7  10
ENDBRANCH   1   6
BRANCH   3  18
ATOM     18  C9  NON d   1      -2.992  -3.429  -0.017  0.00  0.00     0.011 A 
ATOM     19  C10 NON d   1      -4.323  -3.783  -0.031  0.00  0.00     0.102 A 
ATOM     20  N4  NON d   1      -5.077  -2.623  -0.039  0.00  0.00    -0.361 N 
ATOM     21  C11 NON d   1      -4.260  -1.511  -0.027  0.00  0.00     0.101 A 
ATOM     22  H9  NON d   1      -6.086  -2.601  -0.049  0.00  0.00     0.165 HD
ATOM     23  C13 NON d   1      -2.965  -2.005  -0.019  0.00  0.00     0.050 A 
BRANCH  21  24
ATOM     24  C12 NON d   1      -4.633  -0.109  -0.027  0.00  0.00     0.266 C 
ATOM     25  N5  NON d   1      -5.966   0.184  -0.017  0.00  0.00    -0.365 N 
ATOM     26  H10 NON d   1      -6.199   1.169   0.001  0.00  0.00     0.159 HD
ATOM     27  H11 NON d   1      -6.715  -0.485   0.019  0.00  0.00     0.159 HD
ATOM     28  O2  NON d   1      -3.828   0.819  -0.027  0.00  0.00    -0.266 OA
ENDBRANCH  21  24
ENDBRANCH   3  18
TORSDOF 5
