REMARK  9 active torsions:
REMARK  status: ('A' for Active; 'I' for Inactive)
REMARK    1  A    between atoms: O1_2  and  C2_3 
REMARK    2  A    between atoms: C5_6  and  S1_7 
REMARK    3  A    between atoms: C6_10  and  S1_7 
REMARK    4  A    between atoms: C6_10  and  C7_11 
REMARK    5  A    between atoms: C6_10  and  C13_18 
REMARK    6  A    between atoms: C6_10  and  C17_22 
REMARK    7  A    between atoms: C7_11  and  C8_12 
REMARK    8  A    between atoms: C13_18  and  C14_19 
REMARK       I    between atoms: C17_22  and  N2_24 
REMARK    9  A    between atoms: N2_24  and  O5_25 
ROOT
ATOM      1  C6  NON d   1       2.310 -11.701   0.000  0.00  0.00     0.155 C 
ENDROOT
BRANCH   1   2
ATOM      2  S1  NON d   1       2.310 -10.161   0.000  0.00  0.00     0.193 S 
ATOM      3  O2  NON d   1       1.957 -10.170  -1.435  0.00  0.00    -0.221 OA
ATOM      4  O3  NON d   1       1.535 -10.015   1.245  0.00  0.00    -0.221 OA
BRANCH   2   5
ATOM      5  C5  NON d   1       2.310  -8.621   0.000  0.00  0.00     0.060 A 
ATOM      6  C4  NON d   1       3.313  -7.929   0.705  0.00  0.00     0.026 A 
ATOM      7  C3  NON d   1       3.357  -6.526   0.739  0.00  0.00     0.038 A 
ATOM      8  C2  NON d   1       2.437  -5.763   0.022  0.00  0.00     0.068 A 
ATOM      9  C19 NON d   1       1.433  -6.412  -0.685  0.00  0.00     0.038 A 
ATOM     10  C18 NON d   1       1.363  -7.812  -0.674  0.00  0.00     0.026 A 
BRANCH   8  11
ATOM     11  O1  NON d   1       2.608  -4.410   0.104  0.00  0.00    -0.356 OA
ATOM     12  C1  NON d   1       1.907  -3.624  -0.854  0.00  0.00     0.210 C 
ENDBRANCH   8  11
ENDBRANCH   2   5
ENDBRANCH   1   2
BRANCH   1  13
ATOM     13  C7  NON d   1       0.770 -11.701   0.000  0.00  0.00     0.076 C 
BRANCH  13  14
ATOM     14  C8  NON d   1      -0.446 -12.780  -0.238  0.00  0.00    -0.038 A 
ATOM     15  C9  NON d   1      -0.461 -14.166  -0.521  0.00  0.00     0.010 A 
ATOM     16  C10 NON d   1      -1.628 -14.933  -0.424  0.00  0.00     0.020 A 
ATOM     17  C11 NON d   1      -2.803 -14.306  -0.090  0.00  0.00     0.116 A 
ATOM     18  N1  NON d   1      -2.889 -12.983   0.124  0.00  0.00    -0.273 NA
ATOM     19  C12 NON d   1      -1.726 -12.273   0.057  0.00  0.00     0.123 A 
ENDBRANCH  13  14
ENDBRANCH   1  13
BRANCH   1  20
ATOM     20  C13 NON d   1       2.310 -13.241   0.000  0.00  0.00     0.040 C 
BRANCH  20  21
ATOM     21  C14 NON d   1       2.446 -13.858   1.457  0.00  0.00    -0.021 C 
ATOM     22  C15 NON d   1       3.904 -14.270   1.790  0.00  0.00     0.009 C 
ATOM     23  C16 NON d   1       1.603 -15.100   1.731  0.00  0.00     0.009 C 
ENDBRANCH  20  21
ENDBRANCH   1  20
BRANCH   1  24
ATOM     24  C17 NON d   1       3.850 -11.701   0.000  0.00  0.00     0.265 C 
ATOM     25  O4  NON d   1       4.535 -11.393   0.982  0.00  0.00    -0.269 OA
ATOM     26  N2  NON d   1       4.474 -11.929  -1.213  0.00  0.00    -0.236 N 
ATOM     27  H21 NON d   1       4.019 -12.169  -2.090  0.00  0.00     0.197 HD
BRANCH  26  28
ATOM     28  O5  NON d   1       5.886 -11.899  -1.202  0.00  0.00    -0.287 OA
ATOM     29  H22 NON d   1       6.095 -11.721  -0.259  0.00  0.00     0.244 HD
ENDBRANCH  26  28
ENDBRANCH   1  24
TORSDOF 9
