@<TRIPOS>MOLECULE
*****
 44 46 0 0 0
SMALL
USER_CHARGES

@<TRIPOS>ATOM
      1 C1          8.0021    0.0000    0.0000 C.3     1  NONAME1    -0.0613
      2 C2          9.3358   -0.7700    0.0000 C.3     1  NONAME1    -0.0305
      3 C3          9.2073   -2.2692    0.1097 C.ar    1  NONAME1    -0.0476
      4 C4         10.2078   -3.0986   -0.4165 C.ar    1  NONAME1    -0.0583
      5 C5         10.0557   -4.4935   -0.4255 C.ar    1  NONAME1    -0.0580
      6 C6          8.9134   -5.1011    0.1180 C.ar    1  NONAME1    -0.0427
      7 C7          8.7405   -6.6121    0.0189 C.3     1  NONAME1     0.0080
      8 C8          7.3875   -7.2977   -0.0561 C.ar    1  NONAME1     0.0873
      9 C9          7.4859   -8.8260    0.0000 C.ar    1  NONAME1     0.2818
     10 O1          8.5972   -9.3515    0.1006 O.2     1  NONAME1    -0.2653
     11 N1          6.3369   -9.6126   -0.0618 N.ar    1  NONAME1    -0.1766
     12 C10         5.1855   -9.0029   -0.0795 C.ar    1  NONAME1     0.2032
     13 N2          4.0133   -9.7228   -0.1243 N.pl3   1  NONAME1    -0.2849
     14 C11         2.6598   -9.3396   -0.2041 C.ar    1  NONAME1     0.0353
     15 C12         1.6752  -10.2854    0.1203 C.ar    1  NONAME1    -0.0404
     16 C13         0.3235   -9.9294    0.2143 C.ar    1  NONAME1    -0.0583
     17 C14        -0.0697   -8.6064    0.0167 C.ar    1  NONAME1    -0.0409
     18 C15         0.8672   -7.6517   -0.3598 C.ar    1  NONAME1     0.0263
     19 N3          0.5346   -6.2915   -0.3718 N.pl3   1  NONAME1    -0.3579
     20 C16         2.2091   -8.0391   -0.4825 C.ar    1  NONAME1    -0.0198
     21 N4          5.0999   -7.6614   -0.0800 N.ar    1  NONAME1    -0.2945
     22 C17         6.1392   -6.8025   -0.1477 C.ar    1  NONAME1     0.2599
     23 O2          5.6043   -5.6759   -0.2447 O.3     1  NONAME1    -0.2673
     24 C18         8.0249   -4.2714    0.8024 C.ar    1  NONAME1    -0.0580
     25 C19         8.1327   -2.8788    0.7545 C.ar    1  NONAME1    -0.0583
     26 H1          8.4613    0.9904   -0.2027 H       1  NONAME1     0.0233
     27 H2          6.6684    0.7700    0.0000 H       1  NONAME1     0.0233
     28 H3          7.8352   -0.0714    1.0957 H       1  NONAME1     0.0233
     29 H4          9.8427   -0.5461   -0.9484 H       1  NONAME1     0.0311
     30 H5          9.9862   -0.4115    0.8086 H       1  NONAME1     0.0311
     31 H6         11.1018   -2.6657   -0.8575 H       1  NONAME1     0.0620
     32 H7         10.8322   -5.1062   -0.8772 H       1  NONAME1     0.0620
     33 H8          9.2917   -6.9354   -0.8767 H       1  NONAME1     0.0365
     34 H9          9.2809   -7.0194    0.8846 H       1  NONAME1     0.0365
     35 H10         4.1870  -10.7199   -0.1190 H       1  NONAME1     0.1550
     36 H11         1.9573  -11.3129    0.3350 H       1  NONAME1     0.0636
     37 H12        -0.4162  -10.6757    0.4881 H       1  NONAME1     0.0619
     38 H13        -1.1054   -8.3219    0.1740 H       1  NONAME1     0.0636
     39 H14         1.2433   -5.6969   -0.7997 H       1  NONAME1     0.1423
     40 H15        -0.4095   -6.0733   -0.6592 H       1  NONAME1     0.1423
     41 H16         2.8942   -7.2747   -0.8352 H       1  NONAME1     0.0654
     42 H17         4.3180   -7.1774    0.3271 H       1  NONAME1     0.1716
     43 H18         7.1705   -4.6943    1.3244 H       1  NONAME1     0.0620
     44 H19         7.3292   -2.3024    1.2029 H       1  NONAME1     0.0620
@<TRIPOS>BOND
     1     1     2    1
     2     2     3    1
     3     3     4   ar
     4     4     5   ar
     5     5     6   ar
     6     6     7    1
     7     7     8    1
     8     8     9   ar
     9     9    10    2
    10     9    11   ar
    11    11    12   ar
    12    12    13    1
    13    13    14    1
    14    14    15   ar
    15    15    16   ar
    16    16    17   ar
    17    17    18   ar
    18    18    19    1
    19    18    20   ar
    20    14    20   ar
    21    12    21   ar
    22    21    22   ar
    23     8    22   ar
    24    22    23    1
    25     6    24   ar
    26    24    25   ar
    27     3    25   ar
    28     1    26    1
    29     1    27    1
    30     1    28    1
    31     2    29    1
    32     2    30    1
    33     4    31    1
    34     5    32    1
    35     7    33    1
    36     7    34    1
    37    13    35    1
    38    15    36    1
    39    16    37    1
    40    17    38    1
    41    19    39    1
    42    19    40    1
    43    20    41    1
    44    21    42    1
    45    24    43    1
    46    25    44    1
