REMARK  8 active torsions:
REMARK  status: ('A' for Active; 'I' for Inactive)
REMARK    1  A    between atoms: C2_2  and  O1_3 
REMARK    2  A    between atoms: O1_3  and  C3_4 
REMARK    3  A    between atoms: C6_7  and  C5_6 
REMARK    4  A    between atoms: C6_7  and  C7_8 
REMARK    5  A    between atoms: C6_7  and  C11_15 
REMARK    6  A    between atoms: C17_24  and  O4_25 
REMARK    7  A    between atoms: O4_25  and  S1_26 
REMARK    8  A    between atoms: S1_26  and  C18_29 
ROOT
ATOM      1  C3  NON d   1      11.928   0.591   0.125  0.00  0.00     0.103 C 
ATOM      2  C4  NON d   1      10.753  -0.252   0.073  0.00  0.00     0.047 C 
ATOM      3  C5  NON d   1      10.703  -1.618   0.553  0.00  0.00    -0.042 C 
ATOM      4  C15 NON d   1      11.855  -2.037   1.218  0.00  0.00     0.011 C 
ATOM      5  C16 NON d   1      13.064  -1.333   1.112  0.00  0.00     0.041 C 
ATOM      6  C17 NON d   1      13.162  -0.084   0.466  0.00  0.00     0.123 C 
ENDROOT
BRANCH   3   7
ATOM      7  C6  NON d   1       9.416  -2.562   0.612  0.00  0.00     0.099 C 
BRANCH   7   8
ATOM      8  C7  NON d   1       9.495  -4.124   0.360  0.00  0.00     0.042 C 
ATOM      9  C8  NON d   1       8.321  -4.966   0.753  0.00  0.00     0.264 C 
ATOM     10  O2  NON d   1       7.354  -4.567   1.380  0.00  0.00    -0.267 OA
ATOM     11  N1  NON d   1       8.587  -6.282   0.398  0.00  0.00    -0.283 N 
ATOM     12  N2  NON d   1       9.941  -6.400   0.073  0.00  0.00    -0.207 NA
ATOM     13  H8  NON d   1       8.127  -7.023   0.912  0.00  0.00     0.184 HD
ATOM     14  C9  NON d   1      10.383  -5.100   0.000  0.00  0.00     0.014 C 
ATOM     15  H9  NON d   1      10.090  -6.884  -0.818  0.00  0.00     0.152 HD
ATOM     16  C10 NON d   1      11.847  -4.624   0.000  0.00  0.00     0.064 C 
ENDBRANCH   7   8
BRANCH   7  17
ATOM     17  C11 NON d   1       8.190  -1.946  -0.035  0.00  0.00     0.042 C 
ATOM     18  C12 NON d   1       7.404  -0.911   0.343  0.00  0.00     0.014 C 
ATOM     19  C13 NON d   1       7.638   0.082   1.433  0.00  0.00     0.064 C 
ATOM     20  N3  NON d   1       6.251  -0.802  -0.420  0.00  0.00    -0.207 NA
ATOM     21  N4  NON d   1       6.375  -1.706  -1.463  0.00  0.00    -0.283 N 
ATOM     22  H16 NON d   1       6.011   0.153  -0.691  0.00  0.00     0.152 HD
ATOM     23  C14 NON d   1       7.474  -2.513  -1.214  0.00  0.00     0.264 C 
ATOM     24  H17 NON d   1       5.548  -2.158  -1.838  0.00  0.00     0.184 HD
ATOM     25  O3  NON d   1       7.771  -3.515  -1.840  0.00  0.00    -0.267 OA
ENDBRANCH   7  17
ENDBRANCH   3   7
BRANCH   1  26
ATOM     26  O1  NON d   1      11.829   2.001  -0.104  0.00  0.00    -0.349 OA
BRANCH  26  27
ATOM     27  C2  NON d   1      10.470   2.735   0.000  0.00  0.00     0.171 C 
ATOM     28  C1  NON d   1      10.470   4.275   0.000  0.00  0.00     0.034 C 
ENDBRANCH  26  27
ENDBRANCH   1  26
BRANCH   6  29
ATOM     29  O4  NON d   1      14.514   0.327   0.331  0.00  0.00    -0.226 OA
BRANCH  29  30
ATOM     30  S1  NON d   1      15.503  -0.429  -0.819  0.00  0.00     0.303 S 
ATOM     31  O5  NON d   1      14.782  -1.546  -1.411  0.00  0.00    -0.193 OA
ATOM     32  O6  NON d   1      16.011   0.625  -1.683  0.00  0.00    -0.193 OA
BRANCH  30  33
ATOM     33  C18 NON d   1      17.128  -1.246  -0.133  0.00  0.00     0.086 A 
ATOM     34  C19 NON d   1      18.358  -0.556  -0.124  0.00  0.00     0.026 A 
ATOM     35  C20 NON d   1      19.653  -1.246  -0.041  0.00  0.00     0.008 A 
ATOM     36  C21 NON d   1      19.806  -2.655   0.000  0.00  0.00    -0.062 A 
ATOM     37  C22 NON d   1      21.140  -3.425   0.000  0.00  0.00     0.048 C 
ATOM     38  C23 NON d   1      18.548  -3.318  -0.058  0.00  0.00     0.008 A 
ATOM     39  C24 NON d   1      17.255  -2.648  -0.131  0.00  0.00     0.026 A 
ENDBRANCH  30  33
ENDBRANCH  29  30
ENDBRANCH   6  29
TORSDOF 8
