@<TRIPOS>MOLECULE
*****
 36 38 0 0 0
SMALL
USER_CHARGES

@<TRIPOS>ATOM
      1 O1          1.6284   -5.0323   -0.0002 O.2     1  NONAME1    -0.2687
      2 C1          1.6256   -3.8019   -0.0001 C.2     1  NONAME1     0.2602
      3 N1          2.7980   -3.0745   -0.0001 N.am    1  NONAME1    -0.2301
      4 N2          4.0058   -3.7788   -0.0001 N.am    1  NONAME1    -0.2297
      5 C2          5.1993   -3.0813    0.0000 C.2     1  NONAME1     0.2668
      6 O2          5.2013   -1.8479    0.0001 O.2     1  NONAME1    -0.2681
      7 C3          6.4149   -3.8812    0.0000 C.ar    1  NONAME1     0.0759
      8 C4          7.7110   -3.4098    0.0001 C.ar    1  NONAME1    -0.0419
      9 C5          8.6741   -4.4608    0.0001 C.ar    1  NONAME1    -0.0462
     10 C6          8.1078   -5.7268   -0.0000 C.ar    1  NONAME1     0.0201
     11 C7          8.7785   -7.0522   -0.0001 C.ar    1  NONAME1    -0.0111
     12 C8         10.1854   -7.1340   -0.0001 C.ar    1  NONAME1    -0.0508
     13 C9         10.8455   -8.3681   -0.0001 C.ar    1  NONAME1    -0.0259
     14 C10        10.1046   -9.5393   -0.0001 C.ar    1  NONAME1     0.1234
     15 F1         10.7338  -10.7209   -0.0002 F       1  NONAME1    -0.2055
     16 C11         8.7194   -9.5005   -0.0001 C.ar    1  NONAME1    -0.0259
     17 C12         8.0619   -8.2653   -0.0001 C.ar    1  NONAME1    -0.0508
     18 S1          6.3900   -5.5880   -0.0001 S.2     1  NONAME1    -0.0836
     19 C13         0.3369   -3.0499   -0.0000 C.ar    1  NONAME1     0.0410
     20 C14        -0.8459   -3.7959    0.0000 C.ar    1  NONAME1    -0.0314
     21 C15        -2.0527   -3.1213    0.0001 C.ar    1  NONAME1     0.0283
     22 N3         -2.1548   -1.7766    0.0001 N.ar    1  NONAME1    -0.2632
     23 C16        -1.0021   -1.0760    0.0001 C.ar    1  NONAME1     0.0283
     24 C17         0.2565   -1.6563   -0.0000 C.ar    1  NONAME1    -0.0314
     25 H1          2.8780   -2.0619    0.0001 H       1  NONAME1     0.1731
     26 H2          3.9540   -4.7963   -0.0002 H       1  NONAME1     0.1731
     27 H3          7.9564   -2.3533    0.0002 H       1  NONAME1     0.0631
     28 H4          9.7405   -4.2739    0.0001 H       1  NONAME1     0.0629
     29 H5         10.7995   -6.2376   -0.0001 H       1  NONAME1     0.0625
     30 H6         11.9298   -8.4171   -0.0001 H       1  NONAME1     0.0646
     31 H7          8.1548  -10.4276   -0.0002 H       1  NONAME1     0.0646
     32 H8          6.9749   -8.2821   -0.0001 H       1  NONAME1     0.0625
     33 H9         -0.8306   -4.8816    0.0000 H       1  NONAME1     0.0640
     34 H10        -2.9963   -3.6598    0.0002 H       1  NONAME1     0.0830
     35 H11        -1.1206    0.0046    0.0001 H       1  NONAME1     0.0830
     36 H12         1.1227   -1.0086   -0.0001 H       1  NONAME1     0.0640
@<TRIPOS>BOND
     1     1     2    2
     2     2     3   am
     3     3     4    1
     4     4     5   am
     5     5     6    2
     6     5     7    1
     7     7     8   ar
     8     8     9   ar
     9     9    10   ar
    10    10    11    1
    11    11    12   ar
    12    12    13   ar
    13    13    14   ar
    14    14    15    1
    15    14    16   ar
    16    16    17   ar
    17    11    17   ar
    18    10    18   ar
    19     7    18   ar
    20     2    19    1
    21    19    20   ar
    22    20    21   ar
    23    21    22   ar
    24    22    23   ar
    25    23    24   ar
    26    19    24   ar
    27     3    25    1
    28     4    26    1
    29     8    27    1
    30     9    28    1
    31    12    29    1
    32    13    30    1
    33    16    31    1
    34    17    32    1
    35    20    33    1
    36    21    34    1
    37    23    35    1
    38    24    36    1
