REMARK  4 active torsions:
REMARK  status: ('A' for Active; 'I' for Inactive)
REMARK    1  A    between atoms: C2_2  and  C3_4 
REMARK    2  A    between atoms: C6_7  and  C7_8 
REMARK       I    between atoms: C7_8  and  N1_10 
REMARK    3  A    between atoms: C8_11  and  N1_10 
REMARK    4  A    between atoms: C8_11  and  C10_13 
ROOT
ATOM      1  C7  NON d   1       3.671  -8.229   0.582  0.00  0.00     0.259 C 
ATOM      2  O2  NON d   1       4.167  -9.169   1.200  0.00  0.00    -0.267 OA
ATOM      3  N1  NON d   1       2.373  -8.286   0.105  0.00  0.00    -0.348 N 
ATOM      4  H6  NON d   1       2.066  -7.563  -0.532  0.00  0.00     0.163 HD
ENDROOT
BRANCH   3   5
ATOM      5  C8  NON d   1       1.508  -9.438   0.363  0.00  0.00     0.114 C 
ATOM      6  C9  NON d   1       1.990 -10.644  -0.461  0.00  0.00     0.037 C 
BRANCH   5   7
ATOM      7  C10 NON d   1       0.021  -9.126   0.152  0.00  0.00    -0.035 A 
ATOM      8  C11 NON d   1      -0.909 -10.152  -0.111  0.00  0.00     0.009 A 
ATOM      9  C12 NON d   1      -2.272  -9.885  -0.277  0.00  0.00     0.002 A 
ATOM     10  C13 NON d   1      -2.744  -8.582  -0.169  0.00  0.00     0.019 A 
ATOM     11  C14 NON d   1      -1.850  -7.558   0.123  0.00  0.00     0.011 A 
ATOM     12 Br1  NON d   1      -2.490  -5.785   0.288  0.00  0.00    -0.051 Br
ATOM     13  C15 NON d   1      -0.485  -7.822   0.298  0.00  0.00     0.028 A 
ENDBRANCH   5   7
ENDBRANCH   3   5
BRANCH   1  14
ATOM     14  C6  NON d   1       4.425  -7.014   0.301  0.00  0.00     0.073 A 
ATOM     15  C5  NON d   1       5.802  -6.883   0.248  0.00  0.00     0.026 A 
ATOM     16  C4  NON d   1       6.230  -5.527   0.099  0.00  0.00     0.024 A 
ATOM     17  C3  NON d   1       5.165  -4.650   0.064  0.00  0.00     0.051 A 
ATOM     18  S1  NON d   1       3.665  -5.500   0.095  0.00  0.00    -0.081 SA
BRANCH  17  19
ATOM     19  C2  NON d   1       5.136  -3.195   0.000  0.00  0.00     0.162 C 
ATOM     20  C1  NON d   1       6.469  -2.425   0.000  0.00  0.00     0.097 C 
ATOM     21  O1  NON d   1       4.082  -2.555  -0.083  0.00  0.00    -0.292 OA
ENDBRANCH  17  19
ENDBRANCH   1  14
TORSDOF 4
