@<TRIPOS>MOLECULE
*****
 57 60 0 0 0
SMALL
USER_CHARGES

@<TRIPOS>ATOM
      1 O1         -1.7061   -6.1657   -0.2427 O.2     1  NONAME1    -0.2522
      2 C1         -1.3640   -7.3254   -0.0255 C.2     1  NONAME1     0.3082
      3 N1         -2.4055   -8.2068    0.0822 N.am    1  NONAME1    -0.2692
      4 C2         -2.5437   -9.5911   -0.0895 C.ar    1  NONAME1     0.0353
      5 C3         -1.5433  -10.3770   -0.6458 C.ar    1  NONAME1    -0.0404
      6 C4         -1.6932  -11.7521   -0.7733 C.ar    1  NONAME1    -0.0595
      7 C5         -2.9086  -12.3333   -0.4423 C.ar    1  NONAME1    -0.0500
      8 C6         -4.0010  -11.5500    0.0000 C.ar    1  NONAME1     0.0566
      9 C7         -5.3347  -12.3200    0.0000 C.3     1  NONAME1     0.4175
     10 F1         -6.6684  -13.0900    0.0000 F       1  NONAME1    -0.1659
     11 F2         -5.0011  -13.0192    1.2025 F       1  NONAME1    -0.1659
     12 F3         -6.0871  -11.2007    0.4809 F       1  NONAME1    -0.1659
     13 C8         -3.7920  -10.1746    0.1999 C.ar    1  NONAME1    -0.0288
     14 N2         -0.0807   -7.7869    0.1482 N.am    1  NONAME1    -0.2675
     15 C9          1.1484   -7.0385    0.0872 C.ar    1  NONAME1     0.0576
     16 C10         1.0896   -5.6223   -0.0344 C.ar    1  NONAME1    -0.0174
     17 C11         2.2202   -4.8053   -0.0287 C.ar    1  NONAME1     0.0355
     18 N3          2.2050   -3.3912   -0.0889 N.am    1  NONAME1    -0.2814
     19 C12         1.1084   -2.5555    0.0379 C.2     1  NONAME1     0.2483
     20 O2         -0.0484   -2.9177    0.2241 O.2     1  NONAME1    -0.2699
     21 C13         1.3619   -1.0757   -0.0326 C.ar    1  NONAME1     0.0372
     22 C14         0.2370   -0.2325   -0.1134 C.ar    1  NONAME1    -0.0469
     23 C15         0.3804    1.1561   -0.1652 C.ar    1  NONAME1    -0.0257
     24 C16         1.6518    1.7097   -0.1374 C.ar    1  NONAME1     0.1234
     25 F4          1.7965    3.0403   -0.1857 F       1  NONAME1    -0.2055
     26 C17         2.7793    0.9005   -0.0532 C.ar    1  NONAME1    -0.0257
     27 C18         2.6391   -0.4922    0.0041 C.ar    1  NONAME1    -0.0469
     28 C19         3.4598   -5.4119    0.0608 C.ar    1  NONAME1    -0.0386
     29 C20         3.5523   -6.7988    0.1880 C.ar    1  NONAME1    -0.0371
     30 C21         2.4334   -7.6732    0.2003 C.ar    1  NONAME1     0.0514
     31 N4          2.6878   -9.0433    0.3448 N.pl3   1  NONAME1    -0.3285
     32 C22         4.0692   -9.5599    0.3834 C.3     1  NONAME1     0.0123
     33 C23         3.9068  -11.0664    0.5057 C.3     1  NONAME1    -0.0358
     34 C24         2.6954  -11.3319   -0.3598 C.3     1  NONAME1    -0.0358
     35 C25         1.8133  -10.0998   -0.1524 C.3     1  NONAME1     0.0123
     36 H1         -3.2715   -7.6862    0.1682 H       1  NONAME1     0.1564
     37 H2         -0.6601   -9.9192   -1.0611 H       1  NONAME1     0.0636
     38 H3         -0.8862  -12.3561   -1.1795 H       1  NONAME1     0.0618
     39 H4         -3.0284  -13.4077   -0.5867 H       1  NONAME1     0.0623
     40 H5         -4.6130   -9.5466    0.5386 H       1  NONAME1     0.0642
     41 H6          0.0039   -8.6902    0.5749 H       1  NONAME1     0.1564
     42 H7          0.1304   -5.1289   -0.1105 H       1  NONAME1     0.0655
     43 H8          3.1134   -2.9683   -0.1817 H       1  NONAME1     0.1551
     44 H9         -0.7655   -0.6602   -0.1310 H       1  NONAME1     0.0626
     45 H10        -0.4909    1.8006   -0.2228 H       1  NONAME1     0.0646
     46 H11         3.7622    1.3594   -0.0242 H       1  NONAME1     0.0646
     47 H12         3.5449   -1.0777    0.0969 H       1  NONAME1     0.0626
     48 H13         4.3755   -4.8288    0.0679 H       1  NONAME1     0.0637
     49 H14         4.5641   -7.1837    0.2759 H       1  NONAME1     0.0637
     50 H15         4.6424   -9.1734    1.2329 H       1  NONAME1     0.0464
     51 H16         4.5908   -9.3265   -0.5549 H       1  NONAME1     0.0464
     52 H17         4.7924  -11.6127    0.1689 H       1  NONAME1     0.0281
     53 H18         3.7026  -11.3439    1.5459 H       1  NONAME1     0.0281
     54 H19         2.9873  -11.4112   -1.4133 H       1  NONAME1     0.0281
     55 H20         2.1799  -12.2585   -0.0862 H       1  NONAME1     0.0281
     56 H21         1.0578  -10.3399    0.5997 H       1  NONAME1     0.0464
     57 H22         1.3662   -9.8267   -1.1102 H       1  NONAME1     0.0464
@<TRIPOS>BOND
     1     1     2    2
     2     2     3   am
     3     3     4    1
     4     4     5   ar
     5     5     6   ar
     6     6     7   ar
     7     7     8   ar
     8     8     9    1
     9     9    10    1
    10     9    11    1
    11     9    12    1
    12     8    13   ar
    13     4    13   ar
    14     2    14   am
    15    14    15    1
    16    15    16   ar
    17    16    17   ar
    18    17    18    1
    19    18    19   am
    20    19    20    2
    21    19    21    1
    22    21    22   ar
    23    22    23   ar
    24    23    24   ar
    25    24    25    1
    26    24    26   ar
    27    26    27   ar
    28    21    27   ar
    29    17    28   ar
    30    28    29   ar
    31    29    30   ar
    32    15    30   ar
    33    30    31    1
    34    31    32    1
    35    32    33    1
    36    33    34    1
    37    34    35    1
    38    31    35    1
    39     3    36    1
    40     5    37    1
    41     6    38    1
    42     7    39    1
    43    13    40    1
    44    14    41    1
    45    16    42    1
    46    18    43    1
    47    22    44    1
    48    23    45    1
    49    26    46    1
    50    27    47    1
    51    28    48    1
    52    29    49    1
    53    32    50    1
    54    32    51    1
    55    33    52    1
    56    33    53    1
    57    34    54    1
    58    34    55    1
    59    35    56    1
    60    35    57    1
