@<TRIPOS>MOLECULE
*****
 53 55 0 0 0
SMALL
USER_CHARGES

@<TRIPOS>ATOM
      1 C1          8.0021   18.0200    0.0000 C.3     1  NONAME1    -0.0493
      2 C2          9.3358   17.2500    0.0000 C.3     1  NONAME1     0.0121
      3 N1          9.2883   15.7062   -0.2187 N.am    1  NONAME1    -0.2981
      4 C3          8.0021   14.9400    0.0000 C.3     1  NONAME1     0.0121
      5 C4          8.0021   13.4000    0.0000 C.3     1  NONAME1    -0.0493
      6 C5         10.5541   15.1013   -0.4592 C.2     1  NONAME1     0.2466
      7 O1         11.5908   15.7561   -0.5470 O.2     1  NONAME1    -0.2700
      8 C6         10.7193   13.6172   -0.5280 C.ar    1  NONAME1     0.0370
      9 C7         11.3604   12.9711    0.5375 C.ar    1  NONAME1    -0.0479
     10 C8         11.3793   11.5673    0.6130 C.ar    1  NONAME1    -0.0398
     11 C9         10.7300   10.7921   -0.3552 C.ar    1  NONAME1     0.0337
     12 N2         10.6322    9.3912   -0.1415 N.am    1  NONAME1    -0.2815
     13 C10         9.6373    8.5593   -0.6554 C.2     1  NONAME1     0.2500
     14 O2          8.6127    8.9590   -1.2029 O.2     1  NONAME1    -0.2698
     15 C11         9.8253    7.0717   -0.4858 C.ar    1  NONAME1     0.0582
     16 C12        11.1372    6.5664   -0.4382 C.ar    1  NONAME1    -0.0478
     17 C13        11.3706    5.1902   -0.4449 C.ar    1  NONAME1    -0.0609
     18 C14        10.3004    4.3124   -0.5587 C.ar    1  NONAME1    -0.0600
     19 C15         8.9910    4.8008   -0.6129 C.ar    1  NONAME1    -0.0397
     20 C16         8.7201    6.1679   -0.5104 C.ar    1  NONAME1     0.0458
     21 N3          7.4036    6.6807   -0.4588 N.am    1  NONAME1    -0.2808
     22 C17         6.1229    6.1734   -0.3667 C.2     1  NONAME1     0.2488
     23 O3          5.2067    6.9841   -0.5365 O.2     1  NONAME1    -0.2698
     24 C18         5.7939    4.7776   -0.0760 C.ar    1  NONAME1     0.0440
     25 C19         6.3708    3.8673    0.8771 C.ar    1  NONAME1    -0.0426
     26 C20         5.7770    2.6223    0.8588 C.ar    1  NONAME1    -0.0236
     27 S1          4.4524    2.5583   -0.2147 S.2     1  NONAME1    -0.1043
     28 C21         4.6860    4.1878   -0.6680 C.ar    1  NONAME1    -0.0122
     29 C22        10.2071   11.4390   -1.4830 C.ar    1  NONAME1    -0.0398
     30 C23        10.2255   12.8470   -1.5874 C.ar    1  NONAME1    -0.0479
     31 H1          8.4687   19.0210    0.1023 H       1  NONAME1     0.0245
     32 H2          6.6684   18.7900    0.0000 H       1  NONAME1     0.0245
     33 H3          7.7801   17.8310   -1.0702 H       1  NONAME1     0.0245
     34 H4         10.0215   17.6596   -0.7522 H       1  NONAME1     0.0462
     35 H5          9.8102   17.3682    0.9819 H       1  NONAME1     0.0462
     36 H6          7.5826   15.3121    0.9434 H       1  NONAME1     0.0462
     37 H7          7.3440   15.2835   -0.8075 H       1  NONAME1     0.0462
     38 H8          6.8972   13.3028    0.0425 H       1  NONAME1     0.0245
     39 H9          8.0021   11.8600    0.0000 H       1  NONAME1     0.0245
     40 H10         8.3875   13.3017    1.0372 H       1  NONAME1     0.0245
     41 H11        11.8052   13.5614    1.3357 H       1  NONAME1     0.0626
     42 H12        11.8447   11.1028    1.4795 H       1  NONAME1     0.0636
     43 H13        11.1969    9.0127    0.6092 H       1  NONAME1     0.1551
     44 H14        12.0003    7.2264   -0.4453 H       1  NONAME1     0.0626
     45 H15        12.3859    4.8048   -0.4153 H       1  NONAME1     0.0618
     46 H16        10.4790    3.2414   -0.6283 H       1  NONAME1     0.0618
     47 H17         8.2086    4.0729   -0.7870 H       1  NONAME1     0.0636
     48 H18         7.3490    7.6912   -0.5990 H       1  NONAME1     0.1552
     49 H19         7.2018    4.1050    1.5305 H       1  NONAME1     0.0630
     50 H20         6.0400    1.7468    1.4385 H       1  NONAME1     0.0693
     51 H21         3.9984    4.6503   -1.3657 H       1  NONAME1     0.0701
     52 H22         9.7368   10.8654   -2.2794 H       1  NONAME1     0.0636
     53 H23         9.7650   13.3267   -2.4469 H       1  NONAME1     0.0626
@<TRIPOS>BOND
     1     1     2    1
     2     2     3    1
     3     3     4    1
     4     4     5    1
     5     3     6   am
     6     6     7    2
     7     6     8    1
     8     8     9   ar
     9     9    10   ar
    10    10    11   ar
    11    11    12    1
    12    12    13   am
    13    13    14    2
    14    13    15    1
    15    15    16   ar
    16    16    17   ar
    17    17    18   ar
    18    18    19   ar
    19    19    20   ar
    20    15    20   ar
    21    20    21    1
    22    21    22   am
    23    22    23    2
    24    22    24    1
    25    24    25   ar
    26    25    26   ar
    27    26    27   ar
    28    27    28   ar
    29    24    28   ar
    30    11    29   ar
    31    29    30   ar
    32     8    30   ar
    33     1    31    1
    34     1    32    1
    35     1    33    1
    36     2    34    1
    37     2    35    1
    38     4    36    1
    39     4    37    1
    40     5    38    1
    41     5    39    1
    42     5    40    1
    43     9    41    1
    44    10    42    1
    45    12    43    1
    46    16    44    1
    47    17    45    1
    48    18    46    1
    49    19    47    1
    50    21    48    1
    51    25    49    1
    52    26    50    1
    53    28    51    1
    54    29    52    1
    55    30    53    1
