@<TRIPOS>MOLECULE
*****
 41 43 0 0 0
SMALL
USER_CHARGES

@<TRIPOS>ATOM
      1 C1          5.1886   -5.3098    0.0000 C.3     1  NONAME1    -0.0444
      2 C2          5.1886   -3.7698    0.0000 C.3     1  NONAME1     0.0863
      3 S1          3.7201   -3.0937    0.8756 S.3     1  NONAME1    -0.0749
      4 C3          3.6015   -1.5169    0.1470 C.ar    1  NONAME1     0.1741
      5 N1          4.6696   -0.8479   -0.2307 N.ar    1  NONAME1    -0.2300
      6 C4          4.2497    0.4313   -0.4171 C.ar    1  NONAME1     0.0469
      7 C5          2.8935    0.5266   -0.2299 C.ar    1  NONAME1     0.0303
      8 N2          2.4355   -0.7582    0.0306 N.ar    1  NONAME1    -0.2946
      9 C6          1.0513   -1.1362    0.0775 C.ar    1  NONAME1     0.0485
     10 C7          0.0538   -0.1514    0.1888 C.ar    1  NONAME1    -0.0378
     11 C8         -1.3024   -0.4976    0.1704 C.ar    1  NONAME1    -0.0598
     12 C9         -1.6843   -1.8288    0.0462 C.ar    1  NONAME1    -0.0616
     13 C10        -0.7104   -2.8139   -0.0684 C.ar    1  NONAME1    -0.0598
     14 C11         0.6462   -2.4703   -0.0641 C.ar    1  NONAME1    -0.0378
     15 C12         6.5098   -3.2129    0.5853 C.2     1  NONAME1     0.2307
     16 O1          6.5690   -2.5095    1.5926 O.2     1  NONAME1    -0.2742
     17 N3          7.6358   -3.6400   -0.1235 N.am    1  NONAME1    -0.2785
     18 C13         8.8774   -3.0226   -0.0222 C.ar    1  NONAME1     0.0839
     19 S2          8.9417   -1.3260    0.0868 S.2     1  NONAME1    -0.0812
     20 C14        10.6435   -1.3185    0.0124 C.ar    1  NONAME1    -0.0218
     21 C15        11.1546   -2.5925   -0.0925 C.ar    1  NONAME1    -0.0407
     22 C16        10.1324   -3.6069   -0.1281 C.ar    1  NONAME1     0.0649
     23 C17        10.3194   -5.0521   -0.2399 C.2     1  NONAME1     0.2439
     24 N4         11.6002   -5.5108   -0.1122 N.am    1  NONAME1    -0.3253
     25 O2          9.3924   -5.8381   -0.4168 O.2     1  NONAME1    -0.2703
     26 H1          4.1239   -5.4385   -0.2811 H       1  NONAME1     0.0245
     27 H2          5.1886   -6.8498    0.0000 H       1  NONAME1     0.0245
     28 H3          5.3280   -5.4299    1.0947 H       1  NONAME1     0.0245
     29 H4          5.1415   -3.4417   -1.0462 H       1  NONAME1     0.0509
     30 H5          4.9435    1.2221   -0.6720 H       1  NONAME1     0.0845
     31 H6          2.2409    1.3802   -0.3202 H       1  NONAME1     0.0829
     32 H7          0.2903    0.9020    0.3054 H       1  NONAME1     0.0638
     33 H8         -2.0611    0.2772    0.2525 H       1  NONAME1     0.0618
     34 H9         -2.7370   -2.0979    0.0308 H       1  NONAME1     0.0618
     35 H10        -1.0022   -3.8558   -0.1779 H       1  NONAME1     0.0618
     36 H11         1.3472   -3.2807   -0.2224 H       1  NONAME1     0.0638
     37 H12         7.6532   -4.6107   -0.4267 H       1  NONAME1     0.1553
     38 H13        11.1862   -0.3834    0.0449 H       1  NONAME1     0.0694
     39 H14        12.2194   -2.7758   -0.1573 H       1  NONAME1     0.0631
     40 H15        11.7272   -6.5119   -0.0881 H       1  NONAME1     0.1453
     41 H16        12.3660   -4.9271    0.1903 H       1  NONAME1     0.1453
@<TRIPOS>BOND
     1     2     1    1
     2     2     3    1
     3     3     4    1
     4     4     5   ar
     5     5     6   ar
     6     6     7   ar
     7     7     8   ar
     8     4     8   ar
     9     8     9    1
    10     9    10   ar
    11    10    11   ar
    12    11    12   ar
    13    12    13   ar
    14    13    14   ar
    15     9    14   ar
    16     2    15    1
    17    15    16    2
    18    15    17   am
    19    17    18    1
    20    18    19   ar
    21    19    20   ar
    22    20    21   ar
    23    21    22   ar
    24    18    22   ar
    25    22    23    1
    26    23    24   am
    27    23    25    2
    28     1    26    1
    29     1    27    1
    30     1    28    1
    31     2    29    1
    32     6    30    1
    33     7    31    1
    34    10    32    1
    35    11    33    1
    36    12    34    1
    37    13    35    1
    38    14    36    1
    39    17    37    1
    40    20    38    1
    41    21    39    1
    42    24    40    1
    43    24    41    1
