@<TRIPOS>MOLECULE
*****
 64 65 0 0 0
SMALL
USER_CHARGES

@<TRIPOS>ATOM
      1 C1        -11.6633   15.5816   -1.1622 C.3     1  NONAME1    -0.0636
      2 C2        -10.6694   15.4000    0.0000 C.3     1  NONAME1    -0.0376
      3 C3         -9.3358   16.1700    0.0000 C.3     1  NONAME1     0.0204
      4 C4         -9.3358   17.7100    0.0000 C.3     1  NONAME1    -0.0466
      5 N1         -8.1353   15.4855   -0.5539 N.am    1  NONAME1    -0.3088
      6 C5         -6.8579   15.8733   -0.1159 C.2     1  NONAME1     0.2443
      7 O1         -6.6649   16.9659    0.4174 O.2     1  NONAME1    -0.2702
      8 C6         -5.6714   14.9442   -0.2361 C.ar    1  NONAME1     0.0368
      9 C7         -4.3931   15.5232   -0.2025 C.ar    1  NONAME1    -0.0479
     10 C8         -3.2246   14.7353   -0.1961 C.ar    1  NONAME1    -0.0401
     11 C9         -3.2673   13.3327   -0.1887 C.ar    1  NONAME1     0.0275
     12 N2         -2.0676   12.6343   -0.2492 N.pl3   1  NONAME1    -0.3354
     13 C10        -1.8737   11.1884   -0.0336 C.3     1  NONAME1     0.0861
     14 C11        -0.3456   10.8634    0.0718 C.2     1  NONAME1     0.2343
     15 O2          0.4643   11.7728    0.2655 O.2     1  NONAME1    -0.2738
     16 N3         -0.0202    9.5037   -0.0331 N.am    1  NONAME1    -0.2842
     17 C12         1.2903    8.9271   -0.0043 C.ar    1  NONAME1     0.0341
     18 C13         2.4577    9.6881    0.0387 C.ar    1  NONAME1    -0.0404
     19 C14         3.7105    9.0766    0.0760 C.ar    1  NONAME1    -0.0593
     20 C15         3.8349    7.6849    0.0735 C.ar    1  NONAME1    -0.0495
     21 C16         2.7081    6.8689    0.0147 C.ar    1  NONAME1     0.0384
     22 C17         2.7418    5.3596   -0.0039 C.2     1  NONAME1     0.2441
     23 O3          1.6625    4.7591   -0.0227 O.2     1  NONAME1    -0.2702
     24 N4          3.8818    4.5716   -0.0051 N.am    1  NONAME1    -0.3113
     25 C18         5.3004    4.8923   -0.0123 C.3     1  NONAME1     0.0140
     26 C19         6.2629    3.7099   -0.2039 C.3     1  NONAME1    -0.0138
     27 C20         6.5029    2.8806    1.0590 C.3     1  NONAME1     0.0487
     28 O4          7.8147    2.3085    1.1049 O.3     1  NONAME1    -0.3829
     29 C21         8.0931    1.3541    0.0899 C.3     1  NONAME1     0.0364
     30 C22         1.4316    7.5177   -0.0225 C.ar    1  NONAME1    -0.0284
     31 C23        -4.5436   12.7587   -0.2455 C.ar    1  NONAME1    -0.0401
     32 C24        -5.7336   13.5470   -0.2580 C.ar    1  NONAME1    -0.0479
     33 H1        -10.9696   15.2094   -1.9436 H       1  NONAME1     0.0230
     34 H2        -12.6573   15.7631   -2.3245 H       1  NONAME1     0.0230
     35 H3        -12.3333   14.7531   -0.8521 H       1  NONAME1     0.0230
     36 H4        -11.2144   15.6777    0.9135 H       1  NONAME1     0.0280
     37 H5        -10.4331   14.3299    0.0933 H       1  NONAME1     0.0280
     38 H6         -9.0850   16.0291    1.0679 H       1  NONAME1     0.0495
     39 H7         -9.1008   17.8102   -1.0798 H       1  NONAME1     0.0247
     40 H8         -9.3358   19.2500    0.0000 H       1  NONAME1     0.0247
     41 H9        -10.4292   17.8306    0.1334 H       1  NONAME1     0.0247
     42 H10        -8.2491   14.5494   -0.9144 H       1  NONAME1     0.1493
     43 H11        -4.2888   16.6079   -0.1655 H       1  NONAME1     0.0626
     44 H12        -2.2632   15.2474   -0.1832 H       1  NONAME1     0.0636
     45 H13        -1.2544   13.1663    0.0738 H       1  NONAME1     0.1466
     46 H14        -2.3409   10.8759    0.9060 H       1  NONAME1     0.0557
     47 H15        -2.2978   10.6282   -0.8717 H       1  NONAME1     0.0557
     48 H16        -0.7859    8.8466   -0.1115 H       1  NONAME1     0.1549
     49 H17         2.4407   10.7733    0.0468 H       1  NONAME1     0.0636
     50 H18         4.6063    9.6944    0.1135 H       1  NONAME1     0.0618
     51 H19         4.8386    7.2958    0.1292 H       1  NONAME1     0.0625
     52 H20         3.6320    3.5838   -0.0105 H       1  NONAME1     0.1490
     53 H21         5.5300    5.4141    0.9224 H       1  NONAME1     0.0463
     54 H22         5.4611    5.5739   -0.8516 H       1  NONAME1     0.0463
     55 H23         5.9145    3.0559   -1.0121 H       1  NONAME1     0.0302
     56 H24         7.2276    4.1167   -0.5344 H       1  NONAME1     0.0302
     57 H25         6.4297    3.5137    1.9489 H       1  NONAME1     0.0560
     58 H26         5.7574    2.0850    1.1638 H       1  NONAME1     0.0560
     59 H27         8.7841    0.6111    0.5013 H       1  NONAME1     0.0523
     60 H28         8.5917    1.8471   -0.7500 H       1  NONAME1     0.0523
     61 H29         7.1924    0.8393   -0.2549 H       1  NONAME1     0.0523
     62 H30         0.5411    6.8938   -0.0653 H       1  NONAME1     0.0644
     63 H31        -4.6456   11.6771   -0.2662 H       1  NONAME1     0.0636
     64 H32        -6.6908   13.0363   -0.2456 H       1  NONAME1     0.0626
@<TRIPOS>BOND
     1     1     2    1
     2     3     2    1
     3     3     4    1
     4     3     5    1
     5     5     6   am
     6     6     7    2
     7     6     8    1
     8     8     9   ar
     9     9    10   ar
    10    10    11   ar
    11    11    12    1
    12    12    13    1
    13    13    14    1
    14    14    15    2
    15    14    16   am
    16    16    17    1
    17    17    18   ar
    18    18    19   ar
    19    19    20   ar
    20    20    21   ar
    21    21    22    1
    22    22    23    2
    23    22    24   am
    24    24    25    1
    25    25    26    1
    26    26    27    1
    27    27    28    1
    28    28    29    1
    29    21    30   ar
    30    17    30   ar
    31    11    31   ar
    32    31    32   ar
    33     8    32   ar
    34     1    33    1
    35     1    34    1
    36     1    35    1
    37     2    36    1
    38     2    37    1
    39     3    38    1
    40     4    39    1
    41     4    40    1
    42     4    41    1
    43     5    42    1
    44     9    43    1
    45    10    44    1
    46    12    45    1
    47    13    46    1
    48    13    47    1
    49    16    48    1
    50    18    49    1
    51    19    50    1
    52    20    51    1
    53    24    52    1
    54    25    53    1
    55    25    54    1
    56    26    55    1
    57    26    56    1
    58    27    57    1
    59    27    58    1
    60    29    59    1
    61    29    60    1
    62    29    61    1
    63    30    62    1
    64    31    63    1
    65    32    64    1
