REMARK  7 active torsions:
REMARK  status: ('A' for Active; 'I' for Inactive)
REMARK    1  A    between atoms: O1_2  and  C2_3 
REMARK    2  A    between atoms: C3_5  and  C2_3 
REMARK    3  A    between atoms: C3_5  and  C4_6 
REMARK    4  A    between atoms: C3_5  and  N1_14 
REMARK    5  A    between atoms: C4_6  and  C5_7 
REMARK    6  A    between atoms: C8_10  and  O3_11 
REMARK    7  A    between atoms: C11_15  and  N1_14 
ROOT
ATOM      1  C3  NON d   1       2.490  -4.017  -0.291  0.00  0.00     0.185 C 
ENDROOT
BRANCH   1   2
ATOM      2  C2  NON d   1       1.273  -5.004  -0.170  0.00  0.00     0.281 C 
ATOM      3  O2  NON d   1       0.088  -4.694  -0.113  0.00  0.00    -0.263 OA
BRANCH   2   4
ATOM      4  O1  NON d   1       1.671  -6.316  -0.214  0.00  0.00    -0.325 OA
ATOM      5  C1  NON d   1       0.629  -7.284  -0.058  0.00  0.00     0.213 C 
ENDBRANCH   2   4
ENDBRANCH   1   2
BRANCH   1   6
ATOM      6  C4  NON d   1       3.775  -4.726   0.230  0.00  0.00     0.073 C 
BRANCH   6   7
ATOM      7  C5  NON d   1       5.178  -4.197   0.002  0.00  0.00    -0.056 A 
ATOM      8  C6  NON d   1       6.242  -5.113   0.158  0.00  0.00     0.010 A 
ATOM      9  C7  NON d   1       7.577  -4.707   0.079  0.00  0.00     0.037 A 
ATOM     10  C8  NON d   1       7.861  -3.368  -0.141  0.00  0.00     0.065 A 
ATOM     11  C9  NON d   1       6.837  -2.451  -0.320  0.00  0.00     0.037 A 
ATOM     12  C10 NON d   1       5.501  -2.866  -0.266  0.00  0.00     0.010 A 
BRANCH  10  13
ATOM     13  O3  NON d   1       9.144  -2.912  -0.185  0.00  0.00    -0.361 OA
ATOM     14  H9  NON d   1       9.736  -3.648   0.038  0.00  0.00     0.217 HD
ENDBRANCH  10  13
ENDBRANCH   6   7
ENDBRANCH   1   6
BRANCH   1  15
ATOM     15  N1  NON d   1       2.238  -2.752   0.450  0.00  0.00    -0.384 N 
ATOM     16  H12 NON d   1       3.081  -2.194   0.639  0.00  0.00     0.159 HD
BRANCH  15  17
ATOM     17  C11 NON d   1       1.204  -1.866   0.142  0.00  0.00     0.106 C 
ATOM     18  C12 NON d   1       1.203  -0.517   0.095  0.00  0.00     0.117 C 
ATOM     19  C13 NON d   1      -0.082   0.167  -0.141  0.00  0.00     0.268 C 
ATOM     20  C16 NON d   1       2.432   0.292   0.290  0.00  0.00     0.288 C 
ATOM     21  O4  NON d   1      -1.123  -0.435  -0.412  0.00  0.00    -0.267 OA
ATOM     22  N2  NON d   1       0.000   1.540   0.000  0.00  0.00    -0.268 N 
ATOM     23  C14 NON d   1      -1.334   2.310   0.000  0.00  0.00     0.164 C 
ATOM     24  C15 NON d   1       1.200   2.250  -0.089  0.00  0.00     0.354 C 
ATOM     25  O5  NON d   1       1.163   3.467  -0.294  0.00  0.00    -0.244 OA
ATOM     26  N3  NON d   1       2.353   1.591   0.021  0.00  0.00    -0.153 NA
ATOM     27  O6  NON d   1       3.477  -0.271   0.621  0.00  0.00    -0.265 OA
ENDBRANCH  15  17
ENDBRANCH   1  15
TORSDOF 7
