@<TRIPOS>MOLECULE
*****
 71 73 0 0 0
SMALL
USER_CHARGES

@<TRIPOS>ATOM
      1 C1         -4.0010  -16.1700    0.0000 C.3     1  NONAME1    -0.0489
      2 C2         -4.0010  -14.6300    0.0000 C.3     1  NONAME1     0.0173
      3 N1         -5.1585  -13.7642   -0.1275 N.am    1  NONAME1    -0.2677
      4 C3         -4.9252  -12.3369   -0.1435 C.2     1  NONAME1     0.2508
      5 O1         -5.8402  -11.5240   -0.3215 O.2     1  NONAME1    -0.2696
      6 C4         -3.5357  -11.6713   -0.0210 C.ar    1  NONAME1     0.0373
      7 C5         -3.4780  -10.2737   -0.2305 C.ar    1  NONAME1    -0.0479
      8 C6         -2.2640   -9.5489   -0.2231 C.ar    1  NONAME1    -0.0398
      9 C7         -1.0538  -10.2124   -0.0478 C.ar    1  NONAME1     0.0326
     10 N2          0.1727   -9.5103   -0.1071 N.am    1  NONAME1    -0.2966
     11 C8          1.4259  -10.0488   -0.4100 C.2     1  NONAME1     0.1408
     12 S1          1.7131  -11.3370   -1.4571 S.2     1  NONAME1    -0.0182
     13 N3          2.4525   -9.3006    0.1491 N.am    1  NONAME1    -0.2676
     14 C9          3.6615   -9.8894    0.4910 C.2     1  NONAME1     0.2185
     15 O2          3.7627  -10.6865    1.4196 O.2     1  NONAME1    -0.2754
     16 C10         4.8605   -9.2967   -0.2355 C.3     1  NONAME1     0.0248
     17 C11         6.1599  -10.1061   -0.1137 C.3     1  NONAME1    -0.0347
     18 C12         6.4760  -10.9793   -1.3353 C.3     1  NONAME1     0.0454
     19 C13         5.7682  -12.3175   -1.3562 C.2     1  NONAME1     0.3071
     20 O3          5.1328  -12.7925   -0.4322 O.2     1  NONAME1    -0.2509
     21 O4          5.9711  -12.9210   -2.5612 O.3     1  NONAME1    -0.4646
     22 C14         5.3047  -14.1891   -2.6945 C.3     1  NONAME1     0.0928
     23 C15         5.6908  -14.7938   -4.0421 C.3     1  NONAME1    -0.0146
     24 C16         4.8765  -16.0437   -4.3968 C.3     1  NONAME1    -0.0246
     25 C17         3.4361  -15.8553   -4.8233 C.ar    1  NONAME1    -0.0472
     26 C18         2.8368  -14.6052   -5.0265 C.ar    1  NONAME1    -0.0586
     27 C19         1.5005  -14.5045   -5.4183 C.ar    1  NONAME1    -0.0615
     28 C20         0.7453  -15.6538   -5.6351 C.ar    1  NONAME1    -0.0617
     29 C21         1.3278  -16.9057   -5.4596 C.ar    1  NONAME1    -0.0615
     30 C22         2.6615  -17.0052   -5.0563 C.ar    1  NONAME1    -0.0586
     31 C23        -1.0967  -11.5621    0.2604 C.ar    1  NONAME1    -0.0398
     32 C24        -2.3064  -12.2680    0.2813 C.ar    1  NONAME1    -0.0479
     33 C25        -6.5099  -14.3250   -0.1641 C.ar    1  NONAME1     0.0366
     34 C26        -6.7697  -15.6613   -0.5203 C.ar    1  NONAME1    -0.0403
     35 C27        -8.0484  -16.2376   -0.4451 C.ar    1  NONAME1    -0.0600
     36 C28        -9.1378  -15.4656   -0.0802 C.ar    1  NONAME1    -0.0616
     37 C29        -8.9389  -14.1236    0.2043 C.ar    1  NONAME1    -0.0600
     38 C30        -7.6453  -13.5702    0.1773 C.ar    1  NONAME1    -0.0403
     39 H1         -4.4339  -16.2779    1.0178 H       1  NONAME1     0.0245
     40 H2         -4.0010  -17.7100    0.0000 H       1  NONAME1     0.0245
     41 H3         -2.8981  -16.2720    0.0789 H       1  NONAME1     0.0245
     42 H4         -3.3313  -14.3457   -0.8195 H       1  NONAME1     0.0466
     43 H5         -3.5914  -14.3747    0.9827 H       1  NONAME1     0.0466
     44 H6         -4.3966   -9.7174   -0.4207 H       1  NONAME1     0.0626
     45 H7         -2.2956   -8.4790   -0.4073 H       1  NONAME1     0.0636
     46 H8          0.1234   -8.5159    0.0720 H       1  NONAME1     0.1538
     47 H9          2.5450   -8.4115   -0.3189 H       1  NONAME1     0.1565
     48 H10         4.6028   -9.1258   -1.2876 H       1  NONAME1     0.0359
     49 H11         5.0232   -8.3123    0.2218 H       1  NONAME1     0.0359
     50 H12         6.9808   -9.3814   -0.0288 H       1  NONAME1     0.0275
     51 H13         6.1827  -10.7038    0.8038 H       1  NONAME1     0.0275
     52 H14         7.5491  -11.2038   -1.3300 H       1  NONAME1     0.0378
     53 H15         6.2472  -10.4354   -2.2587 H       1  NONAME1     0.0378
     54 H16         4.2252  -14.0241   -2.6242 H       1  NONAME1     0.0697
     55 H17         5.6192  -14.8601   -1.8861 H       1  NONAME1     0.0697
     56 H18         5.6323  -14.0425   -4.8391 H       1  NONAME1     0.0301
     57 H19         6.7522  -15.0736   -3.9930 H       1  NONAME1     0.0301
     58 H20         4.8983  -16.7289   -3.5404 H       1  NONAME1     0.0314
     59 H21         5.3910  -16.5496   -5.2238 H       1  NONAME1     0.0314
     60 H22         3.3900  -13.6809   -4.8776 H       1  NONAME1     0.0620
     61 H23         1.0498  -13.5243   -5.5536 H       1  NONAME1     0.0618
     62 H24        -0.2936  -15.5722   -5.9416 H       1  NONAME1     0.0618
     63 H25         0.7460  -17.8060   -5.6361 H       1  NONAME1     0.0618
     64 H26         3.0992  -17.9933   -4.9247 H       1  NONAME1     0.0620
     65 H27        -0.1940  -12.1088    0.5258 H       1  NONAME1     0.0636
     66 H28        -2.1594  -13.2984    0.5520 H       1  NONAME1     0.0626
     67 H29        -6.0063  -16.3150   -0.9167 H       1  NONAME1     0.0636
     68 H30        -8.1836  -17.2885   -0.6891 H       1  NONAME1     0.0618
     69 H31       -10.1320  -15.9012   -0.0340 H       1  NONAME1     0.0618
     70 H32        -9.7862  -13.4936    0.4633 H       1  NONAME1     0.0618
     71 H33        -7.5767  -12.5264    0.4619 H       1  NONAME1     0.0636
@<TRIPOS>BOND
     1     1     2    1
     2     2     3    1
     3     3     4   am
     4     4     5    2
     5     4     6    1
     6     6     7   ar
     7     7     8   ar
     8     8     9   ar
     9     9    10    1
    10    10    11    1
    11    11    12    2
    12    11    13    1
    13    13    14   am
    14    14    15    2
    15    14    16    1
    16    16    17    1
    17    17    18    1
    18    18    19    1
    19    19    20    2
    20    19    21    1
    21    21    22    1
    22    22    23    1
    23    23    24    1
    24    24    25    1
    25    25    26   ar
    26    26    27   ar
    27    27    28   ar
    28    28    29   ar
    29    29    30   ar
    30    25    30   ar
    31     9    31   ar
    32    31    32   ar
    33     6    32   ar
    34     3    33    1
    35    33    34   ar
    36    34    35   ar
    37    35    36   ar
    38    36    37   ar
    39    37    38   ar
    40    33    38   ar
    41     1    39    1
    42     1    40    1
    43     1    41    1
    44     2    42    1
    45     2    43    1
    46     7    44    1
    47     8    45    1
    48    10    46    1
    49    13    47    1
    50    16    48    1
    51    16    49    1
    52    17    50    1
    53    17    51    1
    54    18    52    1
    55    18    53    1
    56    22    54    1
    57    22    55    1
    58    23    56    1
    59    23    57    1
    60    24    58    1
    61    24    59    1
    62    26    60    1
    63    27    61    1
    64    28    62    1
    65    29    63    1
    66    30    64    1
    67    31    65    1
    68    32    66    1
    69    34    67    1
    70    35    68    1
    71    36    69    1
    72    37    70    1
    73    38    71    1
