REMARK  9 active torsions:
REMARK  status: ('A' for Active; 'I' for Inactive)
REMARK    1  A    between atoms: O1_2  and  C2_3 
REMARK    2  A    between atoms: C2_3  and  C3_4 
REMARK       I    between atoms: C3_4  and  N1_6 
REMARK    3  A    between atoms: N1_6  and  C4_7 
REMARK    4  A    between atoms: C8_11  and  N2_12 
REMARK       I    between atoms: N2_12  and  C9_13 
REMARK    5  A    between atoms: C9_13  and  C10_15 
REMARK    6  A    between atoms: C10_15  and  C11_16 
REMARK    7  A    between atoms: C11_16  and  C12_17 
REMARK    8  A    between atoms: C12_17  and  C13_18 
REMARK    9  A    between atoms: C13_18  and  C14_19 
ROOT
ATOM      1  N2  NON d   1       2.076  -7.367  -0.169  0.00  0.00    -0.327 N 
ATOM      2  C9  NON d   1       3.352  -6.801  -0.294  0.00  0.00     0.222 C 
ATOM      3  O3  NON d   1       3.585  -5.607  -0.474  0.00  0.00    -0.273 OA
ATOM      4  H10 NON d   1       2.016  -8.378  -0.160  0.00  0.00     0.169 HD
ENDROOT
BRANCH   1   5
ATOM      5  C8  NON d   1       0.833  -6.644  -0.120  0.00  0.00     0.036 A 
ATOM      6  C7  NON d   1       0.812  -5.253  -0.038  0.00  0.00     0.029 A 
ATOM      7  C6  NON d   1      -0.389  -4.553   0.008  0.00  0.00     0.004 A 
ATOM      8  C5  NON d   1      -1.604  -5.227  -0.015  0.00  0.00     0.029 A 
ATOM      9  C4  NON d   1      -1.668  -6.624  -0.070  0.00  0.00     0.036 A 
ATOM     10  C21 NON d   1      -0.424  -7.327  -0.126  0.00  0.00     0.059 A 
BRANCH   9  11
ATOM     11  N1  NON d   1      -2.931  -7.326  -0.084  0.00  0.00    -0.325 N 
ATOM     12  C3  NON d   1      -4.210  -6.737   0.047  0.00  0.00     0.245 C 
ATOM     13  O2  NON d   1      -4.392  -5.537   0.256  0.00  0.00    -0.271 OA
ATOM     14  H6  NON d   1      -2.886  -8.332  -0.171  0.00  0.00     0.169 HD
BRANCH  12  15
ATOM     15  C2  NON d   1      -5.452  -7.695  -0.070  0.00  0.00     0.270 C 
BRANCH  15  16
ATOM     16  O1  NON d   1      -6.668  -6.930   0.000  0.00  0.00    -0.387 OA
ATOM     17  C1  NON d   1      -8.002  -7.700   0.018  0.00  0.00     0.202 C 
ENDBRANCH  15  16
ENDBRANCH  12  15
ENDBRANCH   9  11
ENDBRANCH   1   5
BRANCH   2  18
ATOM     18  C10 NON d   1       4.525  -7.796  -0.208  0.00  0.00     0.103 C 
BRANCH  18  19
ATOM     19  C11 NON d   1       5.883  -7.056  -0.202  0.00  0.00     0.010 C 
BRANCH  19  20
ATOM     20  C12 NON d   1       7.144  -7.861   0.159  0.00  0.00     0.005 C 
BRANCH  20  21
ATOM     21  C13 NON d   1       7.744  -8.730  -0.957  0.00  0.00     0.038 C 
BRANCH  21  22
ATOM     22  C14 NON d   1       7.024 -10.004  -1.318  0.00  0.00    -0.058 A 
ATOM     23  C15 NON d   1       7.215 -10.552  -2.595  0.00  0.00     0.007 A 
ATOM     24  C16 NON d   1       6.538 -11.710  -2.985  0.00  0.00     0.007 A 
ATOM     25  C17 NON d   1       5.660 -12.347  -2.103  0.00  0.00    -0.062 A 
ATOM     26  C18 NON d   1       4.874 -13.540  -2.555  0.00  0.00     0.048 C 
ATOM     27  C19 NON d   1       5.521 -11.844  -0.808  0.00  0.00     0.007 A 
ATOM     28  C20 NON d   1       6.214 -10.699  -0.413  0.00  0.00     0.007 A 
ENDBRANCH  21  22
ENDBRANCH  20  21
ENDBRANCH  19  20
ENDBRANCH  18  19
ENDBRANCH   2  18
TORSDOF 9
