@<TRIPOS>MOLECULE
*****
 41 42 0 0 0
SMALL
USER_CHARGES

@<TRIPOS>ATOM
      1 C1          0.6294   -7.2837   -0.0582 C.3     1  NONAME1     0.0817
      2 O1          1.6711   -6.3158   -0.2136 O.3     1  NONAME1    -0.4666
      3 C2          1.2731   -5.0044   -0.1702 C.2     1  NONAME1     0.3276
      4 O2          0.0880   -4.6937   -0.1125 O.2     1  NONAME1    -0.2487
      5 C3          2.4895   -4.0173   -0.2912 C.3     1  NONAME1     0.1221
      6 C4          3.7749   -4.7258    0.2296 C.3     1  NONAME1     0.0011
      7 C5          5.1785   -4.1969    0.0017 C.ar    1  NONAME1    -0.0449
      8 C6          6.2424   -5.1132    0.1581 C.ar    1  NONAME1    -0.0551
      9 C7          7.5765   -4.7068    0.0794 C.ar    1  NONAME1    -0.0199
     10 C8          7.8614   -3.3679   -0.1415 C.ar    1  NONAME1     0.1169
     11 O3          9.1441   -2.9121   -0.1851 O.3     1  NONAME1    -0.5068
     12 C9          6.8368   -2.4506   -0.3203 C.ar    1  NONAME1    -0.0199
     13 C10         5.5007   -2.8661   -0.2664 C.ar    1  NONAME1    -0.0551
     14 N1          2.2379   -2.7523    0.4500 N.pl3   1  NONAME1    -0.3364
     15 C11         1.2037   -1.8662    0.1418 C.2     1  NONAME1     0.0074
     16 C12         1.2033   -0.5168    0.0947 C.2     1  NONAME1     0.1144
     17 C13        -0.0817    0.1667   -0.1406 C.2     1  NONAME1     0.2601
     18 O4         -1.1225   -0.4349   -0.4117 O.2     1  NONAME1    -0.2693
     19 N2          0.0000    1.5400    0.0000 N.am    1  NONAME1    -0.2232
     20 C14        -1.3337    2.3100    0.0000 C.3     1  NONAME1     0.0127
     21 C15         1.2004    2.2499   -0.0886 C.2     1  NONAME1     0.3352
     22 O5          1.1633    3.4669   -0.2944 O.2     1  NONAME1    -0.2499
     23 N3          2.3532    1.5910    0.0205 N.am    1  NONAME1    -0.1232
     24 C16         2.4318    0.2916    0.2902 C.2     1  NONAME1     0.2776
     25 O6          3.4765   -0.2712    0.6210 O.2     1  NONAME1    -0.2677
     26 H1         -0.1433   -6.9569    0.6449 H       1  NONAME1     0.0661
     27 H2          0.1922   -7.5081   -1.0348 H       1  NONAME1     0.0661
     28 H3          1.0798   -8.1966    0.3416 H       1  NONAME1     0.0661
     29 H4          2.6118   -3.7903   -1.3566 H       1  NONAME1     0.0617
     30 H5          3.8057   -5.7200   -0.2344 H       1  NONAME1     0.0337
     31 H6          3.6642   -4.8900    1.3090 H       1  NONAME1     0.0337
     32 H7          6.0306   -6.1625    0.3579 H       1  NONAME1     0.0621
     33 H8          8.3650   -5.4405    0.2042 H       1  NONAME1     0.0654
     34 H9          9.7358   -3.6480    0.0383 H       1  NONAME1     0.2921
     35 H10         7.0634   -1.3991   -0.4797 H       1  NONAME1     0.0654
     36 H11         4.7434   -2.1040   -0.4188 H       1  NONAME1     0.0621
     37 H12         3.0808   -2.1938    0.6392 H       1  NONAME1     0.1464
     38 H13         0.2663   -2.3839   -0.0469 H       1  NONAME1     0.0787
     39 H14        -0.9714    3.1416    0.6343 H       1  NONAME1     0.0434
     40 H15        -2.6674    3.0800    0.0000 H       1  NONAME1     0.0434
     41 H16        -1.8560    1.6038    0.6751 H       1  NONAME1     0.0434
@<TRIPOS>BOND
     1     1     2    1
     2     2     3    1
     3     3     4    2
     4     5     3    1
     5     5     6    1
     6     6     7    1
     7     7     8   ar
     8     8     9   ar
     9     9    10   ar
    10    10    11    1
    11    10    12   ar
    12    12    13   ar
    13     7    13   ar
    14     5    14    1
    15    15    14    1
    16    16    15    2
    17    16    17    1
    18    17    18    2
    19    17    19   am
    20    19    20    1
    21    19    21   am
    22    21    22    2
    23    21    23   am
    24    23    24   am
    25    16    24    1
    26    24    25    2
    27     1    26    1
    28     1    27    1
    29     1    28    1
    30     5    29    1
    31     6    30    1
    32     6    31    1
    33     8    32    1
    34     9    33    1
    35    11    34    1
    36    12    35    1
    37    13    36    1
    38    14    37    1
    39    15    38    1
    40    20    39    1
    41    20    40    1
    42    20    41    1
