REMARK  8 active torsions:
REMARK  status: ('A' for Active; 'I' for Inactive)
REMARK    1  A    between atoms: C2_2  and  O1_3 
REMARK    2  A    between atoms: O1_3  and  C3_4 
REMARK    3  A    between atoms: C3_4  and  C4_6 
REMARK    4  A    between atoms: C7_9  and  N1_10 
REMARK       I    between atoms: N1_10  and  C8_11 
REMARK    5  A    between atoms: C8_11  and  C9_13 
REMARK    6  A    between atoms: C9_13  and  S1_14 
REMARK    7  A    between atoms: S1_14  and  C10_15 
REMARK    8  A    between atoms: C12_17  and  C13_18 
ROOT
ATOM      1  N1  NON d   1      -4.372  -8.129  -0.027  0.00  0.00    -0.327 N 
ATOM      2  C8  NON d   1      -3.130  -7.517   0.219  0.00  0.00     0.231 C 
ATOM      3  O3  NON d   1      -3.015  -6.354   0.606  0.00  0.00    -0.272 OA
ATOM      4  H8  NON d   1      -4.375  -9.133  -0.159  0.00  0.00     0.169 HD
ENDROOT
BRANCH   2   5
ATOM      5  C9  NON d   1      -1.870  -8.424   0.042  0.00  0.00     0.184 C 
BRANCH   5   6
ATOM      6  S1  NON d   1      -0.456  -7.385  -0.567  0.00  0.00    -0.101 SA
BRANCH   6   7
ATOM      7  C10 NON d   1       1.044  -8.320  -0.222  0.00  0.00     0.097 A 
ATOM      8  C11 NON d   1       2.245  -7.613  -0.192  0.00  0.00     0.071 A 
ATOM      9  C12 NON d   1       3.432  -8.322  -0.046  0.00  0.00     0.071 A 
ATOM     10  N2  NON d   1       3.394  -9.667   0.061  0.00  0.00    -0.241 NA
ATOM     11  C19 NON d   1       2.185 -10.258   0.021  0.00  0.00     0.234 A 
ATOM     12  N3  NON d   1       0.988  -9.654  -0.113  0.00  0.00    -0.235 NA
BRANCH   9  13
ATOM     13  C13 NON d   1       4.794  -7.695  -0.025  0.00  0.00    -0.007 A 
ATOM     14  C14 NON d   1       4.996  -6.300   0.010  0.00  0.00     0.014 A 
ATOM     15  C15 NON d   1       6.278  -5.729   0.014  0.00  0.00     0.001 A 
ATOM     16  C16 NON d   1       7.408  -6.537  -0.012  0.00  0.00     0.000 A 
ATOM     17  C17 NON d   1       7.253  -7.918  -0.039  0.00  0.00     0.001 A 
ATOM     18  C18 NON d   1       5.968  -8.483  -0.044  0.00  0.00     0.014 A 
ENDBRANCH   9  13
ENDBRANCH   6   7
ENDBRANCH   5   6
ENDBRANCH   2   5
BRANCH   1  19
ATOM     19  C7  NON d   1      -5.663  -7.489  -0.016  0.00  0.00     0.034 A 
ATOM     20  C6  NON d   1      -5.837  -6.106   0.030  0.00  0.00     0.030 A 
ATOM     21  C5  NON d   1      -7.128  -5.523   0.021  0.00  0.00     0.020 A 
ATOM     22  C4  NON d   1      -8.311  -6.288  -0.031  0.00  0.00     0.039 A 
ATOM     23  C21 NON d   1      -8.150  -7.674  -0.081  0.00  0.00     0.020 A 
ATOM     24  C20 NON d   1      -6.843  -8.262  -0.081  0.00  0.00     0.030 A 
BRANCH  22  25
ATOM     25  C3  NON d   1      -9.628  -5.527  -0.027  0.00  0.00     0.293 C 
ATOM     26  O2  NON d   1      -9.614  -4.299  -0.007  0.00  0.00    -0.259 OA
BRANCH  25  27
ATOM     27  O1  NON d   1     -10.800  -6.252  -0.039  0.00  0.00    -0.318 OA
BRANCH  27  28
ATOM     28  C2  NON d   1     -12.003  -5.390   0.000  0.00  0.00     0.174 C 
ATOM     29  C1  NON d   1     -13.337  -6.160   0.000  0.00  0.00     0.034 C 
ENDBRANCH  27  28
ENDBRANCH  25  27
ENDBRANCH  22  25
ENDBRANCH   1  19
TORSDOF 8
