@<TRIPOS>MOLECULE
*****
 58 60 0 0 0
SMALL
USER_CHARGES

@<TRIPOS>ATOM
      1 C1        -15.0885  -12.2682   -0.1902 C.3     1  NONAME1    -0.0494
      2 C2        -13.7418  -11.5651   -0.1162 C.3     1  NONAME1     0.0093
      3 N1        -13.7546  -10.0759   -0.0662 N.pl3   1  NONAME1    -0.3304
      4 C3        -15.1211   -9.4464    0.0000 C.3     1  NONAME1     0.0093
      5 C4        -15.1211   -7.9064    0.0000 C.3     1  NONAME1    -0.0494
      6 C5        -12.4769   -9.4777   -0.0320 C.ar    1  NONAME1     0.0298
      7 C6        -12.1995   -8.1055   -0.1288 C.ar    1  NONAME1    -0.0389
      8 C7        -10.8859   -7.5553   -0.0570 C.ar    1  NONAME1    -0.0387
      9 C8         -9.7608   -8.3673    0.0673 C.ar    1  NONAME1     0.0335
     10 N2         -8.4719   -7.7816    0.1389 N.am    1  NONAME1    -0.2848
     11 C9         -7.2462   -8.4497    0.0303 C.2     1  NONAME1     0.2275
     12 O1         -7.1291   -9.6344   -0.2684 O.2     1  NONAME1    -0.2746
     13 C10        -6.0445   -7.5214    0.2511 C.3     1  NONAME1     0.0780
     14 S1         -4.4569   -8.2830   -0.2191 S.3     1  NONAME1    -0.0749
     15 C11        -4.0167   -9.1243    1.2518 C.ar    1  NONAME1     0.2128
     16 N3         -4.6182   -8.9606    2.4420 N.ar    1  NONAME1    -0.1190
     17 N4         -3.9038   -9.6911    3.3443 N.ar    1  NONAME1    -0.1090
     18 C12        -2.9052  -10.2621    2.6617 C.ar    1  NONAME1     0.2553
     19 N5         -1.9771  -11.0887    3.2548 N.pl3   1  NONAME1    -0.2265
     20 N6         -1.0194  -11.5677    2.5830 N.2     1  NONAME1    -0.3079
     21 C13        -0.1540  -12.4410    2.9879 C.2     1  NONAME1     0.0347
     22 C14         1.0380  -12.5619    2.0504 C.3     1  NONAME1    -0.0226
     23 C15        -0.1911  -13.3057    4.2297 C.ar    1  NONAME1    -0.0049
     24 C16        -1.3332  -13.4558    5.0325 C.ar    1  NONAME1    -0.0529
     25 C17        -1.3074  -14.2420    6.1931 C.ar    1  NONAME1    -0.0611
     26 C18        -0.1610  -14.9447    6.5424 C.ar    1  NONAME1    -0.0617
     27 C19         0.9602  -14.8682    5.7266 C.ar    1  NONAME1    -0.0611
     28 C20         0.9478  -14.0540    4.5861 C.ar    1  NONAME1    -0.0529
     29 N7         -2.9195   -9.9002    1.3717 N.ar    1  NONAME1    -0.1848
     30 C21        -9.9868   -9.7292    0.1357 C.ar    1  NONAME1    -0.0387
     31 C22       -11.2985  -10.2530    0.0916 C.ar    1  NONAME1    -0.0389
     32 H1        -15.6706  -11.9536   -1.0602 H       1  NONAME1     0.0245
     33 H2        -15.6773  -12.0985    0.7161 H       1  NONAME1     0.0245
     34 H3        -14.9288  -13.3487   -0.2773 H       1  NONAME1     0.0245
     35 H4        -13.2478  -11.9519    0.7840 H       1  NONAME1     0.0461
     36 H5        -13.1716  -11.8838   -0.9990 H       1  NONAME1     0.0461
     37 H6        -15.6484   -9.8159    0.8879 H       1  NONAME1     0.0461
     38 H7        -15.6726   -9.7624   -0.8928 H       1  NONAME1     0.0461
     39 H8        -14.8425   -7.8059    1.0713 H       1  NONAME1     0.0245
     40 H9        -15.1211   -6.3664    0.0000 H       1  NONAME1     0.0245
     41 H10       -16.2247   -7.8087   -0.0703 H       1  NONAME1     0.0245
     42 H11       -12.9751   -7.3729   -0.2899 H       1  NONAME1     0.0637
     43 H12       -10.7799   -6.4750   -0.1274 H       1  NONAME1     0.0637
     44 H13        -8.4418   -6.7719    0.2193 H       1  NONAME1     0.1548
     45 H14        -6.0424   -7.1542    1.2817 H       1  NONAME1     0.0475
     46 H15        -6.1737   -6.6486   -0.4000 H       1  NONAME1     0.0475
     47 H16        -2.0725  -11.1207    4.2616 H       1  NONAME1     0.1753
     48 H17        -0.9534  -11.1732    1.6249 H       1  NONAME1     0.1841
     49 H18         1.0057  -11.8488    1.2206 H       1  NONAME1     0.0292
     50 H19         1.0855  -13.5734    1.6363 H       1  NONAME1     0.0292
     51 H20         1.9617  -12.3533    2.6027 H       1  NONAME1     0.0292
     52 H21        -2.2935  -13.0133    4.7903 H       1  NONAME1     0.0624
     53 H22        -2.1980  -14.3168    6.8156 H       1  NONAME1     0.0618
     54 H23        -0.1498  -15.5655    7.4360 H       1  NONAME1     0.0618
     55 H24         1.8486  -15.4457    5.9769 H       1  NONAME1     0.0618
     56 H25         1.8574  -14.0452    3.9916 H       1  NONAME1     0.0624
     57 H26        -9.1704  -10.4347    0.2521 H       1  NONAME1     0.0637
     58 H27       -11.3323  -11.3366    0.1707 H       1  NONAME1     0.0637
@<TRIPOS>BOND
     1     1     2    1
     2     2     3    1
     3     3     4    1
     4     4     5    1
     5     3     6    1
     6     6     7   ar
     7     7     8   ar
     8     8     9   ar
     9     9    10    1
    10    10    11   am
    11    11    12    2
    12    11    13    1
    13    13    14    1
    14    14    15    1
    15    15    16   ar
    16    16    17   ar
    17    17    18   ar
    18    18    19    1
    19    20    19    1
    20    20    21    2
    21    21    22    1
    22    21    23    1
    23    23    24   ar
    24    24    25   ar
    25    25    26   ar
    26    26    27   ar
    27    27    28   ar
    28    23    28   ar
    29    18    29   ar
    30    15    29   ar
    31     9    30   ar
    32    30    31   ar
    33     6    31   ar
    34     1    32    1
    35     1    33    1
    36     1    34    1
    37     2    35    1
    38     2    36    1
    39     4    37    1
    40     4    38    1
    41     5    39    1
    42     5    40    1
    43     5    41    1
    44     7    42    1
    45     8    43    1
    46    10    44    1
    47    13    45    1
    48    13    46    1
    49    19    47    1
    50    20    48    1
    51    22    49    1
    52    22    50    1
    53    22    51    1
    54    24    52    1
    55    25    53    1
    56    26    54    1
    57    27    55    1
    58    28    56    1
    59    30    57    1
    60    31    58    1
