@<TRIPOS>MOLECULE
*****
 19 20 0 0 0
SMALL
USER_CHARGES

@<TRIPOS>ATOM
      1 O1          0.5111   -3.0443   -0.0930 O.2     1  NONAME1    -0.2717
      2 C1          1.5640   -2.4108   -0.0592 C.2     1  NONAME1     0.2549
      3 C2          1.6156   -0.8843   -0.0026 C.3     1  NONAME1     0.1656
      4 O2          2.8441   -0.1818    0.0785 O.3     1  NONAME1    -0.4808
      5 C3          3.9727   -0.9485    0.0358 C.ar    1  NONAME1     0.1458
      6 C4          5.1846   -0.2603    0.0794 C.ar    1  NONAME1     0.0234
      7 C5          6.3821   -0.9675    0.0460 C.ar    1  NONAME1     0.1205
      8 O3          7.5426   -0.2533    0.0900 O.3     1  NONAME1    -0.5066
      9 C6          6.3903   -2.3575   -0.0292 C.ar    1  NONAME1    -0.0182
     10 C7          5.1776   -3.0491   -0.0717 C.ar    1  NONAME1    -0.0334
     11 C8          3.9727   -2.3428   -0.0396 C.ar    1  NONAME1     0.0759
     12 N1          2.7714   -3.0458   -0.0801 N.am    1  NONAME1    -0.2798
     13 H1          1.0204   -0.5827    0.8670 H       1  NONAME1     0.0795
     14 H2          1.0971   -0.5191   -0.8967 H       1  NONAME1     0.0795
     15 H3          5.1956    0.8241    0.1396 H       1  NONAME1     0.0691
     16 H4          8.2938   -0.8681    0.0597 H       1  NONAME1     0.2921
     17 H5          7.3219   -2.9142   -0.0547 H       1  NONAME1     0.0655
     18 H6          5.1861   -4.1341   -0.1294 H       1  NONAME1     0.0638
     19 H7          2.7545   -4.0555   -0.1256 H       1  NONAME1     0.1550
@<TRIPOS>BOND
     1     1     2    2
     2     2     3    1
     3     3     4    1
     4     4     5    1
     5     5     6   ar
     6     6     7   ar
     7     7     8    1
     8     7     9   ar
     9     9    10   ar
    10    10    11   ar
    11     5    11   ar
    12    11    12    1
    13     2    12   am
    14     3    13    1
    15     3    14    1
    16     6    15    1
    17     8    16    1
    18     9    17    1
    19    10    18    1
    20    12    19    1
