REMARK  10 active torsions:
REMARK  status: ('A' for Active; 'I' for Inactive)
REMARK    1  A    between atoms: O1_2  and  C2_3 
REMARK    2  A    between atoms: C5_6  and  C6_7 
REMARK    3  A    between atoms: C6_7  and  O2_8 
REMARK    4  A    between atoms: C6_7  and  C18_27 
REMARK    5  A    between atoms: C6_7  and  C24_33 
REMARK    6  A    between atoms: O2_8  and  C7_9 
REMARK    7  A    between atoms: C8_10  and  C7_9 
REMARK    8  A    between atoms: C9_12  and  N1_13 
REMARK    9  A    between atoms: C17_25  and  O6_26 
REMARK   10  A    between atoms: C27_36  and  O7_37 
ROOT
ATOM      1  C6  NON d   1      -2.146  -9.371   0.000  0.00  0.00     0.142 C 
ENDROOT
BRANCH   1   2
ATOM      2  C5  NON d   1      -3.392 -10.276   0.000  0.00  0.00    -0.014 C 
ATOM      3  C4  NON d   1      -4.699 -10.111   0.524  0.00  0.00     0.013 C 
ATOM      4  C3  NON d   1      -5.770 -11.050   0.409  0.00  0.00     0.037 C 
ATOM      5  C2  NON d   1      -5.574 -12.354  -0.003  0.00  0.00     0.068 C 
ATOM      6  C32 NON d   1      -4.311 -12.653  -0.442  0.00  0.00     0.037 C 
ATOM      7  C31 NON d   1      -3.318 -11.628  -0.529  0.00  0.00     0.013 C 
BRANCH   5   8
ATOM      8  O1  NON d   1      -6.671 -13.150   0.084  0.00  0.00    -0.356 OA
ATOM      9  C1  NON d   1      -6.585 -14.547  -0.160  0.00  0.00     0.210 C 
ENDBRANCH   5   8
ENDBRANCH   1   2
BRANCH   1  10
ATOM     10  O2  NON d   1      -0.900  -8.466   0.000  0.00  0.00    -0.363 OA
BRANCH  10  11
ATOM     11  C7  NON d   1      -0.564  -7.572   1.193  0.00  0.00     0.204 C 
BRANCH  11  12
ATOM     12  C8  NON d   1      -1.528  -6.812   2.288  0.00  0.00     0.176 C 
ATOM     13  O3  NON d   1      -1.127  -5.450   2.902  0.00  0.00    -0.356 OA
ATOM     14  C9  NON d   1      -2.315  -4.547   2.758  0.00  0.00     0.232 C 
ATOM     15  C16 NON d   1      -3.470  -5.519   2.725  0.00  0.00     0.088 C 
ATOM     16  C17 NON d   1      -2.883  -6.491   1.765  0.00  0.00     0.153 C 
BRANCH  14  17
ATOM     17  N1  NON d   1      -2.607  -3.458   3.719  0.00  0.00    -0.315 N 
ATOM     18  C10 NON d   1      -1.861  -3.019   4.773  0.00  0.00     0.096 A 
ATOM     19  C11 NON d   1      -2.522  -1.951   5.390  0.00  0.00     0.038 A 
ATOM     20  C12 NON d   1      -3.726  -1.740   4.670  0.00  0.00     0.078 A 
ATOM     21  C13 NON d   1      -4.795  -0.768   4.852  0.00  0.00     0.263 A 
ATOM     22  C15 NON d   1      -3.742  -2.638   3.645  0.00  0.00     0.129 A 
ATOM     23  O4  NON d   1      -4.810   0.074   5.749  0.00  0.00    -0.267 OA
ATOM     24  N2  NON d   1      -5.816  -0.846   3.944  0.00  0.00    -0.275 N 
ATOM     25  C14 NON d   1      -5.890  -1.696   2.901  0.00  0.00     0.328 A 
ATOM     26  H12 NON d   1      -6.564  -0.183   4.062  0.00  0.00     0.173 HD
ATOM     27  O5  NON d   1      -6.773  -1.780   2.059  0.00  0.00    -0.247 OA
ATOM     28  N3  NON d   1      -4.796  -2.609   2.747  0.00  0.00    -0.293 N 
ATOM     29  H13 NON d   1      -4.847  -3.217   1.942  0.00  0.00     0.172 HD
ENDBRANCH  14  17
BRANCH  16  30
ATOM     30  O6  NON d   1      -2.665  -5.764   0.566  0.00  0.00    -0.393 OA
ATOM     31  H17 NON d   1      -3.503  -5.444   0.212  0.00  0.00     0.210 HD
ENDBRANCH  16  30
ENDBRANCH  11  12
ENDBRANCH  10  11
ENDBRANCH   1  10
BRANCH   1  32
ATOM     32  C18 NON d   1      -0.992 -10.447  -0.062  0.00  0.00    -0.015 A 
ATOM     33  C19 NON d   1      -0.042 -10.607  -1.089  0.00  0.00     0.011 A 
ATOM     34  C20 NON d   1       0.931 -11.613  -1.005  0.00  0.00     0.001 A 
ATOM     35  C21 NON d   1       0.939 -12.516   0.062  0.00  0.00     0.000 A 
ATOM     36  C22 NON d   1       0.029 -12.371   1.100  0.00  0.00     0.001 A 
ATOM     37  C23 NON d   1      -0.878 -11.314   1.071  0.00  0.00     0.011 A 
ENDBRANCH   1  32
BRANCH   1  38
ATOM     38  C24 NON d   1      -2.820  -8.255  -1.087  0.00  0.00    -0.014 C 
ATOM     39  C25 NON d   1      -4.089  -7.662  -0.746  0.00  0.00     0.013 C 
ATOM     40  C26 NON d   1      -4.758  -6.581  -1.329  0.00  0.00     0.037 C 
ATOM     41  C27 NON d   1      -4.059  -5.846  -2.238  0.00  0.00     0.068 C 
ATOM     42  C29 NON d   1      -2.842  -6.379  -2.704  0.00  0.00     0.037 C 
ATOM     43  C30 NON d   1      -2.235  -7.578  -2.163  0.00  0.00     0.013 C 
BRANCH  41  44
ATOM     44  O7  NON d   1      -4.476  -4.596  -2.619  0.00  0.00    -0.356 OA
ATOM     45  C28 NON d   1      -4.886  -3.748  -1.530  0.00  0.00     0.210 C 
ENDBRANCH  41  44
ENDBRANCH   1  38
TORSDOF 10
