@<TRIPOS>MOLECULE
*****
 52 53 0 0 0
SMALL
USER_CHARGES

@<TRIPOS>ATOM
      1 C1         -8.0020   -7.6999    0.0183 C.3     1  NONAME1     0.0371
      2 O1         -6.6684   -6.9300    0.0000 O.3     1  NONAME1    -0.3738
      3 C2         -5.4521   -7.6946   -0.0704 C.3     1  NONAME1     0.1236
      4 C3         -4.2097   -6.7367    0.0467 C.2     1  NONAME1     0.2430
      5 O2         -4.3921   -5.5365    0.2556 O.2     1  NONAME1    -0.2729
      6 N1         -2.9314   -7.3257   -0.0842 N.am    1  NONAME1    -0.2835
      7 C4         -1.6676   -6.6236   -0.0705 C.ar    1  NONAME1     0.0352
      8 C5         -1.6037   -5.2273   -0.0155 C.ar    1  NONAME1    -0.0404
      9 C6         -0.3894   -4.5534    0.0076 C.ar    1  NONAME1    -0.0583
     10 C7          0.8124   -5.2530   -0.0380 C.ar    1  NONAME1    -0.0404
     11 C8          0.8328   -6.6443   -0.1199 C.ar    1  NONAME1     0.0351
     12 N2          2.0764   -7.3668   -0.1693 N.am    1  NONAME1    -0.2854
     13 C9          3.3517   -6.8010   -0.2944 C.2     1  NONAME1     0.2172
     14 O3          3.5849   -5.6075   -0.4739 O.2     1  NONAME1    -0.2755
     15 C10         4.5248   -7.7964   -0.2081 C.3     1  NONAME1     0.0243
     16 C11         5.8831   -7.0556   -0.2017 C.3     1  NONAME1    -0.0445
     17 C12         7.1437   -7.8606    0.1594 C.3     1  NONAME1    -0.0486
     18 C13         7.7436   -8.7297   -0.9566 C.3     1  NONAME1    -0.0277
     19 C14         7.0238  -10.0044   -1.3179 C.ar    1  NONAME1    -0.0473
     20 C15         7.2147  -10.5520   -2.5951 C.ar    1  NONAME1    -0.0583
     21 C16         6.5378  -11.7097   -2.9854 C.ar    1  NONAME1    -0.0586
     22 C17         5.6602  -12.3465   -2.1033 C.ar    1  NONAME1    -0.0504
     23 C18         4.8738  -13.5396   -2.5550 C.3     1  NONAME1    -0.0397
     24 C19         5.5209  -11.8444   -0.8076 C.ar    1  NONAME1    -0.0586
     25 C20         6.2137  -10.6991   -0.4133 C.ar    1  NONAME1    -0.0583
     26 C21        -0.4242   -7.3269   -0.1259 C.ar    1  NONAME1    -0.0192
     27 H1         -8.5997   -6.7824    0.1572 H       1  NONAME1     0.0524
     28 H2         -9.3357   -8.4698    0.0366 H       1  NONAME1     0.0524
     29 H3         -7.8177   -8.1433    1.0135 H       1  NONAME1     0.0524
     30 H4         -5.4170   -8.4056    0.7603 H       1  NONAME1     0.0656
     31 H5         -5.4109   -8.2178   -1.0299 H       1  NONAME1     0.0656
     32 H6         -2.8856   -8.3315   -0.1711 H       1  NONAME1     0.1549
     33 H7         -2.4895   -4.6058    0.0099 H       1  NONAME1     0.0636
     34 H8         -0.3727   -3.4663    0.0587 H       1  NONAME1     0.0619
     35 H9          1.7160   -4.6555    0.0001 H       1  NONAME1     0.0636
     36 H10         2.0161   -8.3778   -0.1601 H       1  NONAME1     0.1548
     37 H11         4.4155   -8.3800    0.7120 H       1  NONAME1     0.0358
     38 H12         4.4650   -8.4643   -1.0722 H       1  NONAME1     0.0358
     39 H13         5.8205   -6.2466    0.5398 H       1  NONAME1     0.0270
     40 H14         6.0351   -6.5595   -1.1690 H       1  NONAME1     0.0270
     41 H15         6.9892   -8.4303    1.0809 H       1  NONAME1     0.0269
     42 H16         7.9204   -7.1211    0.4067 H       1  NONAME1     0.0269
     43 H17         8.7628   -9.0131   -0.6592 H       1  NONAME1     0.0313
     44 H18         7.8482   -8.1080   -1.8562 H       1  NONAME1     0.0313
     45 H19         7.8893  -10.0734   -3.3027 H       1  NONAME1     0.0620
     46 H20         6.6912  -12.1038   -3.9874 H       1  NONAME1     0.0620
     47 H21         4.2469  -13.9333   -1.7481 H       1  NONAME1     0.0278
     48 H22         4.2132  -13.2555   -3.3809 H       1  NONAME1     0.0278
     49 H23         5.5443  -14.3382   -2.8843 H       1  NONAME1     0.0278
     50 H24         4.8654  -12.3353   -0.0924 H       1  NONAME1     0.0620
     51 H25         6.0892  -10.3519    0.6079 H       1  NONAME1     0.0620
     52 H26        -0.4320   -8.4123   -0.1733 H       1  NONAME1     0.0655
@<TRIPOS>BOND
     1     1     2    1
     2     2     3    1
     3     3     4    1
     4     4     5    2
     5     4     6   am
     6     6     7    1
     7     7     8   ar
     8     8     9   ar
     9     9    10   ar
    10    10    11   ar
    11    11    12    1
    12    12    13   am
    13    13    14    2
    14    13    15    1
    15    15    16    1
    16    16    17    1
    17    17    18    1
    18    18    19    1
    19    19    20   ar
    20    20    21   ar
    21    21    22   ar
    22    22    23    1
    23    22    24   ar
    24    24    25   ar
    25    19    25   ar
    26    11    26   ar
    27     7    26   ar
    28     1    27    1
    29     1    28    1
    30     1    29    1
    31     3    30    1
    32     3    31    1
    33     6    32    1
    34     8    33    1
    35     9    34    1
    36    10    35    1
    37    12    36    1
    38    15    37    1
    39    15    38    1
    40    16    39    1
    41    16    40    1
    42    17    41    1
    43    17    42    1
    44    18    43    1
    45    18    44    1
    46    20    45    1
    47    21    46    1
    48    23    47    1
    49    23    48    1
    50    23    49    1
    51    24    50    1
    52    25    51    1
    53    26    52    1
