@<TRIPOS>MOLECULE
*****
 44 47 0 0 0
SMALL
USER_CHARGES

@<TRIPOS>ATOM
      1 C1          1.7832   -3.6831    0.0490 C.3     1  NONAME1     0.0309
      2 N1          2.1791   -2.2944    0.0368 N.ar    1  NONAME1    -0.2650
      3 N2          1.2278   -1.3470    0.0517 N.ar    1  NONAME1    -0.1550
      4 C2          1.8960   -0.1941    0.0240 C.ar    1  NONAME1     0.1546
      5 N3          1.2980    1.0577    0.0293 N.am    1  NONAME1    -0.2670
      6 C3         -0.0745    1.2779    0.0701 C.2     1  NONAME1     0.2398
      7 O1         -0.9427    0.4106    0.1036 O.2     1  NONAME1    -0.2734
      8 C4         -0.4007    2.7628    0.0875 C.3     1  NONAME1     0.1179
      9 N4         -1.8113    3.1232   -0.0355 N.ar    1  NONAME1    -0.2620
     10 C5         -2.9318    2.4323    0.3437 C.ar    1  NONAME1     0.0338
     11 C6         -4.0256    3.1633   -0.0777 C.ar    1  NONAME1     0.0227
     12 C7         -5.4033    2.6875   -0.0146 C.ar    1  NONAME1     0.0216
     13 C8         -5.6308    1.3099   -0.1326 C.ar    1  NONAME1     0.0112
     14 N5         -6.8776    0.8167   -0.1668 N.ar    1  NONAME1    -0.3663
     15 C9         -7.9576    1.6049   -0.1214 C.ar    1  NONAME1     0.0034
     16 C10        -7.8019    2.9788   -0.0035 C.ar    1  NONAME1    -0.0245
     17 C11        -6.5217    3.5372    0.1121 C.ar    1  NONAME1     0.0352
     18 N6         -6.4226    4.9346    0.1409 N.pl3   1  NONAME1    -0.3574
     19 C12        -3.4506    4.3459   -0.5941 C.ar    1  NONAME1     0.0572
     20 N7         -2.1171    4.3419   -0.5319 N.ar    1  NONAME1    -0.1786
     21 C13         3.3081   -0.4177   -0.0138 C.ar    1  NONAME1     0.0417
     22 C14         4.4668    0.3871   -0.0560 C.ar    1  NONAME1    -0.0492
     23 C15         5.7263   -0.2280   -0.0910 C.ar    1  NONAME1    -0.0610
     24 C16         5.8440   -1.6162   -0.0870 C.ar    1  NONAME1    -0.0597
     25 C17         4.7110   -2.4336   -0.0464 C.ar    1  NONAME1    -0.0360
     26 C18         3.4585   -1.8026   -0.0081 C.ar    1  NONAME1     0.0705
     27 H1          0.7908   -3.7701    0.4988 H       1  NONAME1     0.0473
     28 H2          1.7646   -4.0376   -0.9843 H       1  NONAME1     0.0473
     29 H3          2.5003   -4.2568    0.6411 H       1  NONAME1     0.0473
     30 H4          1.9381    1.8395   -0.0025 H       1  NONAME1     0.1563
     31 H5          0.1128    3.2322   -0.7609 H       1  NONAME1     0.0605
     32 H6         -0.0443    3.2087    1.0213 H       1  NONAME1     0.0605
     33 H7         -2.8503    1.4681    0.8257 H       1  NONAME1     0.0832
     34 H8         -4.8372    0.5760   -0.2325 H       1  NONAME1     0.0813
     35 H9         -7.0020   -0.1933   -0.2562 H       1  NONAME1     0.1648
     36 H10        -8.9262    1.1208   -0.1915 H       1  NONAME1     0.0807
     37 H11        -8.6849    3.6152    0.0056 H       1  NONAME1     0.0651
     38 H12        -5.5899    5.2934    0.6064 H       1  NONAME1     0.1423
     39 H13        -7.2493    5.4393    0.4527 H       1  NONAME1     0.1423
     40 H14        -3.9392    5.2093   -1.0293 H       1  NONAME1     0.0854
     41 H15         4.3991    1.4699   -0.0625 H       1  NONAME1     0.0625
     42 H16         6.6236    0.3860   -0.1231 H       1  NONAME1     0.0618
     43 H17         6.8315   -2.0732   -0.1156 H       1  NONAME1     0.0618
     44 H18         4.8085   -3.5147   -0.0446 H       1  NONAME1     0.0639
@<TRIPOS>BOND
     1     1     2    1
     2     2     3   ar
     3     3     4   ar
     4     4     5    1
     5     5     6   am
     6     6     7    2
     7     6     8    1
     8     8     9    1
     9     9    10   ar
    10    10    11   ar
    11    11    12    1
    12    12    13   ar
    13    13    14   ar
    14    14    15   ar
    15    15    16   ar
    16    16    17   ar
    17    12    17   ar
    18    17    18    1
    19    11    19   ar
    20    19    20   ar
    21     9    20   ar
    22     4    21   ar
    23    21    22   ar
    24    22    23   ar
    25    23    24   ar
    26    24    25   ar
    27    25    26   ar
    28    21    26   ar
    29     2    26   ar
    30     1    27    1
    31     1    28    1
    32     1    29    1
    33     5    30    1
    34     8    31    1
    35     8    32    1
    36    10    33    1
    37    13    34    1
    38    14    35    1
    39    15    36    1
    40    16    37    1
    41    18    38    1
    42    18    39    1
    43    19    40    1
    44    22    41    1
    45    23    42    1
    46    24    43    1
    47    25    44    1
