REMARK  10 active torsions:
REMARK  status: ('A' for Active; 'I' for Inactive)
REMARK    1  A    between atoms: C4_4  and  C5_5 
REMARK    2  A    between atoms: C5_5  and  C6_6 
REMARK    3  A    between atoms: C7_8  and  C6_6 
REMARK    4  A    between atoms: C7_8  and  C9_10 
REMARK    5  A    between atoms: C9_10  and  C10_11 
REMARK    6  A    between atoms: C10_11  and  C11_12 
REMARK    7  A    between atoms: C13_14  and  C14_15 
REMARK    8  A    between atoms: C16_19  and  C17_20 
REMARK    9  A    between atoms: C17_20  and  C18_21 
REMARK   10  A    between atoms: C22_25  and  O4_26 
ROOT
ATOM      1  C11 NON d   1       5.413  -6.254   0.011  0.00  0.00    -0.023 A 
ATOM      2  C12 NON d   1       5.481  -4.859  -0.049  0.00  0.00     0.028 A 
ATOM      3  C13 NON d   1       6.717  -4.164  -0.118  0.00  0.00     0.042 A 
ATOM      4  C15 NON d   1       7.936  -4.888  -0.106  0.00  0.00     0.028 A 
ATOM      5  C16 NON d   1       7.979  -6.285  -0.039  0.00  0.00    -0.020 A 
ATOM      6  C22 NON d   1       6.682  -6.940   0.011  0.00  0.00     0.078 A 
ENDROOT
BRANCH   1   7
ATOM      7  C10 NON d   1       4.029  -6.987   0.084  0.00  0.00     0.042 C 
BRANCH   7   8
ATOM      8  C9  NON d   1       2.667  -6.160   0.000  0.00  0.00     0.016 C 
BRANCH   8   9
ATOM      9  C7  NON d   1       1.334  -6.930   0.018  0.00  0.00     0.052 C 
ATOM     10  C8  NON d   1       0.332  -6.762  -1.139  0.00  0.00     0.018 C 
BRANCH   9  11
ATOM     11  C6  NON d   1       0.768  -7.026   1.583  0.00  0.00     0.134 C 
ATOM     12  O1  NON d   1       1.261  -6.354   2.496  0.00  0.00    -0.297 OA
BRANCH  11  13
ATOM     13  C5  NON d   1      -0.571  -8.005   1.919  0.00  0.00     0.106 C 
BRANCH  13  14
ATOM     14  C4  NON d   1      -0.662  -9.160   2.880  0.00  0.00    -0.017 C 
ATOM     15  C2  NON d   1       0.339  -9.743   3.546  0.00  0.00    -0.091 C 
ATOM     16  C1  NON d   1       0.175 -10.912   4.467  0.00  0.00     0.042 C 
ATOM     17  C3  NON d   1       1.672  -8.973   3.527  0.00  0.00     0.042 C 
ENDBRANCH  13  14
ENDBRANCH  11  13
ENDBRANCH   9  11
ENDBRANCH   8   9
ENDBRANCH   7   8
ENDBRANCH   1   7
BRANCH   6  18
ATOM     18  O4  NON d   1       6.606  -8.319   0.057  0.00  0.00    -0.360 OA
ATOM     19  H29 NON d   1       7.505  -8.672   0.005  0.00  0.00     0.217 HD
ENDBRANCH   6  18
BRANCH   3  20
ATOM     20  C14 NON d   1       6.738  -2.648  -0.204  0.00  0.00     0.209 C 
ATOM     21  O2  NON d   1       7.883  -2.078  -0.222  0.00  0.00    -0.644 OA
ATOM     22  O3  NON d   1       5.615  -2.045  -0.254  0.00  0.00    -0.644 OA
ENDBRANCH   3  20
BRANCH   5  23
ATOM     23  C17 NON d   1       9.347  -7.047  -0.036  0.00  0.00     0.068 C 
BRANCH  23  24
ATOM     24  C18 NON d   1      10.756  -6.336  -0.021  0.00  0.00    -0.020 C 
ATOM     25  C19 NON d   1      12.003  -6.930   0.000  0.00  0.00    -0.091 C 
ATOM     26  C20 NON d   1      13.337  -6.160   0.000  0.00  0.00     0.042 C 
ATOM     27  C21 NON d   1      12.003  -8.470   0.000  0.00  0.00     0.042 C 
ENDBRANCH  23  24
ENDBRANCH   5  23
TORSDOF 10
