REMARK  9 active torsions:
REMARK  status: ('A' for Active; 'I' for Inactive)
REMARK    1  A    between atoms: O1_2  and  C2_3 
REMARK    2  A    between atoms: C2_3  and  C3_5 
REMARK    3  A    between atoms: C7_9  and  N1_10 
REMARK       I    between atoms: N1_10  and  C8_11 
REMARK    4  A    between atoms: C8_11  and  C9_13 
REMARK    5  A    between atoms: C10_14  and  C11_15 
REMARK    6  A    between atoms: C14_18  and  O4_19 
REMARK    7  A    between atoms: O4_19  and  S1_20 
REMARK    8  A    between atoms: S1_20  and  C15_23 
REMARK    9  A    between atoms: C22_30  and  O7_31 
ROOT
ATOM      1  C11 NON d   1     -13.656 -18.072  -0.008  0.00  0.00    -0.033 A 
ATOM      2  C12 NON d   1     -13.632 -19.496  -0.007  0.00  0.00     0.014 A 
ATOM      3  C13 NON d   1     -14.819 -20.378  -0.003  0.00  0.00     0.042 A 
ATOM      4  C14 NON d   1     -16.140 -19.889  -0.001  0.00  0.00     0.123 A 
ATOM      5  C22 NON d   1     -16.159 -18.415  -0.000  0.00  0.00     0.103 A 
ATOM      6  C24 NON d   1     -14.954 -17.578  -0.002  0.00  0.00     0.051 A 
ENDROOT
BRANCH   1   7
ATOM      7  C10 NON d   1     -12.384 -17.168  -0.006  0.00  0.00     0.017 C 
ATOM      8  C9  NON d   1     -12.149 -15.807  -0.022  0.00  0.00     0.075 C 
BRANCH   8   9
ATOM      9  C8  NON d   1     -10.697 -15.158  -0.009  0.00  0.00     0.245 C 
ATOM     10  N1  NON d   1     -10.559 -13.727  -0.031  0.00  0.00    -0.324 N 
ATOM     11  H7  NON d   1     -11.407 -13.178  -0.061  0.00  0.00     0.169 HD
ATOM     12  O3  NON d   1      -9.752 -15.947   0.019  0.00  0.00    -0.268 OA
BRANCH  10  13
ATOM     13  C7  NON d   1      -9.295 -12.922  -0.017  0.00  0.00     0.035 A 
ATOM     14  C6  NON d   1      -8.045 -13.539   0.030  0.00  0.00     0.029 A 
ATOM     15  C5  NON d   1      -6.841 -12.794   0.048  0.00  0.00     0.003 A 
ATOM     16  C4  NON d   1      -6.813 -11.388   0.019  0.00  0.00     0.018 A 
ATOM     17  C3  NON d   1      -8.002 -10.671  -0.030  0.00  0.00     0.041 A 
ATOM     18  C25 NON d   1      -9.247 -11.464  -0.048  0.00  0.00     0.047 A 
BRANCH  17  19
ATOM     19  C2  NON d   1      -7.934  -9.101  -0.065  0.00  0.00     0.293 C 
ATOM     20  O2  NON d   1      -8.977  -8.459  -0.136  0.00  0.00    -0.259 OA
BRANCH  19  21
ATOM     21  O1  NON d   1      -6.668  -8.470   0.000  0.00  0.00    -0.323 OA
ATOM     22  C1  NON d   1      -6.668  -6.930   0.000  0.00  0.00     0.213 C 
ENDBRANCH  19  21
ENDBRANCH  17  19
ENDBRANCH  10  13
ENDBRANCH   8   9
ENDBRANCH   1   7
BRANCH   5  23
ATOM     23  O7  NON d   1     -17.338 -17.710   0.000  0.00  0.00    -0.353 OA
ATOM     24  C23 NON d   1     -17.338 -16.170   0.000  0.00  0.00     0.210 C 
ENDBRANCH   5  23
BRANCH   4  25
ATOM     25  O4  NON d   1     -17.338 -20.790   0.000  0.00  0.00    -0.226 OA
BRANCH  25  26
ATOM     26  S1  NON d   1     -17.338 -22.330   0.000  0.00  0.00     0.303 S 
ATOM     27  O5  NON d   1     -18.273 -22.346  -1.137  0.00  0.00    -0.193 OA
ATOM     28  O6  NON d   1     -17.807 -22.350   1.395  0.00  0.00    -0.193 OA
BRANCH  26  29
ATOM     29  C15 NON d   1     -17.338 -23.870   0.000  0.00  0.00     0.086 A 
ATOM     30  C16 NON d   1     -16.191 -24.674  -0.199  0.00  0.00     0.026 A 
ATOM     31  C17 NON d   1     -16.191 -26.146  -0.204  0.00  0.00     0.008 A 
ATOM     32  C18 NON d   1     -17.338 -26.950   0.000  0.00  0.00    -0.062 A 
ATOM     33  C19 NON d   1     -17.338 -28.490   0.000  0.00  0.00     0.048 C 
ATOM     34  C20 NON d   1     -18.492 -26.165   0.173  0.00  0.00     0.008 A 
ATOM     35  C21 NON d   1     -18.483 -24.707   0.180  0.00  0.00     0.026 A 
ENDBRANCH  26  29
ENDBRANCH  25  26
ENDBRANCH   4  25
TORSDOF 9
