@<TRIPOS>MOLECULE
*****
 41 42 0 0 0
SMALL
USER_CHARGES

@<TRIPOS>ATOM
      1 C1          0.1673   -7.2538   -0.2003 C.3     1  NONAME1     0.0817
      2 O1          1.2455   -6.3512    0.0448 O.3     1  NONAME1    -0.4664
      3 C2          0.9292   -5.0284    0.1210 C.2     1  NONAME1     0.3319
      4 O2         -0.2064   -4.5872   -0.0403 O.2     1  NONAME1    -0.2484
      5 C3          2.1249   -4.1731    0.5750 C.3     1  NONAME1     0.1511
      6 C4          3.5070   -4.8456    0.3465 C.3     1  NONAME1     0.0052
      7 C5          3.9654   -5.9494    1.3079 C.ar    1  NONAME1    -0.0446
      8 C6          5.1850   -6.6055    1.0437 C.ar    1  NONAME1    -0.0550
      9 C7          5.6653   -7.6229    1.8814 C.ar    1  NONAME1    -0.0199
     10 C8          4.9253   -7.9978    2.9954 C.ar    1  NONAME1     0.1169
     11 O3          5.3465   -8.9827    3.8415 O.3     1  NONAME1    -0.5068
     12 C9          3.7221   -7.3687    3.2806 C.ar    1  NONAME1    -0.0199
     13 C10         3.2480   -6.3480    2.4457 C.ar    1  NONAME1    -0.0550
     14 N1          2.0865   -2.8696   -0.1590 N.2     1  NONAME1    -0.2757
     15 C11         1.4067   -1.9376    0.4360 C.2     1  NONAME1     0.0406
     16 C12         1.3202   -0.4649    0.1033 C.ar    1  NONAME1     0.1185
     17 C13         0.1133    0.1528    0.0824 C.ar    1  NONAME1     0.2106
     18 O4         -1.0889   -0.5312    0.1182 O.3     1  NONAME1    -0.4929
     19 N2          0.0000    1.5400    0.0000 N.ar    1  NONAME1    -0.2657
     20 C14        -1.3337    2.3100    0.0000 C.3     1  NONAME1     0.0195
     21 C15         1.1412    2.3346   -0.2131 C.ar    1  NONAME1     0.3540
     22 O5          1.0240    3.5409   -0.4472 O.2     1  NONAME1    -0.2443
     23 N3          2.3714    1.7535   -0.1342 N.ar    1  NONAME1    -0.1529
     24 C16         2.4828    0.4802    0.0323 C.ar    1  NONAME1     0.2883
     25 O6          3.5347   -0.1646    0.1851 O.3     1  NONAME1    -0.2649
     26 H1         -0.5996   -6.8270   -0.8525 H       1  NONAME1     0.0661
     27 H2         -0.2687   -7.5555    0.7567 H       1  NONAME1     0.0661
     28 H3          0.5763   -8.1431   -0.6887 H       1  NONAME1     0.0661
     29 H4          2.0036   -3.9910    1.6491 H       1  NONAME1     0.0664
     30 H5          3.5368   -5.2598   -0.6716 H       1  NONAME1     0.0339
     31 H6          4.2808   -4.0669    0.3882 H       1  NONAME1     0.0339
     32 H7          5.7764   -6.3191    0.1752 H       1  NONAME1     0.0621
     33 H8          6.6101   -8.1029    1.6478 H       1  NONAME1     0.0654
     34 H9          6.2145   -9.2985    3.5419 H       1  NONAME1     0.2921
     35 H10         3.1498   -7.6657    4.1537 H       1  NONAME1     0.0654
     36 H11         2.3040   -5.8845    2.7107 H       1  NONAME1     0.0621
     37 H12         0.7855   -2.2017    1.3124 H       1  NONAME1     0.0835
     38 H13        -0.9150   -1.4385   -0.1928 H       1  NONAME1     0.2937
     39 H14        -0.9806    3.1291    0.6580 H       1  NONAME1     0.0458
     40 H15        -2.6674    3.0800    0.0000 H       1  NONAME1     0.0458
     41 H16        -1.8601    1.6072    0.6731 H       1  NONAME1     0.0458
@<TRIPOS>BOND
     1     1     2    1
     2     2     3    1
     3     3     4    2
     4     5     3    1
     5     5     6    1
     6     6     7    1
     7     7     8   ar
     8     8     9   ar
     9     9    10   ar
    10    10    11    1
    11    10    12   ar
    12    12    13   ar
    13     7    13   ar
    14     5    14    1
    15    14    15    2
    16    16    15    1
    17    16    17   ar
    18    17    18    1
    19    17    19   ar
    20    19    20    1
    21    19    21   ar
    22    21    22    2
    23    21    23   ar
    24    23    24   ar
    25    16    24   ar
    26    24    25    1
    27     1    26    1
    28     1    27    1
    29     1    28    1
    30     5    29    1
    31     6    30    1
    32     6    31    1
    33     8    32    1
    34     9    33    1
    35    11    34    1
    36    12    35    1
    37    13    36    1
    38    15    37    1
    39    18    38    1
    40    20    39    1
    41    20    40    1
    42    20    41    1
