@<TRIPOS>MOLECULE
*****
 73 78 0 0 0
SMALL
USER_CHARGES

@<TRIPOS>ATOM
      1 C1         -6.5852  -14.5471   -0.1595 C.3     1  NONAME1     0.0788
      2 O1         -6.6706  -13.1501    0.0837 O.3     1  NONAME1    -0.4951
      3 C2         -5.5742  -12.3535   -0.0034 C.ar    1  NONAME1     0.1201
      4 C3         -5.7703  -11.0504    0.4093 C.ar    1  NONAME1    -0.0196
      5 C4         -4.6990  -10.1106    0.5243 C.ar    1  NONAME1    -0.0517
      6 C5         -3.3916  -10.2764    0.0000 C.ar    1  NONAME1    -0.0068
      7 C6         -2.1457   -9.3712    0.0000 C.3     1  NONAME1     0.1445
      8 O2         -0.8998   -8.4660    0.0000 O.3     1  NONAME1    -0.3569
      9 C7         -0.5640   -7.5722    1.1928 C.3     1  NONAME1     0.0784
     10 C8         -1.5276   -6.8122    2.2879 C.3     1  NONAME1     0.1103
     11 O3         -1.1268   -5.4499    2.9025 O.3     1  NONAME1    -0.3484
     12 C9         -2.3146   -4.5474    2.7580 C.3     1  NONAME1     0.1394
     13 N1         -2.6069   -3.4575    3.7189 N.ar    1  NONAME1    -0.3066
     14 C10        -1.8615   -3.0189    4.7732 C.ar    1  NONAME1     0.0097
     15 C11        -2.5223   -1.9506    5.3900 C.ar    1  NONAME1    -0.0296
     16 C12        -3.7258   -1.7397    4.6705 C.ar    1  NONAME1     0.0814
     17 C13        -4.7955   -0.7682    4.8523 C.ar    1  NONAME1     0.2632
     18 O4         -4.8103    0.0741    5.7486 O.2     1  NONAME1    -0.2670
     19 N2         -5.8159   -0.8457    3.9444 N.ar    1  NONAME1    -0.2745
     20 C14        -5.8899   -1.6964    2.9009 C.ar    1  NONAME1     0.3282
     21 O5         -6.7733   -1.7800    2.0591 O.2     1  NONAME1    -0.2466
     22 N3         -4.7962   -2.6094    2.7467 N.ar    1  NONAME1    -0.2932
     23 C15        -3.7424   -2.6381    3.6451 C.ar    1  NONAME1     0.1296
     24 C16        -3.4695   -5.5186    2.7255 C.3     1  NONAME1     0.0213
     25 C17        -2.8831   -6.4911    1.7646 C.3     1  NONAME1     0.0877
     26 O6         -2.6652   -5.7643    0.5661 O.3     1  NONAME1    -0.3890
     27 C18        -0.9919  -10.4469   -0.0624 C.ar    1  NONAME1    -0.0070
     28 C19        -0.0418  -10.6069   -1.0895 C.ar    1  NONAME1    -0.0552
     29 C20         0.9312  -11.6131   -1.0049 C.ar    1  NONAME1    -0.0614
     30 C21         0.9391  -12.5156    0.0619 C.ar    1  NONAME1    -0.0617
     31 C22         0.0293  -12.3709    1.1003 C.ar    1  NONAME1    -0.0614
     32 C23        -0.8781  -11.3139    1.0706 C.ar    1  NONAME1    -0.0552
     33 C24        -2.8196   -8.2551   -1.0875 C.ar    1  NONAME1    -0.0068
     34 C25        -4.0890   -7.6624   -0.7461 C.ar    1  NONAME1    -0.0517
     35 C26        -4.7577   -6.5814   -1.3288 C.ar    1  NONAME1    -0.0196
     36 C27        -4.0595   -5.8460   -2.2384 C.ar    1  NONAME1     0.1201
     37 O7         -4.4762   -4.5958   -2.6185 O.3     1  NONAME1    -0.4951
     38 C28        -4.8863   -3.7482   -1.5295 C.3     1  NONAME1     0.0788
     39 C29        -2.8424   -6.3792   -2.7044 C.ar    1  NONAME1    -0.0196
     40 C30        -2.2349   -7.5778   -2.1626 C.ar    1  NONAME1    -0.0517
     41 C31        -3.3185  -11.6281   -0.5287 C.ar    1  NONAME1    -0.0517
     42 C32        -4.3107  -12.6535   -0.4423 C.ar    1  NONAME1    -0.0196
     43 H1         -7.4808  -14.8361   -0.7207 H       1  NONAME1     0.0660
     44 H2         -6.6119  -15.0835    0.7953 H       1  NONAME1     0.0660
     45 H3         -5.7184  -14.8663   -0.7389 H       1  NONAME1     0.0660
     46 H4         -6.7799  -10.7468    0.6866 H       1  NONAME1     0.0654
     47 H5         -5.0573   -9.2380    1.0468 H       1  NONAME1     0.0623
     48 H6          0.0697   -6.7909    0.7552 H       1  NONAME1     0.0587
     49 H7          0.1229   -8.1836    1.7915 H       1  NONAME1     0.0587
     50 H8         -1.5982   -7.4638    3.1676 H       1  NONAME1     0.0646
     51 H9         -2.1649   -3.9844    1.8285 H       1  NONAME1     0.0839
     52 H10        -0.9120   -3.4707    5.0206 H       1  NONAME1     0.0810
     53 H11        -2.1825   -1.3793    6.2403 H       1  NONAME1     0.0641
     54 H12        -6.5640   -0.1827    4.0620 H       1  NONAME1     0.1734
     55 H13        -4.8469   -3.2171    1.9419 H       1  NONAME1     0.1718
     56 H14        -4.4084   -5.1018    2.3544 H       1  NONAME1     0.0335
     57 H15        -3.6575   -5.9672    3.7091 H       1  NONAME1     0.0335
     58 H16        -3.4821   -7.3860    1.6820 H       1  NONAME1     0.0621
     59 H17        -3.5028   -5.4441    0.2117 H       1  NONAME1     0.2099
     60 H18        -0.0190   -9.9147   -1.9261 H       1  NONAME1     0.0621
     61 H19         1.6914  -11.6954   -1.7774 H       1  NONAME1     0.0618
     62 H20         1.6627  -13.3260    0.0888 H       1  NONAME1     0.0618
     63 H21         0.0135  -13.0804    1.9240 H       1  NONAME1     0.0618
     64 H22        -1.5780  -11.2159    1.9005 H       1  NONAME1     0.0621
     65 H23        -4.5539   -7.8638    0.1934 H       1  NONAME1     0.0623
     66 H24        -5.7021   -6.2588   -0.8976 H       1  NONAME1     0.0654
     67 H25        -4.0783   -3.6230   -0.7979 H       1  NONAME1     0.0660
     68 H26        -5.1173   -2.7538   -1.9256 H       1  NONAME1     0.0660
     69 H27        -5.7913   -4.1013   -1.0181 H       1  NONAME1     0.0660
     70 H28        -2.2985   -5.8079   -3.4521 H       1  NONAME1     0.0654
     71 H29        -1.2484   -7.8546   -2.5185 H       1  NONAME1     0.0623
     72 H30        -2.4024  -12.0029   -0.9907 H       1  NONAME1     0.0623
     73 H31        -4.0271  -13.6550   -0.7487 H       1  NONAME1     0.0654
@<TRIPOS>BOND
     1     1     2    1
     2     2     3    1
     3     3     4   ar
     4     4     5   ar
     5     5     6   ar
     6     6     7    1
     7     7     8    1
     8     8     9    1
     9    10     9    1
    10    10    11    1
    11    12    11    1
    12    12    13    1
    13    13    14   ar
    14    14    15   ar
    15    15    16   ar
    16    16    17   ar
    17    17    18    2
    18    17    19   ar
    19    19    20   ar
    20    20    21    2
    21    20    22   ar
    22    22    23   ar
    23    16    23   ar
    24    13    23   ar
    25    12    24    1
    26    25    24    1
    27    10    25    1
    28    25    26    1
    29     7    27    1
    30    27    28   ar
    31    28    29   ar
    32    29    30   ar
    33    30    31   ar
    34    31    32   ar
    35    27    32   ar
    36     7    33    1
    37    33    34   ar
    38    34    35   ar
    39    35    36   ar
    40    36    37    1
    41    37    38    1
    42    36    39   ar
    43    39    40   ar
    44    33    40   ar
    45     6    41   ar
    46    41    42   ar
    47     3    42   ar
    48     1    43    1
    49     1    44    1
    50     1    45    1
    51     4    46    1
    52     5    47    1
    53     9    48    1
    54     9    49    1
    55    10    50    1
    56    12    51    1
    57    14    52    1
    58    15    53    1
    59    19    54    1
    60    22    55    1
    61    24    56    1
    62    24    57    1
    63    25    58    1
    64    26    59    1
    65    28    60    1
    66    29    61    1
    67    30    62    1
    68    31    63    1
    69    32    64    1
    70    34    65    1
    71    35    66    1
    72    38    67    1
    73    38    68    1
    74    38    69    1
    75    39    70    1
    76    40    71    1
    77    41    72    1
    78    42    73    1
