REMARK  2 active torsions:
REMARK  status: ('A' for Active; 'I' for Inactive)
REMARK       I    between atoms: C1_2  and  N1_3 
REMARK    1  A    between atoms: C1_2  and  C6_12 
REMARK    2  A    between atoms: N1_3  and  C2_4 
ROOT
ATOM      1  O1  NON d   1       0.251  -2.912   0.000  0.00  0.00    -0.267 OA
ATOM      2  C1  NON d   1       1.373  -2.405   0.000  0.00  0.00     0.259 C 
ATOM      3  N1  NON d   1       2.528  -3.167   0.000  0.00  0.00    -0.309 N 
ATOM      4  H1  NON d   1       3.414  -2.674   0.000  0.00  0.00     0.170 HD
ENDROOT
BRANCH   3   5
ATOM      5  C2  NON d   1       2.594  -4.541   0.000  0.00  0.00     0.117 A 
ATOM      6  C3  NON d   1       3.779  -5.162   0.000  0.00  0.00     0.123 A 
ATOM      7  C4  NON d   1       3.816  -6.637   0.000  0.00  0.00     0.252 A 
ATOM      8  O2  NON d   1       4.886  -7.236   0.000  0.00  0.00    -0.268 OA
ATOM      9  N2  NON d   1       2.609  -7.270   0.000  0.00  0.00    -0.275 N 
ATOM     10  C5  NON d   1       1.398  -6.640   0.000  0.00  0.00     0.328 A 
ATOM     11  H3  NON d   1       2.603  -8.278   0.000  0.00  0.00     0.173 HD
ATOM     12  O3  NON d   1       0.344  -7.268   0.000  0.00  0.00    -0.247 OA
ATOM     13  N3  NON d   1       1.446  -5.277   0.000  0.00  0.00    -0.294 N 
ATOM     14  H4  NON d   1       0.558  -4.777   0.000  0.00  0.00     0.172 HD
ENDBRANCH   3   5
BRANCH   2  15
ATOM     15  C6  NON d   1       1.492  -0.907   0.000  0.00  0.00     0.055 A 
ATOM     16  C7  NON d   1       0.267  -0.205   0.000  0.00  0.00     0.042 A 
ATOM     17  C8  NON d   1       0.232   1.189  -0.000  0.00  0.00     0.035 A 
ATOM     18 Cl1  NON d   1      -1.280   2.009  -0.000  0.00  0.00    -0.084 Cl
ATOM     19  C9  NON d   1       1.412   1.921  -0.000  0.00  0.00     0.025 A 
ATOM     20  C10 NON d   1       2.633   1.248  -0.000  0.00  0.00     0.026 A 
ATOM     21  C11 NON d   1       2.682  -0.156   0.000  0.00  0.00     0.049 A 
ATOM     22 Cl2  NON d   1       4.272  -0.838   0.000  0.00  0.00    -0.083 Cl
ENDBRANCH   2  15
TORSDOF 2
