@<TRIPOS>MOLECULE
*****
 51 52 0 0 0
SMALL
USER_CHARGES

@<TRIPOS>ATOM
      1 C1         -0.0758   -1.1465   -2.3511 C.3     1  NONAME1     0.0365
      2 O1          0.1496    0.3441   -2.6656 O.3     1  NONAME1    -0.3814
      3 C2         -1.1044    1.0345   -2.5529 C.3     1  NONAME1     0.0640
      4 C3         -1.3190    1.6816   -1.1635 C.3     1  NONAME1     0.0493
      5 C4         -2.6298    2.4708   -1.1571 C.3     1  NONAME1    -0.0459
      6 N1         -1.3337    0.7700    0.0000 N.3     1  NONAME1    -0.1850
      7 S1         -1.3337   -0.7700    0.0000 S.O2    1  NONAME1     0.0588
      8 O2         -2.5944   -0.7334   -0.7559 O.2     1  NONAME1    -0.1530
      9 O3         -1.3886   -0.7222    1.4677 O.2     1  NONAME1    -0.1530
     10 C5         -1.3337   -2.3100    0.0000 C.ar    1  NONAME1     0.1075
     11 C6         -0.1102   -2.9224    0.4068 C.ar    1  NONAME1    -0.0335
     12 C7          0.1130   -4.3191    0.4683 C.ar    1  NONAME1    -0.0365
     13 C8         -0.8710   -5.2452    0.1220 C.ar    1  NONAME1     0.0620
     14 N2         -0.5936   -6.6449    0.0945 N.pl3   1  NONAME1    -0.3115
     15 C9          0.5768   -7.4434    0.0178 C.ar    1  NONAME1     0.0498
     16 C10         1.8398   -6.9660   -0.2791 C.ar    1  NONAME1    -0.0358
     17 C11         2.9594   -7.8247   -0.2698 C.ar    1  NONAME1    -0.0200
     18 C12         2.8602   -9.1986    0.0114 C.ar    1  NONAME1     0.1208
     19 N3          4.0010  -10.0100    0.0000 N.pl3   1  NONAME1    -0.3213
     20 C13         5.3347   -9.2400    0.0000 C.3     1  NONAME1     0.0017
     21 C14         4.0010  -11.5500    0.0000 C.3     1  NONAME1     0.0017
     22 N4          1.6352   -9.6912    0.2741 N.ar    1  NONAME1    -0.2385
     23 C15         0.5575   -8.8225    0.2844 C.ar    1  NONAME1     0.0508
     24 C16        -2.1309   -4.6686   -0.2076 C.ar    1  NONAME1     0.1490
     25 N5         -3.2947   -5.5305   -0.5049 N.pl3   1  NONAME1     0.0583
     26 O4         -4.3194   -4.9909   -0.9448 O.2     1  NONAME1    -0.1261
     27 O5         -3.1885   -6.7481   -0.2895 O.2     1  NONAME1    -0.1261
     28 C17        -2.3537   -3.2447   -0.2558 C.ar    1  NONAME1    -0.0033
     29 H1         -0.4369   -1.3821   -3.3696 H       1  NONAME1     0.0523
     30 H2         -0.3012   -2.6371   -2.0367 H       1  NONAME1     0.0523
     31 H3          1.0061   -1.3660   -2.3230 H       1  NONAME1     0.0523
     32 H4         -1.9343    0.3858   -2.8563 H       1  NONAME1     0.0576
     33 H5         -1.0669    1.8399   -3.2962 H       1  NONAME1     0.0576
     34 H6         -0.4871    2.3751   -0.9884 H       1  NONAME1     0.0497
     35 H7         -2.6307    3.2389   -1.9370 H       1  NONAME1     0.0246
     36 H8         -3.4908    1.8144   -1.3304 H       1  NONAME1     0.0246
     37 H9         -2.7866    2.9670   -0.1931 H       1  NONAME1     0.0246
     38 H10        -1.4704    1.1846    0.9199 H       1  NONAME1     0.1484
     39 H11         0.7314   -2.2882    0.7091 H       1  NONAME1     0.0638
     40 H12         1.0763   -4.6495    0.8476 H       1  NONAME1     0.0637
     41 H13        -1.4480   -7.2111    0.0461 H       1  NONAME1     0.1523
     42 H14         2.0059   -5.9350   -0.5647 H       1  NONAME1     0.0638
     43 H15         3.9122   -7.3720   -0.5223 H       1  NONAME1     0.0652
     44 H16         5.9083  -10.0231    0.5291 H       1  NONAME1     0.0428
     45 H17         6.6684   -8.4700    0.0000 H       1  NONAME1     0.0428
     46 H18         5.4990   -9.3437   -1.0899 H       1  NONAME1     0.0428
     47 H19         3.0965  -11.6573   -0.6286 H       1  NONAME1     0.0428
     48 H20         4.0010  -13.0900    0.0000 H       1  NONAME1     0.0428
     49 H21         4.8682  -11.6520   -0.6799 H       1  NONAME1     0.0428
     50 H22        -0.3798   -9.3192    0.5291 H       1  NONAME1     0.0849
     51 H23        -3.3513   -2.8791   -0.5001 H       1  NONAME1     0.0660
@<TRIPOS>BOND
     1     1     2    1
     2     2     3    1
     3     4     3    1
     4     4     5    1
     5     4     6    1
     6     6     7    1
     7     7     8    2
     8     7     9    2
     9     7    10    1
    10    10    11   ar
    11    11    12   ar
    12    12    13   ar
    13    13    14    1
    14    14    15    1
    15    15    16   ar
    16    16    17   ar
    17    17    18   ar
    18    18    19    1
    19    19    20    1
    20    19    21    1
    21    18    22   ar
    22    22    23   ar
    23    15    23   ar
    24    13    24   ar
    25    24    25    1
    26    25    26    2
    27    25    27    1
    28    24    28   ar
    29    10    28   ar
    30     1    29    1
    31     1    30    1
    32     1    31    1
    33     3    32    1
    34     3    33    1
    35     4    34    1
    36     5    35    1
    37     5    36    1
    38     5    37    1
    39     6    38    1
    40    11    39    1
    41    12    40    1
    42    14    41    1
    43    16    42    1
    44    17    43    1
    45    20    44    1
    46    20    45    1
    47    20    46    1
    48    21    47    1
    49    21    48    1
    50    21    49    1
    51    23    50    1
    52    28    51    1
