@<TRIPOS>MOLECULE
*****
 34 35 0 0 0
SMALL
USER_CHARGES

@<TRIPOS>ATOM
      1 C1          6.4692   -2.4250    0.0000 C.3     1  NONAME1    -0.0009
      2 C2          5.1355   -3.1950    0.0000 C.2     1  NONAME1     0.1666
      3 O1          4.0821   -2.5555   -0.0830 O.2     1  NONAME1    -0.2918
      4 C3          5.1654   -4.6501    0.0636 C.ar    1  NONAME1     0.0550
      5 C4          6.2297   -5.5272    0.0989 C.ar    1  NONAME1    -0.0434
      6 C5          5.8016   -6.8835    0.2485 C.ar    1  NONAME1    -0.0418
      7 C6          4.4253   -7.0139    0.3010 C.ar    1  NONAME1     0.0745
      8 C7          3.6713   -8.2295    0.5822 C.2     1  NONAME1     0.2512
      9 O2          4.1673   -9.1693    1.2001 O.2     1  NONAME1    -0.2696
     10 N1          2.3728   -8.2856    0.1050 N.am    1  NONAME1    -0.3044
     11 C8          1.5080   -9.4376    0.3632 C.3     1  NONAME1     0.0459
     12 C9          1.9900  -10.6438   -0.4612 C.3     1  NONAME1    -0.0424
     13 C10         0.0213   -9.1256    0.1516 C.ar    1  NONAME1    -0.0264
     14 C11        -0.9090  -10.1523   -0.1110 C.ar    1  NONAME1    -0.0567
     15 C12        -2.2720   -9.8848   -0.2771 C.ar    1  NONAME1    -0.0604
     16 C13        -2.7441   -8.5819   -0.1686 C.ar    1  NONAME1    -0.0477
     17 C14        -1.8501   -7.5576    0.1226 C.ar    1  NONAME1     0.0182
     18 Br1        -2.4904   -5.7851    0.2878 Br      1  NONAME1    -0.0503
     19 C15        -0.4850   -7.8215    0.2981 C.ar    1  NONAME1    -0.0428
     20 S1          3.6653   -5.5004    0.0951 S.2     1  NONAME1    -0.0808
     21 H1          6.6543   -2.5955   -1.0829 H       1  NONAME1     0.0309
     22 H2          7.8029   -1.6550    0.0000 H       1  NONAME1     0.0309
     23 H3          6.0071   -1.4219    0.1228 H       1  NONAME1     0.0309
     24 H4          7.2695   -5.2255    0.0579 H       1  NONAME1     0.0630
     25 H5          6.4713   -7.7316    0.3453 H       1  NONAME1     0.0631
     26 H6          2.0659   -7.5627   -0.5325 H       1  NONAME1     0.1496
     27 H7          1.6272   -9.6864    1.4260 H       1  NONAME1     0.0545
     28 H8          1.5218  -11.5731   -0.1195 H       1  NONAME1     0.0251
     29 H9          1.7610  -10.5158   -1.5251 H       1  NONAME1     0.0251
     30 H10         3.0702  -10.7965   -0.3762 H       1  NONAME1     0.0251
     31 H11        -0.5967  -11.1914   -0.1839 H       1  NONAME1     0.0621
     32 H12        -2.9644  -10.6981   -0.4806 H       1  NONAME1     0.0618
     33 H13        -3.8031   -8.3781   -0.2987 H       1  NONAME1     0.0629
     34 H14         0.1737   -6.9993    0.5594 H       1  NONAME1     0.0632
@<TRIPOS>BOND
     1     1     2    1
     2     2     3    2
     3     2     4    1
     4     4     5   ar
     5     5     6   ar
     6     6     7   ar
     7     7     8    1
     8     8     9    2
     9     8    10   am
    10    11    10    1
    11    11    12    1
    12    11    13    1
    13    13    14   ar
    14    14    15   ar
    15    15    16   ar
    16    16    17   ar
    17    17    18    1
    18    17    19   ar
    19    13    19   ar
    20     7    20   ar
    21     4    20   ar
    22     1    21    1
    23     1    22    1
    24     1    23    1
    25     5    24    1
    26     6    25    1
    27    10    26    1
    28    11    27    1
    29    12    28    1
    30    12    29    1
    31    12    30    1
    32    14    31    1
    33    15    32    1
    34    16    33    1
    35    19    34    1
