@<TRIPOS>MOLECULE
*****
 38 38 0 0 0
SMALL
USER_CHARGES

@<TRIPOS>ATOM
      1 C1          5.8365  -10.1537   -0.8524 C.3     1  NONAME1    -0.0653
      2 C2          6.5065  -10.7622   -2.0769 C.3     1  NONAME1    -0.0552
      3 C3          7.7507  -11.6106   -1.8123 C.3     1  NONAME1    -0.0402
      4 C4          9.0103  -10.9862   -1.1458 C.3     1  NONAME1     0.0611
      5 C5          9.6317   -9.7585   -0.3857 C.3     1  NONAME1    -0.0317
      6 C6         11.1391   -9.4194   -0.4470 C.3     1  NONAME1     0.0250
      7 C7         12.1635  -10.2784    0.3349 C.2     1  NONAME1     0.2173
      8 O1         11.8624  -10.8263    1.3943 O.2     1  NONAME1    -0.2755
      9 N1         13.4440  -10.0123   -0.1748 N.am    1  NONAME1    -0.2824
     10 C8         14.7258  -10.5618    0.1000 C.ar    1  NONAME1     0.0828
     11 C9         15.7816   -9.6548   -0.1570 C.ar    1  NONAME1    -0.0065
     12 C10        17.1087  -10.0621   -0.0476 C.ar    1  NONAME1     0.1282
     13 N2         18.1887   -9.0891   -0.2610 N.pl3   1  NONAME1     0.0565
     14 O2         17.8876   -7.8889   -0.3680 O.2     1  NONAME1    -0.1261
     15 O3         19.3568   -9.5110   -0.3127 O.2     1  NONAME1    -0.1261
     16 C11        17.4258  -11.3696    0.2644 C.ar    1  NONAME1    -0.0277
     17 C12        16.3793  -12.2563    0.5098 C.ar    1  NONAME1    -0.0109
     18 C13        15.0029  -11.9069    0.4660 C.ar    1  NONAME1     0.2001
     19 O4         14.1487  -12.8246    0.6865 O.3     1  NONAME1    -0.2859
     20 C14        10.0263  -11.2060   -2.2820 C.2     1  NONAME1     0.3590
     21 O5         10.1119  -10.2390   -3.1042 O.co2   1  NONAME1    -0.2461
     22 O6         10.5103  -12.3646   -2.3705 O.co2   1  NONAME1    -0.2461
     23 H1          4.8447   -9.7710   -1.1206 H       1  NONAME1     0.0230
     24 H2          6.4158   -9.3126   -0.4643 H       1  NONAME1     0.0230
     25 H3          5.7025  -10.8910   -0.0549 H       1  NONAME1     0.0230
     26 H4          5.7674  -11.4286   -2.5435 H       1  NONAME1     0.0263
     27 H5          6.7366   -9.9834   -2.8076 H       1  NONAME1     0.0263
     28 H6          7.4518  -12.4450   -1.1539 H       1  NONAME1     0.0273
     29 H7          7.9820  -12.1263   -2.7545 H       1  NONAME1     0.0273
     30 H8          7.9944  -10.7664   -0.0095 H       1  NONAME1     0.0415
     31 H9          9.4797   -9.9384    0.6932 H       1  NONAME1     0.0278
     32 H10         9.0600   -8.8616   -0.6423 H       1  NONAME1     0.0278
     33 H11        11.4815   -9.2693   -1.4704 H       1  NONAME1     0.0359
     34 H12        11.2367   -8.4299    0.0251 H       1  NONAME1     0.0359
     35 H13        13.4569   -9.2738   -0.8602 H       1  NONAME1     0.1549
     36 H14        15.5437   -8.6284   -0.4196 H       1  NONAME1     0.0660
     37 H15        18.4471  -11.7295    0.3208 H       1  NONAME1     0.0641
     38 H16        16.6250  -13.2975    0.7302 H       1  NONAME1     0.0657
@<TRIPOS>BOND
     1     1     2    1
     2     2     3    1
     3     4     3    1
     4     4     5    1
     5     5     6    1
     6     6     7    1
     7     7     8    2
     8     7     9   am
     9     9    10    1
    10    10    11   ar
    11    11    12   ar
    12    12    13    1
    13    13    14    2
    14    13    15    1
    15    12    16   ar
    16    16    17   ar
    17    17    18   ar
    18    10    18   ar
    19    18    19    1
    20     4    20    1
    21    20    21   ar
    22    20    22   ar
    23     1    23    1
    24     1    24    1
    25     1    25    1
    26     2    26    1
    27     2    27    1
    28     3    28    1
    29     3    29    1
    30     4    30    1
    31     5    31    1
    32     5    32    1
    33     6    33    1
    34     6    34    1
    35     9    35    1
    36    11    36    1
    37    16    37    1
    38    17    38    1
