@<TRIPOS>MOLECULE
*****
 56 58 0 0 0
SMALL
USER_CHARGES

@<TRIPOS>ATOM
      1 C1         18.8480   -0.6969    0.9557 C.3     1  NONAME1    -0.0653
      2 C2         20.1523    0.0857    0.9552 C.3     1  NONAME1    -0.0559
      3 C3         21.3933   -0.7716    1.2385 C.3     1  NONAME1    -0.0529
      4 C4         21.8222   -1.6308    0.0379 C.3     1  NONAME1    -0.0448
      5 C5         23.2099   -2.2777    0.2109 C.3     1  NONAME1     0.0243
      6 C6         24.3643   -1.2936    0.0228 C.2     1  NONAME1     0.2172
      7 O1         24.1495   -0.1072   -0.2076 O.2     1  NONAME1    -0.2755
      8 N1         25.6211   -1.8884    0.1280 N.am    1  NONAME1    -0.2854
      9 C7         26.8742   -1.2186    0.0783 C.ar    1  NONAME1     0.0351
     10 C8         26.9805    0.1718    0.0841 C.ar    1  NONAME1    -0.0404
     11 C9         28.2242    0.7914    0.0070 C.ar    1  NONAME1    -0.0583
     12 C10        29.3868    0.0279   -0.0631 C.ar    1  NONAME1    -0.0407
     13 C11        29.3433   -1.3701   -0.0166 C.ar    1  NONAME1     0.0293
     14 N2         30.4945   -2.1552   -0.1629 N.pl3   1  NONAME1    -0.3353
     15 C12        31.8262   -1.5477    0.0004 C.3     1  NONAME1     0.0861
     16 C13        32.9599   -2.5960    0.0565 C.2     1  NONAME1     0.2343
     17 O2         32.7259   -3.7929    0.1878 O.2     1  NONAME1    -0.2738
     18 N3         34.2209   -2.0022   -0.0092 N.am    1  NONAME1    -0.2842
     19 C14        35.4867   -2.6353    0.0042 C.ar    1  NONAME1     0.0340
     20 C15        36.6173   -1.8067   -0.0109 C.ar    1  NONAME1    -0.0399
     21 C16        37.9082   -2.3478   -0.0098 C.ar    1  NONAME1    -0.0523
     22 C17        38.1031   -3.7349   -0.0001 C.ar    1  NONAME1    -0.0178
     23 C18        39.3926   -4.2978   -0.0078 C.ar    1  NONAME1    -0.0540
     24 C19        39.5666   -5.6829   -0.0029 C.ar    1  NONAME1    -0.0612
     25 C20        38.4557   -6.5189    0.0109 C.ar    1  NONAME1    -0.0612
     26 C21        37.1694   -5.9723    0.0206 C.ar    1  NONAME1    -0.0540
     27 C22        36.9725   -4.5814    0.0142 C.ar    1  NONAME1    -0.0161
     28 C23        35.6772   -4.0180    0.0193 C.ar    1  NONAME1    -0.0328
     29 C24        28.0669   -1.9787    0.0295 C.ar    1  NONAME1    -0.0196
     30 H1         18.0201   -0.0441    0.6571 H       1  NONAME1     0.0230
     31 H2         18.6242   -1.0775    1.9576 H       1  NONAME1     0.0230
     32 H3         18.8770   -1.5411    0.2620 H       1  NONAME1     0.0230
     33 H4         20.0800    0.8647    1.7244 H       1  NONAME1     0.0263
     34 H5         20.2668    0.6043   -0.0038 H       1  NONAME1     0.0263
     35 H6         21.2132   -1.4136    2.1092 H       1  NONAME1     0.0265
     36 H7         22.2080   -0.0926    1.5130 H       1  NONAME1     0.0265
     37 H8         21.0819   -2.4268   -0.1067 H       1  NONAME1     0.0270
     38 H9         21.8124   -1.0221   -0.8747 H       1  NONAME1     0.0270
     39 H10        23.2912   -2.7437    1.1989 H       1  NONAME1     0.0358
     40 H11        23.3216   -3.0609   -0.5484 H       1  NONAME1     0.0358
     41 H12        25.6522   -2.8982    0.1796 H       1  NONAME1     0.1548
     42 H13        26.1109    0.8156    0.1444 H       1  NONAME1     0.0636
     43 H14        28.2815    1.8767   -0.0101 H       1  NONAME1     0.0619
     44 H15        30.3263    0.5624   -0.1534 H       1  NONAME1     0.0636
     45 H16        30.4379   -3.0905    0.2401 H       1  NONAME1     0.1466
     46 H17        31.8756   -0.9794    0.9371 H       1  NONAME1     0.0557
     47 H18        32.0287   -0.8823   -0.8470 H       1  NONAME1     0.0557
     48 H19        34.2473   -0.9916   -0.0612 H       1  NONAME1     0.1549
     49 H20        36.5180   -0.7239   -0.0204 H       1  NONAME1     0.0636
     50 H21        38.7636   -1.6751   -0.0193 H       1  NONAME1     0.0624
     51 H22        40.2732   -3.6597   -0.0198 H       1  NONAME1     0.0624
     52 H23        40.5682   -6.1064   -0.0113 H       1  NONAME1     0.0618
     53 H24        38.5860   -7.5979    0.0131 H       1  NONAME1     0.0618
     54 H25        36.3141   -6.6448    0.0306 H       1  NONAME1     0.0624
     55 H26        34.8252   -4.6909    0.0247 H       1  NONAME1     0.0642
     56 H27        28.0101   -3.0642    0.0077 H       1  NONAME1     0.0655
@<TRIPOS>BOND
     1     1     2    1
     2     2     3    1
     3     3     4    1
     4     4     5    1
     5     5     6    1
     6     6     7    2
     7     6     8   am
     8     8     9    1
     9     9    10   ar
    10    10    11   ar
    11    11    12   ar
    12    12    13   ar
    13    13    14    1
    14    14    15    1
    15    15    16    1
    16    16    17    2
    17    16    18   am
    18    18    19    1
    19    19    20   ar
    20    20    21   ar
    21    21    22   ar
    22    22    23   ar
    23    23    24   ar
    24    24    25   ar
    25    25    26   ar
    26    26    27   ar
    27    22    27   ar
    28    27    28   ar
    29    19    28   ar
    30    13    29   ar
    31     9    29   ar
    32     1    30    1
    33     1    31    1
    34     1    32    1
    35     2    33    1
    36     2    34    1
    37     3    35    1
    38     3    36    1
    39     4    37    1
    40     4    38    1
    41     5    39    1
    42     5    40    1
    43     8    41    1
    44    10    42    1
    45    11    43    1
    46    12    44    1
    47    14    45    1
    48    15    46    1
    49    15    47    1
    50    18    48    1
    51    20    49    1
    52    21    50    1
    53    23    51    1
    54    24    52    1
    55    25    53    1
    56    26    54    1
    57    28    55    1
    58    29    56    1
