REMARK  8 active torsions:
REMARK  status: ('A' for Active; 'I' for Inactive)
REMARK    1  A    between atoms: C2_2  and  N1_3 
REMARK    2  A    between atoms: N1_3  and  C3_4 
REMARK    3  A    between atoms: C4_6  and  N3_7 
REMARK    4  A    between atoms: N3_7  and  C5_8 
REMARK    5  A    between atoms: C8_11  and  N4_12 
REMARK    6  A    between atoms: N4_12  and  S1_13 
REMARK    7  A    between atoms: S1_13  and  C9_16 
REMARK    8  A    between atoms: C12_19  and  C13_20 
ROOT
ATOM      1  C5  NON d   1      11.487  -8.302   0.494  0.00  0.00     0.033 A 
ATOM      2  C6  NON d   1      12.351  -9.182  -0.172  0.00  0.00     0.031 A 
ATOM      3  C7  NON d   1      12.187 -10.592  -0.073  0.00  0.00     0.026 A 
ATOM      4  C8  NON d   1      11.153 -11.144   0.694  0.00  0.00     0.023 A 
ATOM      5  C19 NON d   1      10.347 -10.285   1.429  0.00  0.00     0.026 A 
ATOM      6  C20 NON d   1      10.529  -8.892   1.347  0.00  0.00     0.031 A 
ENDROOT
BRANCH   4   7
ATOM      7  N4  NON d   1      10.903 -12.568   0.814  0.00  0.00    -0.181 NA
ATOM      8  H10 NON d   1      11.758 -13.052   1.104  0.00  0.00     0.146 HD
BRANCH   7   9
ATOM      9  S1  NON d   1      10.384 -13.380  -0.600  0.00  0.00     0.245 S 
ATOM     10  O1  NON d   1       9.836 -12.428  -1.541  0.00  0.00    -0.206 OA
ATOM     11  O2  NON d   1      11.490 -14.246  -0.962  0.00  0.00    -0.206 OA
BRANCH   9  12
ATOM     12  C9  NON d   1       9.023 -14.442  -0.087  0.00  0.00     0.074 C 
ATOM     13  C10 NON d   1       9.146 -15.831  -0.087  0.00  0.00     0.025 C 
ATOM     14  C11 NON d   1       7.997 -16.666   0.006  0.00  0.00     0.009 C 
ATOM     15  C12 NON d   1       6.668 -16.170   0.000  0.00  0.00    -0.051 C 
ATOM     16  C17 NON d   1       6.633 -14.752   0.209  0.00  0.00     0.009 C 
ATOM     17  C18 NON d   1       7.759 -13.902   0.110  0.00  0.00     0.025 C 
BRANCH  15  18
ATOM     18  C13 NON d   1       5.335 -16.940   0.000  0.00  0.00    -0.024 C 
ATOM     19  C14 NON d   1       4.001 -17.710   0.000  0.00  0.00     0.019 C 
ATOM     20  C15 NON d   1       4.723 -15.976  -1.245  0.00  0.00     0.019 C 
ATOM     21  C16 NON d   1       5.989 -18.217  -0.880  0.00  0.00     0.019 C 
ENDBRANCH  15  18
ENDBRANCH   9  12
ENDBRANCH   7   9
ENDBRANCH   4   7
BRANCH   1  22
ATOM     22  N3  NON d   1      11.462  -6.902   0.191  0.00  0.00    -0.340 N 
ATOM     23  H7  NON d   1      12.319  -6.378   0.303  0.00  0.00     0.167 HD
BRANCH  22  24
ATOM     24  C4  NON d   1      10.289  -6.075   0.030  0.00  0.00     0.149 C 
ATOM     25  N2  NON d   1      10.291  -4.686   0.176  0.00  0.00    -0.045 NA
ATOM     26  C3  NON d   1       9.103  -3.997   0.192  0.00  0.00     0.724 C 
ATOM     27  N5  NON d   1       7.961  -4.741   0.164  0.00  0.00    -0.068 NA
ATOM     28  C22 NON d   1       8.002  -6.160   0.000  0.00  0.00     0.053 C 
ATOM     29  C21 NON d   1       9.148  -6.804  -0.236  0.00  0.00     0.078 C 
ATOM     30  C23 NON d   1       6.668  -6.930   0.000  0.00  0.00     0.071 C 
BRANCH  26  31
ATOM     31  N1  NON d   1       9.150  -2.532   0.304  0.00  0.00    -0.223 N 
ATOM     32  H6  NON d   1      10.066  -2.252  -0.030  0.00  0.00     0.177 HD
BRANCH  31  33
ATOM     33  C2  NON d   1       8.002  -1.540   0.000  0.00  0.00     0.134 C 
ATOM     34  C1  NON d   1       8.002   0.000   0.000  0.00  0.00     0.027 C 
ENDBRANCH  31  33
ENDBRANCH  26  31
ENDBRANCH  22  24
ENDBRANCH   1  22
TORSDOF 8
