@<TRIPOS>MOLECULE
*****
 58 61 0 0 0
SMALL
USER_CHARGES

@<TRIPOS>ATOM
      1 C1         11.7625   -5.4762    2.5743 C.3     1  NONAME1    -0.0397
      2 C2         12.0613   -4.1303    3.1619 C.ar    1  NONAME1    -0.0487
      3 C3         13.2301   -3.8976    3.8654 C.ar    1  NONAME1    -0.0585
      4 C4         13.4744   -2.6276    4.3736 C.ar    1  NONAME1    -0.0568
      5 C5         12.5961   -1.5426    4.1380 C.ar    1  NONAME1    -0.0293
      6 C6         12.9907   -0.2478    4.7947 C.3     1  NONAME1    -0.0380
      7 C7         11.4688   -1.7166    3.3040 C.ar    1  NONAME1     0.0357
      8 N1         10.6550   -0.7151    2.8236 N.pl3   1  NONAME1    -0.2904
      9 C8         10.7244    0.7037    3.0961 C.3     1  NONAME1     0.0781
     10 N2          9.6566    1.4611    2.3904 N.3     1  NONAME1    -0.2371
     11 N3          9.0730    0.4554    1.4236 N.3     1  NONAME1    -0.2260
     12 C9          9.9433   -0.7517    1.5477 C.3     1  NONAME1     0.1368
     13 S1         11.0650   -0.6538    0.0936 S.3     1  NONAME1    -0.1124
     14 C10        11.3730   -2.4181   -0.2069 C.3     1  NONAME1     0.0732
     15 C11        12.2352   -2.6177   -1.4272 C.2     1  NONAME1     0.2236
     16 O1         11.9044   -2.1974   -2.5409 O.2     1  NONAME1    -0.2749
     17 N4         13.3635   -3.3796   -1.3076 N.am    1  NONAME1    -0.3013
     18 C12        14.2418   -3.6925    0.0000 C.3     1  NONAME1     0.1287
     19 C13        15.5802   -4.5174   -0.4646 C.3     1  NONAME1     0.0033
     20 C14        15.3541   -5.6739   -1.4575 C.ar    1  NONAME1    -0.0201
     21 C15        14.7210   -5.6077   -2.6869 C.ar    1  NONAME1     0.0060
     22 N5         14.7246   -6.8409   -3.2677 N.ar    1  NONAME1    -0.3604
     23 C16        15.4276   -7.7257   -2.4921 C.ar    1  NONAME1     0.0467
     24 C17        15.7350   -9.0702   -2.7343 C.ar    1  NONAME1    -0.0378
     25 C18        16.5133   -9.7316   -1.7837 C.ar    1  NONAME1    -0.0598
     26 C19        16.9514   -9.0715   -0.6394 C.ar    1  NONAME1    -0.0611
     27 C20        16.6176   -7.7311   -0.4047 C.ar    1  NONAME1    -0.0523
     28 C21        15.8402   -7.0295   -1.3511 C.ar    1  NONAME1     0.0029
     29 C22        15.0118   -2.3588    0.0000 C.2     1  NONAME1     0.3762
     30 O2         15.3254   -1.9614    1.1621 O.co2   1  NONAME1    -0.2443
     31 O3         15.2769   -1.8149   -1.1153 O.co2   1  NONAME1    -0.2443
     32 C23        11.1814   -3.0560    2.9455 C.ar    1  NONAME1    -0.0374
     33 H1         12.6037   -6.1659    2.7006 H       1  NONAME1     0.0278
     34 H2         11.5737   -5.3849    1.4990 H       1  NONAME1     0.0278
     35 H3         10.8829   -5.9123    3.0556 H       1  NONAME1     0.0278
     36 H4         13.9651   -4.6829    4.0144 H       1  NONAME1     0.0620
     37 H5         14.3978   -2.4680    4.9273 H       1  NONAME1     0.0621
     38 H6         12.1576    0.1537    5.3778 H       1  NONAME1     0.0278
     39 H7         13.3452    0.4787    4.0605 H       1  NONAME1     0.0278
     40 H8         13.8010   -0.3947    5.5189 H       1  NONAME1     0.0278
     41 H9         11.6835    1.1183    2.7578 H       1  NONAME1     0.0644
     42 H10        10.6117    0.9097    4.1637 H       1  NONAME1     0.0644
     43 H11         8.9456    1.6844    3.0879 H       1  NONAME1     0.1424
     44 H12         9.2485    0.7771    0.4665 H       1  NONAME1     0.1434
     45 H13         9.2841   -1.6197    1.4536 H       1  NONAME1     0.0803
     46 H14        11.8854   -2.8595    0.6399 H       1  NONAME1     0.0472
     47 H15        10.4264   -2.9363   -0.3903 H       1  NONAME1     0.0472
     48 H16        13.9986   -3.0599   -2.0420 H       1  NONAME1     0.1495
     49 H17        13.4718   -5.0262    0.0000 H       1  NONAME1     0.0619
     50 H18        16.3804   -3.9138   -0.9121 H       1  NONAME1     0.0337
     51 H19        15.9976   -4.9426    0.4587 H       1  NONAME1     0.0337
     52 H20        14.2458   -4.7868   -3.2042 H       1  NONAME1     0.0810
     53 H21        14.3137   -7.0589   -4.1636 H       1  NONAME1     0.1653
     54 H22        15.4000   -9.5751   -3.6325 H       1  NONAME1     0.0638
     55 H23        16.7887  -10.7695   -1.9463 H       1  NONAME1     0.0618
     56 H24        17.5672   -9.6027    0.0847 H       1  NONAME1     0.0618
     57 H25        16.9724   -7.2275    0.4889 H       1  NONAME1     0.0624
     58 H26        10.2705   -3.2794    2.3963 H       1  NONAME1     0.0639
@<TRIPOS>BOND
     1     1     2    1
     2     2     3   ar
     3     3     4   ar
     4     4     5   ar
     5     5     6    1
     6     5     7   ar
     7     7     8    1
     8     8     9    1
     9     9    10    1
    10    10    11    1
    11    12    11    1
    12    12     8    1
    13    12    13    1
    14    13    14    1
    15    14    15    1
    16    15    16    2
    17    15    17   am
    18    18    17    1
    19    18    19    1
    20    19    20    1
    21    20    21   ar
    22    21    22   ar
    23    22    23   ar
    24    23    24   ar
    25    24    25   ar
    26    25    26   ar
    27    26    27   ar
    28    27    28   ar
    29    20    28   ar
    30    23    28   ar
    31    18    29    1
    32    29    30   ar
    33    29    31   ar
    34     7    32   ar
    35     2    32   ar
    36     1    33    1
    37     1    34    1
    38     1    35    1
    39     3    36    1
    40     4    37    1
    41     6    38    1
    42     6    39    1
    43     6    40    1
    44     9    41    1
    45     9    42    1
    46    10    43    1
    47    11    44    1
    48    12    45    1
    49    14    46    1
    50    14    47    1
    51    17    48    1
    52    18    49    1
    53    19    50    1
    54    19    51    1
    55    21    52    1
    56    22    53    1
    57    24    54    1
    58    25    55    1
    59    26    56    1
    60    27    57    1
    61    32    58    1
