@<TRIPOS>MOLECULE
*****
 55 55 0 0 0
SMALL
USER_CHARGES

@<TRIPOS>ATOM
      1 C1          0.1753  -10.9116    4.4672 C.3     1  NONAME1    -0.0440
      2 C2          0.3385   -9.7429    3.5456 C.2     1  NONAME1    -0.0792
      3 C3          1.6722   -8.9730    3.5272 C.3     1  NONAME1    -0.0440
      4 C4         -0.6625   -9.1604    2.8795 C.2     1  NONAME1    -0.0782
      5 C5         -0.5713   -8.0046    1.9193 C.3     1  NONAME1     0.0245
      6 C6          0.7678   -7.0256    1.5833 C.2     1  NONAME1     0.1399
      7 O1          1.2608   -6.3536    2.4961 O.2     1  NONAME1    -0.2968
      8 C7          1.3338   -6.9299    0.0183 C.3     1  NONAME1     0.0153
      9 C8          0.3319   -6.7621   -1.1391 C.3     1  NONAME1    -0.0557
     10 C9          2.6674   -6.1600    0.0000 C.3     1  NONAME1    -0.0396
     11 C10         4.0294   -6.9872    0.0840 C.3     1  NONAME1    -0.0236
     12 C11         5.4126   -6.2543    0.0111 C.ar    1  NONAME1    -0.0049
     13 C12         5.4813   -4.8590   -0.0491 C.ar    1  NONAME1    -0.0410
     14 C13         6.7167   -4.1639   -0.1179 C.ar    1  NONAME1     0.0639
     15 C14         6.7378   -2.6480   -0.2039 C.2     1  NONAME1     0.3866
     16 O2          7.8825   -2.0775   -0.2218 O.co2   1  NONAME1    -0.2406
     17 O3          5.6148   -2.0453   -0.2540 O.co2   1  NONAME1    -0.2406
     18 C15         7.9355   -4.8875   -0.1064 C.ar    1  NONAME1    -0.0407
     19 C16         7.9786   -6.2852   -0.0387 C.ar    1  NONAME1    -0.0012
     20 C17         9.3470   -7.0469   -0.0356 C.3     1  NONAME1    -0.0058
     21 C18        10.7557   -6.3362   -0.0215 C.2     1  NONAME1    -0.0809
     22 C19        12.0031   -6.9300    0.0000 C.2     1  NONAME1    -0.0793
     23 C20        13.3368   -6.1600    0.0000 C.3     1  NONAME1    -0.0440
     24 C21        12.0031   -8.4700    0.0000 C.3     1  NONAME1    -0.0440
     25 C22         6.6823   -6.9398    0.0115 C.ar    1  NONAME1     0.1235
     26 O4          6.6062   -8.3191    0.0572 O.3     1  NONAME1    -0.5062
     27 H1          1.0754  -11.5336    4.4706 H       1  NONAME1     0.0274
     28 H2         -0.0019  -10.5591    5.4893 H       1  NONAME1     0.0274
     29 H3         -0.6668  -11.5446    4.1704 H       1  NONAME1     0.0274
     30 H4          2.2573   -9.8190    3.1102 H       1  NONAME1     0.0274
     31 H5          3.0058   -8.2031    3.5089 H       1  NONAME1     0.0274
     32 H6          1.7849   -8.9450    4.6310 H       1  NONAME1     0.0274
     33 H7         -1.6565   -9.5994    2.9662 H       1  NONAME1     0.0576
     34 H8         -1.3797   -7.2949    2.1238 H       1  NONAME1     0.0384
     35 H9         -0.9192   -8.5584    1.0349 H       1  NONAME1     0.0384
     36 H10         0.0001   -7.6998    0.0366 H       1  NONAME1     0.0375
     37 H11         1.0154   -7.1626   -1.9162 H       1  NONAME1     0.0236
     38 H12        -0.6700   -6.5943   -2.2965 H       1  NONAME1     0.0236
     39 H13         0.3526   -5.6533   -1.1329 H       1  NONAME1     0.0236
     40 H14         2.7188   -5.6056   -0.9470 H       1  NONAME1     0.0275
     41 H15         2.6779   -5.3905    0.7800 H       1  NONAME1     0.0275
     42 H16         4.0147   -7.7057   -0.7457 H       1  NONAME1     0.0315
     43 H17         4.0163   -7.5556    1.0210 H       1  NONAME1     0.0315
     44 H18         4.5736   -4.2542   -0.0516 H       1  NONAME1     0.0630
     45 H19         8.8485   -4.2981   -0.1587 H       1  NONAME1     0.0630
     46 H20         9.3198   -7.6908    0.8520 H       1  NONAME1     0.0357
     47 H21         9.3326   -7.6823   -0.9307 H       1  NONAME1     0.0357
     48 H22        10.7174   -5.2491   -0.0168 H       1  NONAME1     0.0575
     49 H23        13.7273   -6.6535   -0.9157 H       1  NONAME1     0.0274
     50 H24        14.6705   -5.3900    0.0000 H       1  NONAME1     0.0274
     51 H25        12.9102   -5.1856   -0.3167 H       1  NONAME1     0.0274
     52 H26        11.6168   -8.5639    1.0388 H       1  NONAME1     0.0274
     53 H27        12.0031  -10.0100    0.0000 H       1  NONAME1     0.0274
     54 H28        13.1053   -8.5813    0.0687 H       1  NONAME1     0.0274
     55 H29         7.5046   -8.6725    0.0051 H       1  NONAME1     0.2922
@<TRIPOS>BOND
     1     1     2    1
     2     2     3    1
     3     2     4    2
     4     4     5    1
     5     5     6    1
     6     6     7    2
     7     8     6    1
     8     8     9    1
     9     8    10    1
    10    10    11    1
    11    11    12    1
    12    12    13   ar
    13    13    14   ar
    14    14    15    1
    15    15    16   ar
    16    15    17   ar
    17    14    18   ar
    18    18    19   ar
    19    19    20    1
    20    20    21    1
    21    21    22    2
    22    22    23    1
    23    22    24    1
    24    19    25   ar
    25    12    25   ar
    26    25    26    1
    27     1    27    1
    28     1    28    1
    29     1    29    1
    30     3    30    1
    31     3    31    1
    32     3    32    1
    33     4    33    1
    34     5    34    1
    35     5    35    1
    36     8    36    1
    37     9    37    1
    38     9    38    1
    39     9    39    1
    40    10    40    1
    41    10    41    1
    42    11    42    1
    43    11    43    1
    44    13    44    1
    45    18    45    1
    46    20    46    1
    47    20    47    1
    48    21    48    1
    49    23    49    1
    50    23    50    1
    51    23    51    1
    52    24    52    1
    53    24    53    1
    54    24    54    1
    55    26    55    1
