REMARK  8 active torsions:
REMARK  status: ('A' for Active; 'I' for Inactive)
REMARK    1  A    between atoms: O1_2  and  C2_3 
REMARK    2  A    between atoms: C6_7  and  C7_8 
REMARK    3  A    between atoms: C7_8  and  S1_9 
REMARK    4  A    between atoms: S1_9  and  C8_10 
REMARK    5  A    between atoms: C8_10  and  C9_11 
REMARK    6  A    between atoms: C9_11  and  C10_12 
REMARK    7  A    between atoms: C10_12  and  O3_14 
REMARK    8  A    between atoms: O3_14  and  C11_15 
ROOT
ATOM      1  S1  NON d   1       6.034   1.412   0.491  0.00  0.00    -0.164 SA
ENDROOT
BRANCH   1   2
ATOM      2  C7  NON d   1       4.667   2.598   0.199  0.00  0.00     0.112 C 
BRANCH   2   3
ATOM      3  C6  NON d   1       4.171   3.426   1.370  0.00  0.00    -0.046 A 
ATOM      4  C5  NON d   1       2.887   4.000   1.304  0.00  0.00     0.008 A 
ATOM      5  C4  NON d   1       2.399   4.822   2.333  0.00  0.00     0.003 A 
ATOM      6  C3  NON d   1       3.184   5.101   3.453  0.00  0.00     0.037 A 
ATOM      7  C2  NON d   1       4.454   4.553   3.531  0.00  0.00     0.068 A 
ATOM      8  C15 NON d   1       4.939   3.727   2.499  0.00  0.00     0.044 A 
BRANCH   7   9
ATOM      9  O1  NON d   1       5.335   4.729   4.545  0.00  0.00    -0.356 OA
ATOM     10  C1  NON d   1       5.002   5.719   5.677  0.00  0.00     0.210 C 
ENDBRANCH   7   9
ENDBRANCH   2   3
ENDBRANCH   1   2
BRANCH   1  11
ATOM     11  C8  NON d   1       7.467   2.380  -0.141  0.00  0.00     0.084 C 
BRANCH  11  12
ATOM     12  C9  NON d   1       8.807   1.651   0.048  0.00  0.00     0.121 C 
BRANCH  12  13
ATOM     13  C10 NON d   1       9.422   1.154  -1.256  0.00  0.00     0.260 C 
ATOM     14  O2  NON d   1       9.611   1.837  -2.248  0.00  0.00    -0.265 OA
BRANCH  13  15
ATOM     15  O3  NON d   1       9.677  -0.179  -1.164  0.00  0.00    -0.311 OA
BRANCH  15  16
ATOM     16  C11 NON d   1      10.019  -1.127  -2.328  0.00  0.00     0.060 C 
ATOM     17  C12 NON d   1      10.360  -2.076  -3.492  0.00  0.00     0.045 C 
ATOM     18  C13 NON d   1      11.361  -1.469  -1.656  0.00  0.00     0.045 C 
ATOM     19  C14 NON d   1       8.676  -0.786  -3.000  0.00  0.00     0.045 C 
ENDBRANCH  15  16
ENDBRANCH  13  15
ENDBRANCH  12  13
ENDBRANCH  11  12
ENDBRANCH   1  11
TORSDOF 8
