@<TRIPOS>MOLECULE
*****
 48 50 0 0 0
SMALL
USER_CHARGES

@<TRIPOS>ATOM
      1 C1         -5.3347   -4.6200    0.0000 C.3     1  NONAME1    -0.0240
      2 C2         -5.3347   -3.0800    0.0000 C.ar    1  NONAME1     0.0218
      3 N1         -6.5727   -2.2782   -0.0577 N.ar    1  NONAME1    -0.3311
      4 C3         -6.6850   -0.8449    0.0306 C.ar    1  NONAME1     0.1969
      5 N2         -8.0021    0.0000    0.0000 N.pl3   1  NONAME1    -0.3072
      6 C4         -9.2248   -0.7302    0.2569 C.3     1  NONAME1     0.0030
      7 C5         -8.0021    1.5400    0.0000 C.3     1  NONAME1     0.0030
      8 N3         -5.4692   -0.1952    0.1385 N.ar    1  NONAME1    -0.2009
      9 C6         -4.2725   -0.8959    0.2377 C.ar    1  NONAME1     0.1268
     10 N4         -3.1743   -0.0479    0.4286 N.pl3   1  NONAME1    -0.3283
     11 C7         -1.7918   -0.3836    0.0461 C.3     1  NONAME1     0.0172
     12 C8         -0.8895    0.8249   -0.1700 C.3     1  NONAME1     0.0210
     13 C9         -0.2902    1.4575    1.0745 C.ar    1  NONAME1     0.1118
     14 N5          0.9172    1.9251    1.0341 N.ar    1  NONAME1    -0.2337
     15 C10         1.4113    2.6058    2.1631 C.ar    1  NONAME1     0.0781
     16 C11         2.6912    3.1627    2.1170 C.ar    1  NONAME1    -0.0355
     17 C12         3.1928    3.8932    3.2024 C.ar    1  NONAME1    -0.0597
     18 C13         2.4170    4.0666    4.3493 C.ar    1  NONAME1    -0.0609
     19 C14         1.1415    3.5001    4.4160 C.ar    1  NONAME1    -0.0474
     20 C15         0.6509    2.7794    3.3213 C.ar    1  NONAME1     0.0647
     21 C16        -0.6971    2.1870    3.3335 C.ar    1  NONAME1     0.2592
     22 O1         -1.4280    2.2375    4.3164 O.2     1  NONAME1    -0.2672
     23 N6         -1.0949    1.5736    2.1719 N.ar    1  NONAME1    -0.3103
     24 C17        -4.1731   -2.3186    0.2284 C.ar    1  NONAME1     0.0083
     25 C18        -2.8904   -3.0792    0.4655 C.3     1  NONAME1    -0.0348
     26 H1         -6.4385   -4.7115   -0.0103 H       1  NONAME1     0.0292
     27 H2         -5.3347   -6.1600    0.0000 H       1  NONAME1     0.0292
     28 H3         -4.9755   -4.6931   -1.0472 H       1  NONAME1     0.0292
     29 H4         -7.4502   -2.7714   -0.1724 H       1  NONAME1     0.1682
     30 H5        -10.0017   -0.0707    0.6574 H       1  NONAME1     0.0428
     31 H6         -9.5981   -1.1650   -0.6759 H       1  NONAME1     0.0428
     32 H7         -9.0737   -1.5349    0.9833 H       1  NONAME1     0.0428
     33 H8         -7.1876    1.6379   -0.7419 H       1  NONAME1     0.0428
     34 H9         -8.0021    3.0800    0.0000 H       1  NONAME1     0.0428
     35 H10        -8.9529    1.6388   -0.5577 H       1  NONAME1     0.0428
     36 H11        -3.4762    0.9000    0.1961 H       1  NONAME1     0.1475
     37 H12        -1.8045   -0.9390   -0.8978 H       1  NONAME1     0.0466
     38 H13        -1.3395   -1.0053    0.8244 H       1  NONAME1     0.0466
     39 H14        -1.3961    1.6080   -0.7391 H       1  NONAME1     0.0358
     40 H15        -0.0335    0.4876   -0.7714 H       1  NONAME1     0.0358
     41 H16         3.3002    3.0405    1.2250 H       1  NONAME1     0.0639
     42 H17         4.1871    4.3333    3.1485 H       1  NONAME1     0.0618
     43 H18         2.8019    4.6401    5.1880 H       1  NONAME1     0.0618
     44 H19         0.5307    3.6334    5.3057 H       1  NONAME1     0.0626
     45 H20        -2.0221    1.1713    2.1872 H       1  NONAME1     0.1700
     46 H21        -3.0557   -4.1461    0.6456 H       1  NONAME1     0.0279
     47 H22        -2.2349   -3.0175   -0.4073 H       1  NONAME1     0.0279
     48 H23        -2.3899   -2.7219    1.3685 H       1  NONAME1     0.0279
@<TRIPOS>BOND
     1     1     2    1
     2     2     3   ar
     3     3     4   ar
     4     4     5    1
     5     5     6    1
     6     5     7    1
     7     4     8   ar
     8     8     9   ar
     9     9    10    1
    10    10    11    1
    11    11    12    1
    12    12    13    1
    13    13    14   ar
    14    14    15   ar
    15    15    16   ar
    16    16    17   ar
    17    17    18   ar
    18    18    19   ar
    19    19    20   ar
    20    15    20   ar
    21    20    21   ar
    22    21    22    2
    23    21    23   ar
    24    13    23   ar
    25     9    24   ar
    26     2    24   ar
    27    24    25    1
    28     1    26    1
    29     1    27    1
    30     1    28    1
    31     3    29    1
    32     6    30    1
    33     6    31    1
    34     6    32    1
    35     7    33    1
    36     7    34    1
    37     7    35    1
    38    10    36    1
    39    11    37    1
    40    11    38    1
    41    12    39    1
    42    12    40    1
    43    16    41    1
    44    17    42    1
    45    18    43    1
    46    19    44    1
    47    23    45    1
    48    25    46    1
    49    25    47    1
    50    25    48    1
