@<TRIPOS>MOLECULE
*****
 70 72 0 0 0
SMALL
USER_CHARGES

@<TRIPOS>ATOM
      1 C1         -0.3248  -19.0648    1.2009 C.3     1  NONAME1    -0.0653
      2 C2          1.0021  -18.2846    1.1533 C.3     1  NONAME1    -0.0559
      3 C3          2.3026  -19.1174    1.3452 C.3     1  NONAME1    -0.0529
      4 C4          2.7228  -20.0310    0.1750 C.3     1  NONAME1    -0.0448
      5 C5          4.1449  -20.6571    0.3440 C.3     1  NONAME1     0.0243
      6 C6          5.2931  -19.6984    0.0035 C.2     1  NONAME1     0.2172
      7 O1          5.0315  -18.5815   -0.4487 O.2     1  NONAME1    -0.2755
      8 N1          6.5838  -20.2097    0.2099 N.am    1  NONAME1    -0.2854
      9 C7          7.8118  -19.4855    0.0310 C.ar    1  NONAME1     0.0351
     10 C8          7.8156  -18.1138   -0.2163 C.ar    1  NONAME1    -0.0404
     11 C9          9.0036  -17.4255   -0.4369 C.ar    1  NONAME1    -0.0583
     12 C10        10.2236  -18.0914   -0.3927 C.ar    1  NONAME1    -0.0407
     13 C11        10.3085  -19.4446   -0.0725 C.ar    1  NONAME1     0.0293
     14 N2         11.5344  -20.0652    0.2036 N.pl3   1  NONAME1    -0.3353
     15 C12        12.8829  -19.4803   -0.0728 C.3     1  NONAME1     0.0861
     16 C13        13.2114  -18.1159    0.5969 C.2     1  NONAME1     0.2343
     17 O2         12.5670  -17.6607    1.5404 O.2     1  NONAME1    -0.2738
     18 N3         14.3003  -17.4273    0.0336 N.am    1  NONAME1    -0.2842
     19 C14        14.4393  -16.0103    0.0861 C.ar    1  NONAME1     0.0342
     20 C15        13.3059  -15.1975    0.1101 C.ar    1  NONAME1    -0.0391
     21 C16        13.4185  -13.8075    0.0859 C.ar    1  NONAME1    -0.0409
     22 C17        14.6714  -13.1881    0.0786 C.ar    1  NONAME1     0.0532
     23 Cl1        14.6295  -11.4578    0.1245 Cl      1  NONAME1    -0.0828
     24 C18        15.8395  -13.9686    0.0682 C.ar    1  NONAME1     0.0567
     25 C19        17.2386  -13.4081    0.1831 C.2     1  NONAME1     0.2458
     26 O3         18.1333  -14.1459    0.5855 O.2     1  NONAME1    -0.2701
     27 N4         17.4508  -12.0839   -0.1594 N.am    1  NONAME1    -0.3085
     28 C20        18.6166  -11.2814    0.2520 C.3     1  NONAME1     0.0234
     29 C21        18.4259   -9.8265   -0.2179 C.3     1  NONAME1    -0.0345
     30 C22        19.5642   -8.9213    0.2420 C.3     1  NONAME1    -0.0514
     31 C23        20.9190   -9.4308   -0.2314 C.3     1  NONAME1    -0.0529
     32 C24        21.1400  -10.9070    0.0864 C.3     1  NONAME1    -0.0514
     33 C25        19.9565  -11.8111   -0.2775 C.3     1  NONAME1    -0.0345
     34 C26        15.7022  -15.3897    0.0389 C.ar    1  NONAME1    -0.0270
     35 C27         9.0733  -20.1333    0.1332 C.ar    1  NONAME1    -0.0196
     36 H1         -0.9690  -18.1619    1.2320 H       1  NONAME1     0.0230
     37 H2         -1.6517  -19.8450    1.2485 H       1  NONAME1     0.0230
     38 H3         -0.1864  -19.4390    2.2360 H       1  NONAME1     0.0230
     39 H4          0.9883  -17.5113    1.9336 H       1  NONAME1     0.0263
     40 H5          1.0677  -17.7635    0.1903 H       1  NONAME1     0.0263
     41 H6          2.2172  -19.7195    2.2574 H       1  NONAME1     0.0265
     42 H7          3.1146  -18.4013    1.5230 H       1  NONAME1     0.0265
     43 H8          1.9928  -20.8452    0.0922 H       1  NONAME1     0.0270
     44 H9          2.6763  -19.4691   -0.7660 H       1  NONAME1     0.0270
     45 H10         4.2764  -21.0360    1.3625 H       1  NONAME1     0.0358
     46 H11         4.2271  -21.5045   -0.3485 H       1  NONAME1     0.0358
     47 H12         6.6691  -21.1896    0.4501 H       1  NONAME1     0.1548
     48 H13         6.9062  -17.5251   -0.2281 H       1  NONAME1     0.0636
     49 H14         8.9785  -16.3553   -0.6202 H       1  NONAME1     0.0619
     50 H15        11.1065  -17.4973   -0.5803 H       1  NONAME1     0.0636
     51 H16        11.5029  -21.0720    0.0727 H       1  NONAME1     0.1466
     52 H17        13.6306  -20.1911    0.3013 H       1  NONAME1     0.0557
     53 H18        13.0207  -19.3930   -1.1562 H       1  NONAME1     0.0557
     54 H19        15.1122  -17.9695   -0.2347 H       1  NONAME1     0.1549
     55 H20        12.3069  -15.6246    0.1261 H       1  NONAME1     0.0636
     56 H21        12.5071  -13.2123    0.0916 H       1  NONAME1     0.0633
     57 H22        16.6173  -11.5429   -0.3566 H       1  NONAME1     0.1493
     58 H23        18.6329  -11.3012    1.3497 H       1  NONAME1     0.0498
     59 H24        17.4768   -9.4257    0.1583 H       1  NONAME1     0.0283
     60 H25        18.3598   -9.7974   -1.3142 H       1  NONAME1     0.0283
     61 H26        19.5573   -8.8509    1.3364 H       1  NONAME1     0.0266
     62 H27        19.4053   -7.9054   -0.1401 H       1  NONAME1     0.0266
     63 H28        21.0075   -9.2730   -1.3130 H       1  NONAME1     0.0265
     64 H29        21.7136   -8.8352    0.2356 H       1  NONAME1     0.0265
     65 H30        21.3544  -11.0111    1.1570 H       1  NONAME1     0.0266
     66 H31        22.0344  -11.2547   -0.4450 H       1  NONAME1     0.0266
     67 H32        20.1595  -12.8084    0.1259 H       1  NONAME1     0.0283
     68 H33        19.9036  -11.9213   -1.3674 H       1  NONAME1     0.0283
     69 H34        16.6046  -16.0001    0.0311 H       1  NONAME1     0.0644
     70 H35         9.1063  -21.1899    0.3880 H       1  NONAME1     0.0655
@<TRIPOS>BOND
     1     1     2    1
     2     2     3    1
     3     3     4    1
     4     4     5    1
     5     5     6    1
     6     6     7    2
     7     6     8   am
     8     8     9    1
     9     9    10   ar
    10    10    11   ar
    11    11    12   ar
    12    12    13   ar
    13    13    14    1
    14    14    15    1
    15    15    16    1
    16    16    17    2
    17    16    18   am
    18    18    19    1
    19    19    20   ar
    20    20    21   ar
    21    21    22   ar
    22    22    23    1
    23    22    24   ar
    24    24    25    1
    25    25    26    2
    26    25    27   am
    27    27    28    1
    28    28    29    1
    29    29    30    1
    30    30    31    1
    31    31    32    1
    32    32    33    1
    33    28    33    1
    34    24    34   ar
    35    19    34   ar
    36    13    35   ar
    37     9    35   ar
    38     1    36    1
    39     1    37    1
    40     1    38    1
    41     2    39    1
    42     2    40    1
    43     3    41    1
    44     3    42    1
    45     4    43    1
    46     4    44    1
    47     5    45    1
    48     5    46    1
    49     8    47    1
    50    10    48    1
    51    11    49    1
    52    12    50    1
    53    14    51    1
    54    15    52    1
    55    15    53    1
    56    18    54    1
    57    20    55    1
    58    21    56    1
    59    27    57    1
    60    28    58    1
    61    29    59    1
    62    29    60    1
    63    30    61    1
    64    30    62    1
    65    31    63    1
    66    31    64    1
    67    32    65    1
    68    32    66    1
    69    33    67    1
    70    33    68    1
    71    34    69    1
    72    35    70    1
