@<TRIPOS>MOLECULE
*****
 69 72 0 0 0
SMALL
USER_CHARGES

@<TRIPOS>ATOM
      1 C1          8.1875   -5.4902   -3.1266 C.3     1  NONAME1    -0.0181
      2 S1          8.3766   -7.1752   -2.4693 S.3     1  NONAME1    -0.1641
      3 C2          6.8785   -7.2813   -1.4444 C.3     1  NONAME1    -0.0044
      4 C3          7.0128   -7.7858    0.0009 C.3     1  NONAME1    -0.0169
      5 C4          7.8129   -9.0578    0.3186 C.3     1  NONAME1     0.1003
      6 N1          9.2407   -8.8365    0.0350 N.am    1  NONAME1    -0.3040
      7 C5         10.0362   -8.0763    0.8693 C.2     1  NONAME1     0.2136
      8 O1          9.6532   -7.7017    1.9737 O.2     1  NONAME1    -0.2758
      9 C6         11.4270   -7.7518    0.3479 C.3     1  NONAME1     0.0243
     10 C7         11.7034   -6.2786    0.0089 C.3     1  NONAME1    -0.0408
     11 C8         11.5956   -5.2703    1.1703 C.3     1  NONAME1    -0.0272
     12 C9         10.2613   -4.6164    1.4665 C.ar    1  NONAME1    -0.0473
     13 C10         9.1746   -4.6569    0.5902 C.ar    1  NONAME1    -0.0586
     14 C11         7.9662   -4.0267    0.9009 C.ar    1  NONAME1    -0.0615
     15 C12         7.8314   -3.3282    2.0940 C.ar    1  NONAME1    -0.0617
     16 C13         8.9091   -3.2503    2.9701 C.ar    1  NONAME1    -0.0615
     17 C14        10.1159   -3.8844    2.6564 C.ar    1  NONAME1    -0.0586
     18 C15         7.3119  -10.4598   -0.2035 C.2     1  NONAME1     0.2359
     19 O2          8.1161  -11.3341   -0.5304 O.2     1  NONAME1    -0.2736
     20 N2          5.9148  -10.7780   -0.1128 N.am    1  NONAME1    -0.2995
     21 C16         5.6352  -12.2013    0.1425 C.3     1  NONAME1     0.0205
     22 C17         4.1480  -12.6658    0.0000 C.3     1  NONAME1     0.0148
     23 C18         3.1398  -11.5017    0.0000 C.3     1  NONAME1     0.0338
     24 C19         3.8223  -10.9379   -1.4440 C.3     1  NONAME1     0.0148
     25 C20         5.1157  -10.1854   -1.1632 C.3     1  NONAME1     0.0205
     26 N3          1.9362  -12.5964   -0.6982 N.4     1  NONAME1     0.2361
     27 C21         0.6561  -12.7105    0.0844 C.3     1  NONAME1    -0.0272
     28 C22        -0.1612  -11.4520   -0.1419 C.3     1  NONAME1     0.0318
     29 C23         0.7449  -10.2937   -0.0281 C.ar    1  NONAME1     0.0729
     30 N4          0.2727   -9.0272    0.1123 N.ar    1  NONAME1    -0.2402
     31 C24         1.3269   -8.2888    0.3559 C.ar    1  NONAME1     0.0940
     32 N5          2.4650   -9.0441    0.3753 N.ar    1  NONAME1    -0.3434
     33 C25         2.1316  -10.3376    0.0000 C.ar    1  NONAME1     0.0904
     34 H1          7.1358   -5.2223   -3.2559 H       1  NONAME1     0.0340
     35 H2          8.6806   -5.4262   -4.0999 H       1  NONAME1     0.0340
     36 H3          8.6637   -4.7666   -2.4610 H       1  NONAME1     0.0340
     37 H4          6.4035   -6.2952   -1.3976 H       1  NONAME1     0.0377
     38 H5          6.1936   -7.9135   -2.0082 H       1  NONAME1     0.0377
     39 H6          7.4519   -6.9660    0.5815 H       1  NONAME1     0.0296
     40 H7          6.0048   -7.8927    0.4178 H       1  NONAME1     0.0296
     41 H8          7.7512   -9.1793    1.4103 H       1  NONAME1     0.0595
     42 H9          9.5772   -9.0648   -0.8929 H       1  NONAME1     0.1494
     43 H10        11.6247   -8.3479   -0.5510 H       1  NONAME1     0.0358
     44 H11        12.1454   -8.0961    1.1014 H       1  NONAME1     0.0358
     45 H12        11.1170   -5.9651   -0.8594 H       1  NONAME1     0.0273
     46 H13        12.7494   -6.2430   -0.3315 H       1  NONAME1     0.0273
     47 H14        12.2830   -4.4431    0.9419 H       1  NONAME1     0.0313
     48 H15        11.9743   -5.7425    2.0856 H       1  NONAME1     0.0313
     49 H16         9.2422   -5.1976   -0.3420 H       1  NONAME1     0.0620
     50 H17         7.1302   -4.0916    0.2103 H       1  NONAME1     0.0618
     51 H18         6.8903   -2.8449    2.3419 H       1  NONAME1     0.0618
     52 H19         8.8141   -2.6991    3.9016 H       1  NONAME1     0.0618
     53 H20        10.9463   -3.8072    3.3542 H       1  NONAME1     0.0620
     54 H21         6.2382  -12.8104   -0.5435 H       1  NONAME1     0.0467
     55 H22         6.0004  -12.4220    1.1530 H       1  NONAME1     0.0467
     56 H23         4.1389  -13.3473   -0.8641 H       1  NONAME1     0.0342
     57 H24         3.9347  -13.3069    0.8673 H       1  NONAME1     0.0342
     58 H25         4.0340  -11.7626   -2.1416 H       1  NONAME1     0.0342
     59 H26         3.1537  -10.2918   -2.0337 H       1  NONAME1     0.0342
     60 H27         4.8710   -9.1714   -0.8532 H       1  NONAME1     0.0467
     61 H28         5.7072  -10.1211   -2.0838 H       1  NONAME1     0.0467
     62 H29         2.2986  -13.5464   -0.8348 H       1  NONAME1     0.2023
     63 H30         1.7251  -12.2397   -1.6418 H       1  NONAME1     0.2023
     64 H31         0.9378  -12.8670    1.1303 H       1  NONAME1     0.0818
     65 H32         0.1314  -13.5954   -0.2889 H       1  NONAME1     0.0818
     66 H33        -0.6119  -11.4637   -1.1417 H       1  NONAME1     0.0381
     67 H34        -0.9736  -11.3937    0.5896 H       1  NONAME1     0.0381
     68 H35         1.3246   -7.2239    0.5569 H       1  NONAME1     0.1027
     69 H36         3.3756   -8.6899    0.6394 H       1  NONAME1     0.1667
@<TRIPOS>BOND
     1     1     2    1
     2     2     3    1
     3     3     4    1
     4     5     4    1
     5     5     6    1
     6     6     7   am
     7     7     8    2
     8     7     9    1
     9     9    10    1
    10    10    11    1
    11    11    12    1
    12    12    13   ar
    13    13    14   ar
    14    14    15   ar
    15    15    16   ar
    16    16    17   ar
    17    12    17   ar
    18     5    18    1
    19    18    19    2
    20    18    20   am
    21    20    21    1
    22    21    22    1
    23    22    23    1
    24    23    24    1
    25    24    25    1
    26    20    25    1
    27    23    26    1
    28    26    27    1
    29    27    28    1
    30    28    29    1
    31    29    30   ar
    32    30    31   ar
    33    31    32   ar
    34    32    33   ar
    35    29    33   ar
    36    23    33    1
    37     1    34    1
    38     1    35    1
    39     1    36    1
    40     3    37    1
    41     3    38    1
    42     4    39    1
    43     4    40    1
    44     5    41    1
    45     6    42    1
    46     9    43    1
    47     9    44    1
    48    10    45    1
    49    10    46    1
    50    11    47    1
    51    11    48    1
    52    13    49    1
    53    14    50    1
    54    15    51    1
    55    16    52    1
    56    17    53    1
    57    21    54    1
    58    21    55    1
    59    22    56    1
    60    22    57    1
    61    24    58    1
    62    24    59    1
    63    25    60    1
    64    25    61    1
    65    26    62    1
    66    26    63    1
    67    27    64    1
    68    27    65    1
    69    28    66    1
    70    28    67    1
    71    31    68    1
    72    32    69    1
