REMARK  7 active torsions:
REMARK  status: ('A' for Active; 'I' for Inactive)
REMARK    1  A    between atoms: C1_2  and  C2_3 
REMARK       I    between atoms: C1_2  and  N3_17 
REMARK    2  A    between atoms: C2_3  and  C3_4 
REMARK    3  A    between atoms: C3_4  and  N1_5 
REMARK       I    between atoms: N1_5  and  C4_6 
REMARK       I    between atoms: C4_6  and  N2_8 
REMARK    4  A    between atoms: N2_8  and  O3_9 
REMARK    5  A    between atoms: O3_9  and  C5_10 
REMARK    6  A    between atoms: C5_10  and  C6_11 
REMARK    7  A    between atoms: N3_17  and  C12_18 
ROOT
ATOM      1  N1  NON d   1       6.457  -2.323  -0.133  0.00  0.00    -0.346 N 
ATOM      2  C4  NON d   1       5.293  -3.066  -0.021  0.00  0.00     0.317 C 
ATOM      3  O2  NON d   1       5.290  -4.268   0.225  0.00  0.00    -0.252 OA
ATOM      4  N2  NON d   1       4.169  -2.282  -0.205  0.00  0.00    -0.119 NA
ATOM      5  H5  NON d   1       6.391  -1.435  -0.617  0.00  0.00     0.163 HD
ATOM      6  H6  NON d   1       4.269  -1.556  -0.902  0.00  0.00     0.165 HD
ENDROOT
BRANCH   1   7
ATOM      7  C3  NON d   1       7.737  -2.995  -0.259  0.00  0.00     0.133 C 
BRANCH   7   8
ATOM      8  C2  NON d   1       8.933  -2.094   0.031  0.00  0.00     0.122 C 
BRANCH   8   9
ATOM      9  C1  NON d   1       9.070  -0.964  -0.973  0.00  0.00     0.219 C 
ATOM     10  O1  NON d   1       8.097  -0.425  -1.493  0.00  0.00    -0.274 OA
ATOM     11  N3  NON d   1      10.376  -0.577  -1.192  0.00  0.00    -0.356 N 
ATOM     12  H14 NON d   1      11.079  -0.923  -0.550  0.00  0.00     0.162 HD
BRANCH  11  13
ATOM     13  C12 NON d   1      10.723   0.587  -1.985  0.00  0.00     0.084 C 
ATOM     14  C13 NON d   1      12.235   0.746  -2.133  0.00  0.00     0.025 C 
ATOM     15  C14 NON d   1      12.392   1.722  -3.289  0.00  0.00     0.002 C 
ATOM     16  C15 NON d   1      11.175   1.497  -4.187  0.00  0.00     0.002 C 
ATOM     17  C16 NON d   1      10.265   0.522  -3.442  0.00  0.00     0.025 C 
ENDBRANCH  11  13
ENDBRANCH   8   9
ENDBRANCH   7   8
ENDBRANCH   1   7
BRANCH   4  18
ATOM     18  O3  NON d   1       2.977  -3.049  -0.356  0.00  0.00    -0.293 OA
BRANCH  18  19
ATOM     19  C5  NON d   1       1.860  -2.242   0.030  0.00  0.00     0.233 C 
BRANCH  19  20
ATOM     20  C6  NON d   1       0.557  -3.012   0.025  0.00  0.00    -0.033 A 
ATOM     21  C7  NON d   1       0.511  -4.411   0.074  0.00  0.00     0.009 A 
ATOM     22  C8  NON d   1      -0.715  -5.083   0.104  0.00  0.00     0.001 A 
ATOM     23  C9  NON d   1      -1.909  -4.364   0.096  0.00  0.00     0.000 A 
ATOM     24  C10 NON d   1      -1.880  -2.973   0.059  0.00  0.00     0.001 A 
ATOM     25  C11 NON d   1      -0.656  -2.301   0.027  0.00  0.00     0.009 A 
ENDBRANCH  19  20
ENDBRANCH  18  19
ENDBRANCH   4  18
TORSDOF 7
