@<TRIPOS>MOLECULE
*****
 50 53 0 0 0
SMALL
USER_CHARGES

@<TRIPOS>ATOM
      1 C1         -2.9855    2.0244    0.0535 C.3     1  NONAME1    -0.0612
      2 C2         -1.5246    1.6376    0.2613 C.3     1  NONAME1    -0.0286
      3 C3         -0.4867    2.7334    0.1611 C.ar    1  NONAME1    -0.0237
      4 C4         -0.8038    4.0539   -0.2088 C.ar    1  NONAME1    -0.0566
      5 C5          0.1805    5.0057   -0.4679 C.ar    1  NONAME1    -0.0608
      6 C6          1.5330    4.6587   -0.4229 C.ar    1  NONAME1    -0.0519
      7 C7          1.9075    3.3659   -0.0051 C.ar    1  NONAME1     0.0105
      8 C8          3.1699    2.6620    0.0800 C.ar    1  NONAME1     0.0444
      9 C9          4.4334    3.0733   -0.5852 C.2     1  NONAME1     0.1879
     10 O1          4.3378    3.7815   -1.5979 O.2     1  NONAME1    -0.2899
     11 C10         5.9416    2.7105    0.0000 C.3     1  NONAME1     0.1126
     12 N1          6.9636    2.7869   -1.2275 N.3     1  NONAME1    -0.2256
     13 N2          7.3104    4.0970   -1.6344 N.am    1  NONAME1    -0.2498
     14 C11         8.5393    4.6185   -1.2789 C.2     1  NONAME1     0.2296
     15 O2          9.3405    4.0535   -0.5409 O.2     1  NONAME1    -0.2742
     16 C12         8.8274    5.9766   -1.8032 C.3     1  NONAME1     0.0368
     17 C13         9.9787    6.1152   -2.8213 C.3     1  NONAME1    -0.0412
     18 C14         8.5184    6.4039   -3.1673 C.3     1  NONAME1    -0.0412
     19 C15         5.9416    1.1705    0.0000 C.ar    1  NONAME1    -0.0215
     20 C16         6.8389    0.5622    0.9034 C.ar    1  NONAME1    -0.0566
     21 C17         7.0306   -0.8217    0.9126 C.ar    1  NONAME1    -0.0614
     22 C18         6.3006   -1.6320    0.0483 C.ar    1  NONAME1    -0.0617
     23 C19         5.4138   -1.0567   -0.8571 C.ar    1  NONAME1    -0.0614
     24 C20         5.2683    0.3325   -0.9125 C.ar    1  NONAME1    -0.0566
     25 C21         2.8901    1.4992    0.7753 C.ar    1  NONAME1     0.0133
     26 N3          1.5251    1.3490    0.8264 N.ar    1  NONAME1    -0.3597
     27 C22         0.8925    2.4705    0.3431 C.ar    1  NONAME1     0.0504
     28 H1         -3.1430    2.5193   -0.9103 H       1  NONAME1     0.0233
     29 H2         -3.3349    2.6927    0.8473 H       1  NONAME1     0.0233
     30 H3         -3.6161    1.1289    0.0657 H       1  NONAME1     0.0233
     31 H4         -1.4291    1.1422    1.2333 H       1  NONAME1     0.0311
     32 H5         -1.2760    0.8921   -0.5065 H       1  NONAME1     0.0311
     33 H6         -1.8412    4.3610   -0.3247 H       1  NONAME1     0.0621
     34 H7         -0.1072    6.0155   -0.7499 H       1  NONAME1     0.0618
     35 H8          2.2896    5.3909   -0.6904 H       1  NONAME1     0.0624
     36 H9          5.9416    4.2505    0.0000 H       1  NONAME1     0.0609
     37 H10         7.8336    2.3512   -0.8926 H       1  NONAME1     0.1454
     38 H11         6.6700    4.5976   -2.2489 H       1  NONAME1     0.1690
     39 H12         8.7781    6.7369   -1.0291 H       1  NONAME1     0.0394
     40 H13        10.7582    6.5015   -2.1234 H       1  NONAME1     0.0273
     41 H14        10.4423    6.8706   -3.4943 H       1  NONAME1     0.0273
     42 H15         8.2275    7.4390   -3.3182 H       1  NONAME1     0.0273
     43 H16         8.0453    5.7217   -3.8641 H       1  NONAME1     0.0273
     44 H17         7.4482    1.1774    1.5648 H       1  NONAME1     0.0621
     45 H18         7.7669   -1.2638    1.5792 H       1  NONAME1     0.0618
     46 H19         6.4427   -2.7092    0.0600 H       1  NONAME1     0.0618
     47 H20         4.8524   -1.6858   -1.5432 H       1  NONAME1     0.0618
     48 H21         4.6169    0.7440   -1.6818 H       1  NONAME1     0.0621
     49 H22         3.5109    0.6826    1.1139 H       1  NONAME1     0.0814
     50 H23         1.0450    0.5294    1.1714 H       1  NONAME1     0.1654
@<TRIPOS>BOND
     1     1     2    1
     2     2     3    1
     3     3     4   ar
     4     4     5   ar
     5     5     6   ar
     6     6     7   ar
     7     7     8   ar
     8     8     9    1
     9     9    10    2
    10    11     9    1
    11    11    12    1
    12    12    13    1
    13    13    14   am
    14    14    15    2
    15    14    16    1
    16    16    17    1
    17    17    18    1
    18    16    18    1
    19    11    19    1
    20    19    20   ar
    21    20    21   ar
    22    21    22   ar
    23    22    23   ar
    24    23    24   ar
    25    19    24   ar
    26     8    25   ar
    27    25    26   ar
    28    26    27   ar
    29     3    27   ar
    30     7    27   ar
    31     1    28    1
    32     1    29    1
    33     1    30    1
    34     2    31    1
    35     2    32    1
    36     4    33    1
    37     5    34    1
    38     6    35    1
    39    11    36    1
    40    12    37    1
    41    13    38    1
    42    16    39    1
    43    17    40    1
    44    17    41    1
    45    18    42    1
    46    18    43    1
    47    20    44    1
    48    21    45    1
    49    22    46    1
    50    23    47    1
    51    24    48    1
    52    25    49    1
    53    26    50    1
