@<TRIPOS>MOLECULE
*****
 50 53 0 0 0
SMALL
USER_CHARGES

@<TRIPOS>ATOM
      1 C1          8.0021    4.6200    0.0000 C.3     1  NONAME1     0.0788
      2 O1          6.6684    3.8500    0.0000 O.3     1  NONAME1    -0.4948
      3 C2          5.5152    4.5770   -0.0118 C.ar    1  NONAME1     0.1242
      4 C3          5.5476    5.9732    0.1364 C.ar    1  NONAME1    -0.0197
      5 C4          4.4192    6.7414   -0.1238 C.ar    1  NONAME1    -0.0583
      6 C5          3.2739    6.1221   -0.5904 C.ar    1  NONAME1    -0.0612
      7 C6          3.2346    4.7287   -0.6950 C.ar    1  NONAME1    -0.0542
      8 C7          4.2998    3.8957   -0.2768 C.ar    1  NONAME1     0.0064
      9 C8          4.1113    2.3589   -0.3973 C.3     1  NONAME1     0.0494
     10 C9          5.1238    1.3205    0.0954 C.ar    1  NONAME1     0.0073
     11 C10         6.1384    1.4533    1.0409 C.ar    1  NONAME1    -0.0507
     12 C11         7.1233    0.4629    1.1591 C.ar    1  NONAME1    -0.0197
     13 C12         7.0438   -0.7024    0.4049 C.ar    1  NONAME1     0.1204
     14 O2          8.0627   -1.6012    0.5066 O.3     1  NONAME1    -0.5066
     15 C13         5.9407   -0.9454   -0.3970 C.ar    1  NONAME1     0.0225
     16 C14         4.9774    0.0541   -0.5100 C.ar    1  NONAME1     0.1379
     17 O3          3.8212   -0.2412   -1.2104 O.3     1  NONAME1    -0.4371
     18 C15         2.6819    0.3799   -0.7224 C.ar    1  NONAME1     0.2292
     19 N1          1.5838   -0.3831   -0.7446 N.ar    1  NONAME1    -0.2025
     20 C16         0.4716    0.1951   -0.2782 C.ar    1  NONAME1     0.1010
     21 N2          0.3847    1.4444    0.2133 N.ar    1  NONAME1    -0.3199
     22 C17        -0.9322    2.1225    0.4249 C.3     1  NONAME1     0.0278
     23 C18        -2.2064    1.3871    0.0077 C.3     1  NONAME1    -0.0116
     24 C19        -2.8103    0.5894    1.1569 C.3     1  NONAME1     0.0458
     25 O4         -1.8193   -0.2711    1.6911 O.3     1  NONAME1    -0.3949
     26 C20         1.5506    2.1462    0.3956 C.ar    1  NONAME1     0.1065
     27 N3          1.5180    3.3475    1.0961 N.pl3   1  NONAME1    -0.3440
     28 C21         2.7302    1.6831   -0.2160 C.ar    1  NONAME1     0.0641
     29 H1          8.5953    3.7156    0.2222 H       1  NONAME1     0.0660
     30 H2          9.3358    5.3900    0.0000 H       1  NONAME1     0.0660
     31 H3          8.0044    4.7619   -1.0972 H       1  NONAME1     0.0660
     32 H4          6.4587    6.4931    0.4178 H       1  NONAME1     0.0654
     33 H5          4.4593    7.8237   -0.0284 H       1  NONAME1     0.0619
     34 H6          2.4151    6.7176   -0.8878 H       1  NONAME1     0.0618
     35 H7          2.3344    4.3027   -1.1316 H       1  NONAME1     0.0622
     36 H8          4.2520    2.3054   -1.4949 H       1  NONAME1     0.0451
     37 H9          6.2372    2.3442    1.6538 H       1  NONAME1     0.0623
     38 H10         7.9759    0.6212    1.8172 H       1  NONAME1     0.0654
     39 H11         7.9751   -2.2604   -0.2013 H       1  NONAME1     0.2921
     40 H12         5.8145   -1.8885   -0.9186 H       1  NONAME1     0.0691
     41 H13        -0.4164   -0.4250   -0.3280 H       1  NONAME1     0.1030
     42 H14        -0.8671    3.0267   -0.1960 H       1  NONAME1     0.0493
     43 H15        -0.9849    2.4206    1.4765 H       1  NONAME1     0.0493
     44 H16        -2.0469    0.7503   -0.8677 H       1  NONAME1     0.0304
     45 H17        -2.9572    2.1273   -0.2989 H       1  NONAME1     0.0304
     46 H18        -3.1564    1.2600    1.9506 H       1  NONAME1     0.0558
     47 H19        -3.6594   -0.0070    0.8083 H       1  NONAME1     0.0558
     48 H20        -2.2596   -0.8162    2.3761 H       1  NONAME1     0.2094
     49 H21         2.3716    3.5610    1.6151 H       1  NONAME1     0.1437
     50 H22         0.7028    3.6312    1.6207 H       1  NONAME1     0.1437
@<TRIPOS>BOND
     1     1     2    1
     2     2     3    1
     3     3     4   ar
     4     4     5   ar
     5     5     6   ar
     6     6     7   ar
     7     7     8   ar
     8     3     8   ar
     9     9     8    1
    10     9    10    1
    11    10    11   ar
    12    11    12   ar
    13    12    13   ar
    14    13    14    1
    15    13    15   ar
    16    15    16   ar
    17    10    16   ar
    18    16    17    1
    19    17    18    1
    20    18    19   ar
    21    19    20   ar
    22    20    21   ar
    23    21    22    1
    24    22    23    1
    25    23    24    1
    26    24    25    1
    27    21    26   ar
    28    26    27    1
    29    26    28   ar
    30    18    28   ar
    31     9    28    1
    32     1    29    1
    33     1    30    1
    34     1    31    1
    35     4    32    1
    36     5    33    1
    37     6    34    1
    38     7    35    1
    39     9    36    1
    40    11    37    1
    41    12    38    1
    42    14    39    1
    43    15    40    1
    44    20    41    1
    45    22    42    1
    46    22    43    1
    47    23    44    1
    48    23    45    1
    49    24    46    1
    50    24    47    1
    51    25    48    1
    52    27    49    1
    53    27    50    1
