REMARK  10 active torsions:
REMARK  status: ('A' for Active; 'I' for Inactive)
REMARK    1  A    between atoms: C2_2  and  C3_3 
REMARK    2  A    between atoms: C3_3  and  C4_4 
REMARK    3  A    between atoms: C4_4  and  C5_5 
REMARK    4  A    between atoms: C5_5  and  O1_6 
REMARK    5  A    between atoms: O1_6  and  C6_7 
REMARK    6  A    between atoms: C9_10  and  C10_11 
REMARK       I    between atoms: C10_11  and  N1_13 
REMARK    7  A    between atoms: N1_13  and  N2_14 
REMARK       I    between atoms: N2_14  and  C11_15 
REMARK    8  A    between atoms: C11_15  and  C12_17 
REMARK    9  A    between atoms: C12_17  and  O4_18 
REMARK   10  A    between atoms: O4_18  and  C13_19 
ROOT
ATOM      1  C10 NON d   1       9.461  -3.737   0.030  0.00  0.00     0.270 C 
ATOM      2  O2  NON d   1       9.457  -4.970  -0.020  0.00  0.00    -0.266 OA
ATOM      3  N1  NON d   1      10.661  -3.041   0.046  0.00  0.00    -0.263 N 
ATOM      4  H14 NON d   1      10.769  -2.032   0.105  0.00  0.00     0.190 HD
ENDROOT
BRANCH   3   5
ATOM      5  N2  NON d   1      11.854  -3.807   0.015  0.00  0.00    -0.265 N 
ATOM      6  C11 NON d   1      13.088  -3.173   0.037  0.00  0.00     0.260 C 
ATOM      7  O3  NON d   1      13.181  -1.946   0.083  0.00  0.00    -0.269 OA
ATOM      8  H15 NON d   1      11.726  -4.817  -0.028  0.00  0.00     0.190 HD
BRANCH   6   9
ATOM      9  C12 NON d   1      14.295  -4.141   0.005  0.00  0.00     0.280 C 
BRANCH   9  10
ATOM     10  O4  NON d   1      15.528  -3.429  -0.027  0.00  0.00    -0.342 OA
BRANCH  10  11
ATOM     11  C13 NON d   1      16.710  -4.120  -0.024  0.00  0.00     0.070 A 
ATOM     12  C14 NON d   1      17.846  -3.306  -0.031  0.00  0.00     0.037 A 
ATOM     13  C15 NON d   1      19.131  -3.858  -0.025  0.00  0.00     0.015 A 
ATOM     14  C16 NON d   1      19.313  -5.244  -0.015  0.00  0.00    -0.026 A 
ATOM     15  C17 NON d   1      20.602  -5.808  -0.008  0.00  0.00     0.012 A 
ATOM     16  C21 NON d   1      18.174  -6.084  -0.010  0.00  0.00    -0.023 A 
ATOM     17  C18 NON d   1      20.776  -7.192   0.001  0.00  0.00     0.001 A 
ATOM     18  C19 NON d   1      19.663  -8.026   0.005  0.00  0.00     0.001 A 
ATOM     19  C20 NON d   1      18.374  -7.477  -0.002  0.00  0.00     0.012 A 
ATOM     20  C22 NON d   1      16.878  -5.505  -0.016  0.00  0.00     0.049 A 
ENDBRANCH  10  11
ENDBRANCH   9  10
ENDBRANCH   6   9
ENDBRANCH   3   5
BRANCH   1  21
ATOM     21  C9  NON d   1       8.156  -2.989   0.080  0.00  0.00     0.033 A 
ATOM     22  C8  NON d   1       8.030  -1.596   0.092  0.00  0.00     0.020 A 
ATOM     23  C7  NON d   1       6.752  -0.997   0.137  0.00  0.00     0.038 A 
ATOM     24  C6  NON d   1       5.580  -1.764   0.172  0.00  0.00     0.068 A 
ATOM     25  C24 NON d   1       5.704  -3.151   0.165  0.00  0.00     0.038 A 
ATOM     26  C23 NON d   1       6.974  -3.752   0.115  0.00  0.00     0.020 A 
BRANCH  24  27
ATOM     27  O1  NON d   1       4.400  -1.058   0.208  0.00  0.00    -0.351 OA
BRANCH  27  28
ATOM     28  C5  NON d   1       3.184  -1.818   0.187  0.00  0.00     0.175 C 
BRANCH  28  29
ATOM     29  C4  NON d   1       1.963  -0.912  -0.037  0.00  0.00     0.027 C 
BRANCH  29  30
ATOM     30  C3  NON d   1       1.600  -0.042   1.173  0.00  0.00     0.002 C 
BRANCH  30  31
ATOM     31  C2  NON d   1       0.371   0.844   0.917  0.00  0.00    -0.004 C 
ATOM     32  C1  NON d   1      -0.954   0.093   0.970  0.00  0.00     0.005 C 
ENDBRANCH  30  31
ENDBRANCH  29  30
ENDBRANCH  28  29
ENDBRANCH  27  28
ENDBRANCH  24  27
ENDBRANCH   1  21
TORSDOF 10
