@<TRIPOS>MOLECULE
*****
 51 54 0 0 0
SMALL
USER_CHARGES

@<TRIPOS>ATOM
      1 C1          9.4675    7.2932    2.3243 C.3     1  NONAME1    -0.0576
      2 C2          9.1277    6.3416    1.1621 C.3     1  NONAME1    -0.0034
      3 C3          9.5943    6.6947   -0.2496 C.3     1  NONAME1    -0.0408
      4 C4          9.4199    5.4783   -1.1705 C.3     1  NONAME1    -0.0121
      5 C5          7.9943    4.9285   -1.1770 C.3     1  NONAME1    -0.0316
      6 N1          7.5241    4.6755    0.2179 N.4     1  NONAME1     0.2389
      7 C6          6.1826    3.9495    0.2929 C.3     1  NONAME1     0.0014
      8 C7          6.2289    2.4302    0.2309 C.ar    1  NONAME1     0.0863
      9 C8          7.4443    1.7047    0.4134 C.ar    1  NONAME1     0.1907
     10 O1          8.5584    2.2796    0.6465 O.3     1  NONAME1    -0.2873
     11 C9          7.3581    0.2781    0.3442 C.ar    1  NONAME1    -0.0136
     12 C10         6.1667   -0.4295    0.1571 C.ar    1  NONAME1    -0.0436
     13 C11         5.0273    0.3184    0.0436 C.ar    1  NONAME1     0.0683
     14 C12         5.0409    1.7090    0.0777 C.ar    1  NONAME1     0.1514
     15 O2          3.7702    2.2473   -0.0071 O.3     1  NONAME1    -0.4508
     16 C13         2.8911    1.1689   -0.0717 C.2     1  NONAME1     0.1762
     17 C14         1.5480    1.2040   -0.0903 C.2     1  NONAME1    -0.0083
     18 C15         0.6460    2.3705   -0.0542 C.ar    1  NONAME1    -0.0193
     19 C16        -0.7423    2.1470   -0.0739 C.ar    1  NONAME1    -0.0543
     20 C17        -1.6530    3.2110   -0.0443 C.ar    1  NONAME1    -0.0590
     21 C18        -1.1918    4.5240    0.0075 C.ar    1  NONAME1    -0.0314
     22 C19         0.1859    4.7586    0.0321 C.ar    1  NONAME1     0.1268
     23 N2          0.6957    6.1342    0.0890 N.pl3   1  NONAME1     0.0564
     24 O3         -0.1301    7.0568    0.1023 O.2     1  NONAME1    -0.1261
     25 O4          1.9266    6.2935    0.1197 O.2     1  NONAME1    -0.1261
     26 C20         1.0978    3.6925    0.0021 C.ar    1  NONAME1    -0.0242
     27 C21         3.6402   -0.1158   -0.0778 C.2     1  NONAME1     0.2315
     28 O5          3.2051   -1.2464   -0.1465 O.2     1  NONAME1    -0.2832
     29 C22         7.6673    5.8360    1.1528 C.3     1  NONAME1    -0.0289
     30 H1         10.1728    7.9317    1.7564 H       1  NONAME1     0.0234
     31 H2          9.8072    8.2447    3.4865 H       1  NONAME1     0.0234
     32 H3          8.4840    7.8056    2.3438 H       1  NONAME1     0.0234
     33 H4          9.7130    5.4499    1.4413 H       1  NONAME1     0.0350
     34 H5          9.0319    7.5494   -0.6397 H       1  NONAME1     0.0271
     35 H6         10.6553    6.9722   -0.2406 H       1  NONAME1     0.0271
     36 H7         10.1099    4.6859   -0.8492 H       1  NONAME1     0.0317
     37 H8          9.7144    5.7454   -2.1915 H       1  NONAME1     0.0317
     38 H9          7.9499    3.9862   -1.7344 H       1  NONAME1     0.0814
     39 H10         7.3021    5.6443   -1.6316 H       1  NONAME1     0.0814
     40 H11         8.1547    3.8941    0.5589 H       1  NONAME1     0.2037
     41 H12         5.5676    4.3479   -0.5222 H       1  NONAME1     0.0870
     42 H13         5.7210    4.2301    1.2467 H       1  NONAME1     0.0870
     43 H14         8.2784   -0.2989    0.4664 H       1  NONAME1     0.0656
     44 H15         6.1476   -1.5137    0.1334 H       1  NONAME1     0.0627
     45 H16         1.0366    0.2397   -0.1261 H       1  NONAME1     0.0661
     46 H17        -1.1384    1.1326   -0.1120 H       1  NONAME1     0.0623
     47 H18        -2.7230    3.0095   -0.0621 H       1  NONAME1     0.0618
     48 H19        -1.9095    5.3418    0.0282 H       1  NONAME1     0.0640
     49 H20         2.1595    3.9100    0.0259 H       1  NONAME1     0.0646
     50 H21         7.3724    5.4913    2.1495 H       1  NONAME1     0.0817
     51 H22         6.9734    6.6127    0.8126 H       1  NONAME1     0.0817
@<TRIPOS>BOND
     1     2     1    1
     2     2     3    1
     3     3     4    1
     4     4     5    1
     5     6     5    1
     6     6     7    1
     7     7     8    1
     8     8     9   ar
     9     9    10    1
    10     9    11   ar
    11    11    12   ar
    12    12    13   ar
    13    13    14   ar
    14     8    14   ar
    15    14    15    1
    16    15    16    1
    17    16    17    2
    18    17    18    1
    19    18    19   ar
    20    19    20   ar
    21    20    21   ar
    22    21    22   ar
    23    22    23    1
    24    23    24    2
    25    23    25    1
    26    22    26   ar
    27    18    26   ar
    28    16    27    1
    29    13    27    1
    30    27    28    2
    31     6    29    1
    32     2    29    1
    33     1    30    1
    34     1    31    1
    35     1    32    1
    36     2    33    1
    37     3    34    1
    38     3    35    1
    39     4    36    1
    40     4    37    1
    41     5    38    1
    42     5    39    1
    43     6    40    1
    44     7    41    1
    45     7    42    1
    46    11    43    1
    47    12    44    1
    48    17    45    1
    49    19    46    1
    50    20    47    1
    51    21    48    1
    52    26    49    1
    53    29    50    1
    54    29    51    1
