@<TRIPOS>MOLECULE
*****
 41 42 0 0 0
SMALL
USER_CHARGES

@<TRIPOS>ATOM
      1 C1         -7.5414   -6.2230    0.0000 C.3     1  NONAME1    -0.0608
      2 C2         -6.6362   -4.9771    0.0000 C.3     1  NONAME1    -0.0240
      3 C3         -5.1425   -5.2025   -0.0073 C.ar    1  NONAME1    -0.0068
      4 S1         -4.1765   -3.7765    0.0645 S.2     1  NONAME1    -0.0883
      5 C4         -2.7028   -4.6395   -0.0001 C.ar    1  NONAME1     0.0758
      6 C5         -1.4548   -3.8836    0.0273 C.2     1  NONAME1     0.2668
      7 O1         -1.3830   -2.6509    0.0761 O.2     1  NONAME1    -0.2681
      8 N1         -0.2849   -4.6271   -0.0002 N.am    1  NONAME1    -0.2297
      9 N2          0.9420   -3.9396    0.0269 N.am    1  NONAME1    -0.2300
     10 C6          2.1132   -4.6734   -0.0857 C.2     1  NONAME1     0.2638
     11 O2          2.0557   -5.8958   -0.2007 O.2     1  NONAME1    -0.2685
     12 C7          3.4121   -3.9048   -0.0653 C.ar    1  NONAME1     0.0831
     13 C8          3.4297   -2.5008   -0.1477 C.ar    1  NONAME1    -0.0458
     14 C9          4.6379   -1.7919   -0.1371 C.ar    1  NONAME1    -0.0574
     15 C10         5.8547   -2.4650   -0.0549 C.ar    1  NONAME1    -0.0163
     16 C11         5.8680   -3.8555    0.0195 C.ar    1  NONAME1     0.1620
     17 O3          6.9932   -4.6410    0.0976 O.3     1  NONAME1    -0.4914
     18 C12         8.2492   -3.9699    0.1038 C.3     1  NONAME1     0.0790
     19 C13         4.6492   -4.5648    0.0173 C.ar    1  NONAME1     0.1708
     20 O4          4.7283   -5.9322    0.1104 O.3     1  NONAME1    -0.5028
     21 C14        -2.9465   -5.9977   -0.0701 C.ar    1  NONAME1    -0.0393
     22 C15        -4.3512   -6.3396   -0.0796 C.ar    1  NONAME1    -0.0395
     23 C16        -4.8343   -7.7513   -0.1591 C.3     1  NONAME1    -0.0389
     24 H1         -8.4938   -5.6531   -0.0114 H       1  NONAME1     0.0233
     25 H2         -8.4466   -7.4689    0.0000 H       1  NONAME1     0.0233
     26 H3         -7.3196   -6.5121    1.0488 H       1  NONAME1     0.0233
     27 H4         -6.8763   -4.4031   -0.9061 H       1  NONAME1     0.0316
     28 H5         -6.8941   -4.3490    0.8647 H       1  NONAME1     0.0316
     29 H6         -0.2303   -5.6404   -0.0563 H       1  NONAME1     0.1731
     30 H7          0.8695   -2.9340    0.1476 H       1  NONAME1     0.1731
     31 H8          2.5221   -1.9144   -0.2355 H       1  NONAME1     0.0626
     32 H9          4.6264   -0.7052   -0.1988 H       1  NONAME1     0.0619
     33 H10         6.7678   -1.8785   -0.0553 H       1  NONAME1     0.0655
     34 H11         9.0337   -4.7302    0.1696 H       1  NONAME1     0.0660
     35 H12         8.4042   -3.4117   -0.8254 H       1  NONAME1     0.0660
     36 H13         8.3434   -3.3182    0.9785 H       1  NONAME1     0.0660
     37 H14         5.6801   -6.1483    0.1273 H       1  NONAME1     0.2923
     38 H15        -2.1623   -6.7438   -0.1198 H       1  NONAME1     0.0633
     39 H16        -5.5203   -7.8803   -1.0017 H       1  NONAME1     0.0278
     40 H17        -5.3454   -8.0331    0.7667 H       1  NONAME1     0.0278
     41 H18        -4.0008   -8.4469   -0.3033 H       1  NONAME1     0.0278
@<TRIPOS>BOND
     1     1     2    1
     2     2     3    1
     3     3     4   ar
     4     4     5   ar
     5     5     6    1
     6     6     7    2
     7     6     8   am
     8     8     9    1
     9     9    10   am
    10    10    11    2
    11    10    12    1
    12    12    13   ar
    13    13    14   ar
    14    14    15   ar
    15    15    16   ar
    16    16    17    1
    17    17    18    1
    18    16    19   ar
    19    12    19   ar
    20    19    20    1
    21     5    21   ar
    22    21    22   ar
    23     3    22   ar
    24    22    23    1
    25     1    24    1
    26     1    25    1
    27     1    26    1
    28     2    27    1
    29     2    28    1
    30     8    29    1
    31     9    30    1
    32    13    31    1
    33    14    32    1
    34    15    33    1
    35    18    34    1
    36    18    35    1
    37    18    36    1
    38    20    37    1
    39    21    38    1
    40    23    39    1
    41    23    40    1
    42    23    41    1
