@<TRIPOS>MOLECULE
*****
 44 46 0 0 0
SMALL
USER_CHARGES

@<TRIPOS>ATOM
      1 C1         -3.4222    1.5378   -0.2231 C.3     1  NONAME1    -0.0216
      2 C2         -2.2404    0.6380    0.0267 C.ar    1  NONAME1     0.0523
      3 N1         -1.0585    1.3017    0.1376 N.ar    1  NONAME1    -0.2436
      4 C3          0.0747    0.6347    0.4459 C.ar    1  NONAME1     0.1156
      5 S1          1.4198    1.7578    0.7967 S.3     1  NONAME1    -0.0953
      6 C4          2.8571    0.9992   -0.0162 C.3     1  NONAME1     0.0760
      7 C5          3.9831    1.9984   -0.2165 C.2     1  NONAME1     0.2207
      8 N2          5.2394    1.4675   -0.0980 N.am    1  NONAME1    -0.3286
      9 O1          3.8457    3.1792   -0.5135 O.2     1  NONAME1    -0.2751
     10 C6          0.0688   -0.7531    0.5615 C.ar    1  NONAME1     0.0925
     11 C7          1.2520   -1.4617    0.9494 C.1     1  NONAME1     0.1025
     12 N3          2.2152   -2.0475    1.2273 N.1     1  NONAME1    -0.1908
     13 C8         -1.1449   -1.4756    0.3639 C.ar    1  NONAME1     0.0225
     14 C9         -1.0664   -2.9503    0.3488 C.ar    1  NONAME1     0.0214
     15 C10        -0.3648   -3.7447   -0.5453 C.ar    1  NONAME1    -0.0469
     16 C11        -0.4657   -5.1321   -0.2437 C.ar    1  NONAME1    -0.0541
     17 C12        -1.2571   -5.3580    0.8584 C.ar    1  NONAME1    -0.0237
     18 S2         -1.7875   -3.8987    1.5796 S.2     1  NONAME1    -0.0966
     19 C13        -2.3441   -0.7551    0.1626 C.ar    1  NONAME1     0.0675
     20 C14        -3.7226   -1.3289    0.2449 C.2     1  NONAME1     0.2506
     21 O2         -4.5326   -0.7064    0.9304 O.2     1  NONAME1    -0.2698
     22 N4         -3.9969   -2.5244   -0.3878 N.am    1  NONAME1    -0.2814
     23 C15        -5.2418   -3.2057   -0.3082 C.ar    1  NONAME1     0.0337
     24 C16        -5.2484   -4.5951   -0.4712 C.ar    1  NONAME1    -0.0405
     25 C17        -6.4390   -5.3198   -0.3400 C.ar    1  NONAME1    -0.0600
     26 C18        -7.6384   -4.6589   -0.0833 C.ar    1  NONAME1    -0.0616
     27 C19        -7.6495   -3.2740    0.0433 C.ar    1  NONAME1    -0.0600
     28 C20        -6.4551   -2.5511   -0.0674 C.ar    1  NONAME1    -0.0405
     29 H1         -3.0880    2.5213   -0.5724 H       1  NONAME1     0.0293
     30 H2         -3.9864    1.6955    0.7011 H       1  NONAME1     0.0293
     31 H3         -4.0776    1.1281   -0.9980 H       1  NONAME1     0.0293
     32 H4          2.5957    0.5781   -0.9907 H       1  NONAME1     0.0475
     33 H5          3.2394    0.2149    0.6383 H       1  NONAME1     0.0475
     34 H6          5.4279    0.5359    0.2506 H       1  NONAME1     0.1450
     35 H7          6.0198    2.1056   -0.1867 H       1  NONAME1     0.1450
     36 H8          0.2239   -3.3522   -1.3681 H       1  NONAME1     0.0629
     37 H9          0.0249   -5.9204   -0.8042 H       1  NONAME1     0.0623
     38 H10        -1.5200   -6.3109    1.2981 H       1  NONAME1     0.0693
     39 H11        -3.2252   -3.0752   -0.7366 H       1  NONAME1     0.1551
     40 H12        -4.3262   -5.1399   -0.6481 H       1  NONAME1     0.0636
     41 H13        -6.4288   -6.4035   -0.4246 H       1  NONAME1     0.0618
     42 H14        -8.5626   -5.2206    0.0217 H       1  NONAME1     0.0618
     43 H15        -8.5825   -2.7488    0.2310 H       1  NONAME1     0.0618
     44 H16        -6.5066   -1.4703    0.0291 H       1  NONAME1     0.0636
@<TRIPOS>BOND
     1     1     2    1
     2     2     3   ar
     3     3     4   ar
     4     4     5    1
     5     5     6    1
     6     6     7    1
     7     7     8   am
     8     7     9    2
     9     4    10   ar
    10    10    11    1
    11    11    12    3
    12    10    13   ar
    13    13    14    1
    14    14    15   ar
    15    15    16   ar
    16    16    17   ar
    17    17    18   ar
    18    14    18   ar
    19    13    19   ar
    20     2    19   ar
    21    19    20    1
    22    20    21    2
    23    20    22   am
    24    22    23    1
    25    23    24   ar
    26    24    25   ar
    27    25    26   ar
    28    26    27   ar
    29    27    28   ar
    30    23    28   ar
    31     1    29    1
    32     1    30    1
    33     1    31    1
    34     6    32    1
    35     6    33    1
    36     8    34    1
    37     8    35    1
    38    15    36    1
    39    16    37    1
    40    17    38    1
    41    22    39    1
    42    24    40    1
    43    25    41    1
    44    26    42    1
    45    27    43    1
    46    28    44    1
