REMARK  15 active torsions:
REMARK  status: ('A' for Active; 'I' for Inactive)
REMARK    1  A    between atoms: C2_2  and  N1_3 
REMARK       I    between atoms: N1_3  and  C3_4 
REMARK    2  A    between atoms: N1_3  and  C25_33 
REMARK    3  A    between atoms: C3_4  and  C4_6 
REMARK    4  A    between atoms: C7_9  and  N2_10 
REMARK    5  A    between atoms: N2_10  and  C8_11 
REMARK    6  A    between atoms: C8_11  and  N3_13 
REMARK       I    between atoms: N3_13  and  C9_14 
REMARK    7  A    between atoms: C9_14  and  C10_16 
REMARK    8  A    between atoms: C10_16  and  C11_17 
REMARK    9  A    between atoms: C11_17  and  C12_18 
REMARK   10  A    between atoms: C12_18  and  C13_19 
REMARK   11  A    between atoms: C13_19  and  O4_21 
REMARK   12  A    between atoms: O4_21  and  C14_22 
REMARK   13  A    between atoms: C14_22  and  C15_23 
REMARK   14  A    between atoms: C15_23  and  C16_24 
REMARK   15  A    between atoms: C16_24  and  C17_25 
ROOT
ATOM      1  C8  NON d   1       1.426 -10.049  -0.410  0.00  0.00     0.178 C 
ATOM      2  S1  NON d   1       1.713 -11.337  -1.457  0.00  0.00    -0.040 SA
ENDROOT
BRANCH   1   3
ATOM      3  N2  NON d   1       0.173  -9.510  -0.107  0.00  0.00    -0.333 N 
ATOM      4  H8  NON d   1       0.123  -8.516   0.072  0.00  0.00     0.168 HD
BRANCH   3   5
ATOM      5  C7  NON d   1      -1.054 -10.212  -0.048  0.00  0.00     0.034 A 
ATOM      6  C6  NON d   1      -2.264  -9.549  -0.223  0.00  0.00     0.030 A 
ATOM      7  C5  NON d   1      -3.478 -10.274  -0.231  0.00  0.00     0.019 A 
ATOM      8  C4  NON d   1      -3.536 -11.671  -0.021  0.00  0.00     0.032 A 
ATOM      9  C24 NON d   1      -2.306 -12.268   0.281  0.00  0.00     0.019 A 
ATOM     10  C23 NON d   1      -1.097 -11.562   0.260  0.00  0.00     0.030 A 
BRANCH   8  11
ATOM     11  C3  NON d   1      -4.925 -12.337  -0.143  0.00  0.00     0.258 C 
ATOM     12  N1  NON d   1      -5.159 -13.764  -0.128  0.00  0.00    -0.314 N 
ATOM     13  O1  NON d   1      -5.840 -11.524  -0.322  0.00  0.00    -0.267 OA
BRANCH  12  14
ATOM     14  C2  NON d   1      -4.001 -14.630   0.000  0.00  0.00     0.128 C 
ATOM     15  C1  NON d   1      -4.001 -16.170   0.000  0.00  0.00     0.027 C 
ENDBRANCH  12  14
BRANCH  12  16
ATOM     16  C25 NON d   1      -6.510 -14.325  -0.164  0.00  0.00     0.037 A 
ATOM     17  C26 NON d   1      -6.770 -15.661  -0.520  0.00  0.00     0.029 A 
ATOM     18  C27 NON d   1      -8.048 -16.238  -0.445  0.00  0.00     0.002 A 
ATOM     19  C28 NON d   1      -9.138 -15.466  -0.080  0.00  0.00     0.000 A 
ATOM     20  C29 NON d   1      -8.939 -14.124   0.204  0.00  0.00     0.002 A 
ATOM     21  C30 NON d   1      -7.645 -13.570   0.177  0.00  0.00     0.029 A 
ENDBRANCH  12  16
ENDBRANCH   8  11
ENDBRANCH   3   5
ENDBRANCH   1   3
BRANCH   1  22
ATOM     22  N3  NON d   1       2.453  -9.301   0.149  0.00  0.00    -0.304 N 
ATOM     23  C9  NON d   1       3.662  -9.889   0.491  0.00  0.00     0.223 C 
ATOM     24  O2  NON d   1       3.763 -10.687   1.420  0.00  0.00    -0.273 OA
ATOM     25  H9  NON d   1       2.545  -8.412  -0.319  0.00  0.00     0.171 HD
BRANCH  23  26
ATOM     26  C10 NON d   1       4.861  -9.297  -0.235  0.00  0.00     0.103 C 
BRANCH  26  27
ATOM     27  C11 NON d   1       6.160 -10.106  -0.114  0.00  0.00     0.019 C 
BRANCH  27  28
ATOM     28  C12 NON d   1       6.476 -10.979  -1.335  0.00  0.00     0.111 C 
BRANCH  28  29
ATOM     29  C13 NON d   1       5.768 -12.318  -1.356  0.00  0.00     0.258 C 
ATOM     30  O3  NON d   1       5.133 -12.793  -0.432  0.00  0.00    -0.265 OA
BRANCH  29  31
ATOM     31  O4  NON d   1       5.971 -12.921  -2.561  0.00  0.00    -0.321 OA
BRANCH  31  32
ATOM     32  C14 NON d   1       5.305 -14.189  -2.695  0.00  0.00     0.179 C 
BRANCH  32  33
ATOM     33  C15 NON d   1       5.691 -14.794  -4.042  0.00  0.00     0.031 C 
BRANCH  33  34
ATOM     34  C16 NON d   1       4.877 -16.044  -4.397  0.00  0.00     0.041 C 
BRANCH  34  35
ATOM     35  C17 NON d   1       3.436 -15.855  -4.823  0.00  0.00    -0.058 A 
ATOM     36  C18 NON d   1       2.837 -14.605  -5.027  0.00  0.00     0.007 A 
ATOM     37  C19 NON d   1       1.500 -14.505  -5.418  0.00  0.00     0.001 A 
ATOM     38  C20 NON d   1       0.745 -15.654  -5.635  0.00  0.00     0.000 A 
ATOM     39  C21 NON d   1       1.328 -16.906  -5.460  0.00  0.00     0.001 A 
ATOM     40  C22 NON d   1       2.662 -17.005  -5.056  0.00  0.00     0.007 A 
ENDBRANCH  34  35
ENDBRANCH  33  34
ENDBRANCH  32  33
ENDBRANCH  31  32
ENDBRANCH  29  31
ENDBRANCH  28  29
ENDBRANCH  27  28
ENDBRANCH  26  27
ENDBRANCH  23  26
ENDBRANCH   1  22
TORSDOF 15
