REMARK  4 active torsions:
REMARK  status: ('A' for Active; 'I' for Inactive)
REMARK    1  A    between atoms: N1_1  and  C1_2 
REMARK    2  A    between atoms: C2_3  and  C3_4 
REMARK    3  A    between atoms: N3_16  and  C12_17 
REMARK    4  A    between atoms: C12_17  and  C13_18 
ROOT
ATOM      1  C1  NON d   1      -0.918  -0.180  -0.225  0.00  0.00     0.093 A 
ATOM      2  C2  NON d   1      -0.203  -1.273   0.133  0.00  0.00     0.085 A 
ATOM      3  C10 NON d   1      -1.199  -2.233   0.665  0.00  0.00     0.183 A 
ATOM      4  O1  NON d   1      -0.957  -3.354   1.090  0.00  0.00    -0.290 OA
ATOM      5  C11 NON d   1      -2.584  -1.624   0.583  0.00  0.00     0.208 A 
ATOM      6  N3  NON d   1      -2.271  -0.280   0.087  0.00  0.00    -0.359 N 
ENDROOT
BRANCH   2   7
ATOM      7  C3  NON d   1       1.200  -1.409   0.037  0.00  0.00     0.116 A 
ATOM      8  N2  NON d   1       2.052  -0.394  -0.020  0.00  0.00    -0.239 NA
ATOM      9  C4  NON d   1       3.361  -0.838  -0.059  0.00  0.00     0.075 A 
ATOM     10  C5  NON d   1       4.507  -0.020  -0.078  0.00  0.00     0.033 A 
ATOM     11  C9  NON d   1       3.518  -2.221  -0.077  0.00  0.00     0.035 A 
ATOM     12  C6  NON d   1       5.776  -0.605  -0.107  0.00  0.00     0.002 A 
ATOM     13  C7  NON d   1       5.912  -1.989  -0.127  0.00  0.00     0.002 A 
ATOM     14  C8  NON d   1       4.787  -2.821  -0.117  0.00  0.00     0.021 A 
ATOM     15  S1  NON d   1       1.966  -2.958  -0.039  0.00  0.00    -0.067 SA
ENDBRANCH   2   7
BRANCH   1  16
ATOM     16  N1  NON d   1      -0.399   0.941  -0.818  0.00  0.00    -0.288 NA
ATOM     17  H1  NON d   1       0.618   0.990  -0.699  0.00  0.00     0.125 HD
ATOM     18  H2  NON d   1      -0.842   1.777  -0.445  0.00  0.00     0.125 HD
ENDBRANCH   1  16
BRANCH   6  19
ATOM     19  C12 NON d   1      -3.355   0.485  -0.525  0.00  0.00     0.170 C 
BRANCH  19  20
ATOM     20  C13 NON d   1      -3.620   1.907  -0.075  0.00  0.00     0.000 A 
ATOM     21  C14 NON d   1      -4.746   2.659  -0.369  0.00  0.00     0.017 A 
ATOM     22  C15 NON d   1      -4.663   3.996   0.117  0.00  0.00     0.008 A 
ATOM     23  C16 NON d   1      -3.484   4.224   0.786  0.00  0.00     0.050 A 
ATOM     24  S2  NON d   1      -2.517   2.820   0.869  0.00  0.00    -0.105 SA
ENDBRANCH  19  20
ENDBRANCH   6  19
TORSDOF 4
