@<TRIPOS>MOLECULE
*****
 61 63 0 0 0
SMALL
USER_CHARGES

@<TRIPOS>ATOM
      1 C1         -0.4126  -17.2421    0.0000 C.3     1  NONAME1    -0.0397
      2 C2          0.3574  -15.9084    0.0000 C.ar    1  NONAME1    -0.0501
      3 C3         -0.1358  -14.6277   -0.3348 C.ar    1  NONAME1    -0.0571
      4 C4          0.7060  -13.4113   -0.5197 C.ar    1  NONAME1    -0.0400
      5 C5          2.1131  -13.3604   -0.3540 C.ar    1  NONAME1     0.0364
      6 N1          2.9607  -12.1760   -0.6206 N.am    1  NONAME1    -0.2837
      7 C6          4.2074  -11.9074    0.0000 C.2     1  NONAME1     0.2375
      8 O1          4.6152  -12.5788    0.9740 O.2     1  NONAME1    -0.2734
      9 C7          4.9774  -10.5737    0.0000 C.3     1  NONAME1     0.1001
     10 C8          4.0903   -9.0722   -0.1302 C.3     1  NONAME1    -0.0236
     11 C9          3.2558   -8.9003    1.1622 C.3     1  NONAME1    -0.0446
     12 C10         2.0638   -9.8233    1.4764 C.3     1  NONAME1    -0.0626
     13 C11         3.4963   -7.6375    2.0103 C.3     1  NONAME1    -0.0626
     14 N2          6.4200  -10.8803    0.2809 N.am    1  NONAME1    -0.2994
     15 C12         7.4126  -10.4075   -0.5695 C.2     1  NONAME1     0.2621
     16 O2          7.2164  -10.2178   -1.7659 O.2     1  NONAME1    -0.2696
     17 C13         8.8031  -10.1213    0.0511 C.3     1  NONAME1     0.0592
     18 C14         9.3010   -8.7011   -0.3303 C.3     1  NONAME1     0.0246
     19 C15        10.7905   -8.4792   -0.1359 C.ar    1  NONAME1    -0.0334
     20 C16        11.3181   -7.1771   -0.1773 C.ar    1  NONAME1    -0.0579
     21 C17        12.6933   -6.9604   -0.0651 C.ar    1  NONAME1    -0.0615
     22 C18        13.5600   -8.0382    0.0838 C.ar    1  NONAME1    -0.0613
     23 C19        13.0515   -9.3356    0.1251 C.ar    1  NONAME1    -0.0533
     24 C20        11.6700   -9.5686    0.0024 C.ar    1  NONAME1     0.0004
     25 C21        11.1512  -10.9721    0.0880 C.3     1  NONAME1    -0.0067
     26 N3          9.7895  -11.1303   -0.4824 N.4     1  NONAME1     0.2393
     27 C22         2.6674  -14.5747    0.0000 C.ar    1  NONAME1    -0.0290
     28 C23         4.2074  -14.5747    0.0000 C.3     1  NONAME1    -0.0379
     29 C24         1.8051  -15.8138    0.1634 C.ar    1  NONAME1    -0.0542
     30 H1         -1.3178  -16.8339   -0.4934 H       1  NONAME1     0.0278
     31 H2         -1.1826  -18.5758    0.0000 H       1  NONAME1     0.0278
     32 H3          0.2141  -17.6990   -0.7941 H       1  NONAME1     0.0278
     33 H4         -1.2060  -14.5047   -0.5102 H       1  NONAME1     0.0621
     34 H5          0.1760  -12.4999   -0.7967 H       1  NONAME1     0.0636
     35 H6          2.4837  -11.4263   -1.1061 H       1  NONAME1     0.1549
     36 H7          5.7474   -9.2400    0.0000 H       1  NONAME1     0.0595
     37 H8          3.4731   -9.1285   -1.0504 H       1  NONAME1     0.0290
     38 H9          4.6227   -8.1227   -0.3448 H       1  NONAME1     0.0290
     39 H10         3.0154  -10.1631    0.3142 H       1  NONAME1     0.0296
     40 H11         2.3195   -9.9747    2.5438 H       1  NONAME1     0.0232
     41 H12         0.8718  -10.7464    1.7905 H       1  NONAME1     0.0232
     42 H13         1.2945   -9.0338    1.3536 H       1  NONAME1     0.0232
     43 H14         4.6030   -7.6829    1.9501 H       1  NONAME1     0.0232
     44 H15         3.7368   -6.3747    2.8583 H       1  NONAME1     0.0232
     45 H16         3.2059   -8.0927    2.9777 H       1  NONAME1     0.0232
     46 H17         6.5980  -11.2460    1.2063 H       1  NONAME1     0.1496
     47 H18         8.7694  -10.2441    1.1390 H       1  NONAME1     0.0952
     48 H19         8.7470   -7.9603    0.2607 H       1  NONAME1     0.0373
     49 H20         9.0821   -8.4884   -1.3855 H       1  NONAME1     0.0373
     50 H21        10.6678   -6.3116   -0.3061 H       1  NONAME1     0.0620
     51 H22        13.0958   -5.9480   -0.0975 H       1  NONAME1     0.0618
     52 H23        14.6313   -7.8667    0.1665 H       1  NONAME1     0.0618
     53 H24        13.7518  -10.1600    0.2451 H       1  NONAME1     0.0622
     54 H25        11.1001  -11.2954    1.1305 H       1  NONAME1     0.0867
     55 H26        11.7907  -11.6610   -0.4705 H       1  NONAME1     0.0867
     56 H27         9.8296  -11.0137   -1.5071 H       1  NONAME1     0.2025
     57 H28         9.4383  -12.0808   -0.3189 H       1  NONAME1     0.2025
     58 H29         4.2874  -15.2411   -0.8835 H       1  NONAME1     0.0278
     59 H30         5.7474  -14.5747    0.0000 H       1  NONAME1     0.0278
     60 H31         4.2888  -15.1829    0.9250 H       1  NONAME1     0.0278
     61 H32         2.3456  -16.7418    0.3705 H       1  NONAME1     0.0623
@<TRIPOS>BOND
     1     1     2    1
     2     2     3   ar
     3     3     4   ar
     4     4     5   ar
     5     5     6    1
     6     6     7   am
     7     7     8    2
     8     9     7    1
     9     9    10    1
    10    10    11    1
    11    11    12    1
    12    11    13    1
    13     9    14    1
    14    14    15   am
    15    15    16    2
    16    17    15    1
    17    17    18    1
    18    18    19    1
    19    19    20   ar
    20    20    21   ar
    21    21    22   ar
    22    22    23   ar
    23    23    24   ar
    24    19    24   ar
    25    24    25    1
    26    25    26    1
    27    17    26    1
    28     5    27   ar
    29    27    28    1
    30    27    29   ar
    31     2    29   ar
    32     1    30    1
    33     1    31    1
    34     1    32    1
    35     3    33    1
    36     4    34    1
    37     6    35    1
    38     9    36    1
    39    10    37    1
    40    10    38    1
    41    11    39    1
    42    12    40    1
    43    12    41    1
    44    12    42    1
    45    13    43    1
    46    13    44    1
    47    13    45    1
    48    14    46    1
    49    17    47    1
    50    18    48    1
    51    18    49    1
    52    20    50    1
    53    21    51    1
    54    22    52    1
    55    23    53    1
    56    25    54    1
    57    25    55    1
    58    26    56    1
    59    26    57    1
    60    28    58    1
    61    28    59    1
    62    28    60    1
    63    29    61    1
