@<TRIPOS>MOLECULE
*****
 37 39 0 0 0
SMALL
USER_CHARGES

@<TRIPOS>ATOM
      1 C1          2.6797  -11.6099   -2.3658 C.3     1  NONAME1    -0.0274
      2 C2          3.3533  -11.0771   -1.0874 C.2     1  NONAME1     0.0206
      3 N1          4.3630  -11.6736   -0.5313 N.am    1  NONAME1    -0.2082
      4 C3          4.8155  -10.9876    0.5733 C.2     1  NONAME1     0.1307
      5 S1          6.2729  -11.2601    1.3440 S.2     1  NONAME1    -0.0261
      6 S2          3.7000   -9.7282    1.1188 S.3     1  NONAME1    -0.0913
      7 C4          2.8699   -9.7391   -0.5086 C.3     1  NONAME1     0.0555
      8 C5          1.3536   -9.4316   -0.3924 C.3     1  NONAME1     0.0415
      9 C6          1.1302   -7.9106   -0.3959 C.2     1  NONAME1     0.2200
     10 O1          2.0830   -7.1800   -0.6582 O.2     1  NONAME1    -0.2754
     11 N2         -0.1657   -7.4634   -0.1593 N.am    1  NONAME1    -0.2646
     12 C7         -0.5304   -6.1162   -0.0679 C.ar    1  NONAME1     0.1649
     13 N3         -1.7768   -5.6614   -0.0696 N.ar    1  NONAME1    -0.2245
     14 C8         -1.7654   -4.2573    0.0083 C.ar    1  NONAME1     0.0817
     15 C9         -2.9916   -3.4289   -0.0172 C.ar    1  NONAME1     0.0189
     16 C10        -4.3228   -3.7826   -0.0310 C.ar    1  NONAME1     0.0115
     17 N4         -5.0771   -2.6233   -0.0388 N.ar    1  NONAME1    -0.3565
     18 C11        -4.2603   -1.5108   -0.0271 C.ar    1  NONAME1     0.1022
     19 C12        -4.6333   -0.1086   -0.0267 C.2     1  NONAME1     0.2578
     20 N5         -5.9658    0.1841   -0.0168 N.am    1  NONAME1    -0.3241
     21 O2         -3.8276    0.8193   -0.0271 O.2     1  NONAME1    -0.2688
     22 C13        -2.9653   -2.0046   -0.0186 C.ar    1  NONAME1    -0.0227
     23 C14        -0.5055   -3.7029    0.1113 C.ar    1  NONAME1     0.0049
     24 S3          0.6744   -4.9136    0.1387 S.2     1  NONAME1    -0.0599
     25 H1          3.3688  -12.4726   -2.4891 H       1  NONAME1     0.0288
     26 H2          2.0062  -12.1427   -3.6441 H       1  NONAME1     0.0288
     27 H3          1.7765  -11.9693   -1.8280 H       1  NONAME1     0.0288
     28 H4          3.3693   -8.9942   -1.1379 H       1  NONAME1     0.0479
     29 H5          0.9104   -9.8719    0.5085 H       1  NONAME1     0.0373
     30 H6          0.8139   -9.8329   -1.2570 H       1  NONAME1     0.0373
     31 H7         -0.9494   -8.1010   -0.1626 H       1  NONAME1     0.1567
     32 H8         -4.8052   -4.7476   -0.0369 H       1  NONAME1     0.0813
     33 H9         -6.0864   -2.6010   -0.0492 H       1  NONAME1     0.1655
     34 H10        -6.1988    1.1689    0.0007 H       1  NONAME1     0.1453
     35 H11        -6.7145   -0.4852    0.0190 H       1  NONAME1     0.1453
     36 H12        -2.0947   -1.3599   -0.0124 H       1  NONAME1     0.0647
     37 H13        -0.2277   -2.6627    0.1813 H       1  NONAME1     0.0716
@<TRIPOS>BOND
     1     1     2    1
     2     2     3    2
     3     3     4    1
     4     4     5    2
     5     4     6    1
     6     6     7    1
     7     2     7    1
     8     7     8    1
     9     8     9    1
    10     9    10    2
    11     9    11   am
    12    11    12    1
    13    12    13   ar
    14    13    14   ar
    15    14    15    1
    16    15    16   ar
    17    16    17   ar
    18    17    18   ar
    19    18    19    1
    20    19    20   am
    21    19    21    2
    22    18    22   ar
    23    15    22   ar
    24    14    23   ar
    25    23    24   ar
    26    12    24   ar
    27     1    25    1
    28     1    26    1
    29     1    27    1
    30     7    28    1
    31     8    29    1
    32     8    30    1
    33    11    31    1
    34    16    32    1
    35    17    33    1
    36    20    34    1
    37    20    35    1
    38    22    36    1
    39    23    37    1
