REMARK  8 active torsions:
REMARK  status: ('A' for Active; 'I' for Inactive)
REMARK    1  A    between atoms: O1_2  and  C2_3 
REMARK    2  A    between atoms: C2_3  and  C3_5 
REMARK    3  A    between atoms: C3_5  and  C4_6 
REMARK    4  A    between atoms: C4_6  and  C5_7 
REMARK    5  A    between atoms: C8_10  and  N1_11 
REMARK       I    between atoms: N1_11  and  C9_12 
REMARK    6  A    between atoms: C10_14  and  C9_12 
REMARK    7  A    between atoms: C10_14  and  C12_16 
REMARK    8  A    between atoms: C12_16  and  S1_17 
ROOT
ATOM      1  C5  NON d   1      -2.285   5.963  -0.084  0.00  0.00    -0.058 A 
ATOM      2  C6  NON d   1      -1.100   6.691  -0.276  0.00  0.00     0.009 A 
ATOM      3  C7  NON d   1       0.152   6.059  -0.317  0.00  0.00     0.030 A 
ATOM      4  C8  NON d   1       0.264   4.678  -0.148  0.00  0.00     0.034 A 
ATOM      5  C14 NON d   1      -0.911   3.947   0.066  0.00  0.00     0.030 A 
ATOM      6  C15 NON d   1      -2.173   4.578   0.082  0.00  0.00     0.009 A 
ENDROOT
BRANCH   4   7
ATOM      7  N1  NON d   1       1.515   4.001  -0.104  0.00  0.00    -0.327 N 
ATOM      8  C9  NON d   1       2.714   4.493  -0.609  0.00  0.00     0.226 C 
ATOM      9  O3  NON d   1       2.775   5.422  -1.412  0.00  0.00    -0.273 OA
ATOM     10  H10 NON d   1       1.504   3.058   0.256  0.00  0.00     0.169 HD
BRANCH   8  11
ATOM     11  C10 NON d   1       4.001   3.850   0.000  0.00  0.00     0.083 C 
ATOM     12  C11 NON d   1       4.001   2.310   0.000  0.00  0.00     0.020 C 
BRANCH  11  13
ATOM     13  C12 NON d   1       5.191   4.706  -0.357  0.00  0.00     0.087 C 
BRANCH  13  14
ATOM     14  S1  NON d   1       5.676   5.569   1.164  0.00  0.00    -0.173 SA
ATOM     15  C13 NON d   1       4.752   6.758   1.485  0.00  0.00     0.089 C 
ENDBRANCH  13  14
ENDBRANCH  11  13
ENDBRANCH   8  11
ENDBRANCH   4   7
BRANCH   1  16
ATOM     16  C4  NON d   1      -3.589   6.738  -0.033  0.00  0.00     0.048 C 
BRANCH  16  17
ATOM     17  C3  NON d   1      -4.902   5.947  -0.005  0.00  0.00     0.115 C 
BRANCH  17  18
ATOM     18  C2  NON d   1      -6.098   6.882   0.021  0.00  0.00     0.258 C 
ATOM     19  O2  NON d   1      -6.044   8.101   0.059  0.00  0.00    -0.265 OA
BRANCH  18  20
ATOM     20  O1  NON d   1      -7.249   6.146   0.004  0.00  0.00    -0.326 OA
ATOM     21  C1  NON d   1      -8.465   6.904   0.031  0.00  0.00     0.213 C 
ENDBRANCH  18  20
ENDBRANCH  17  18
ENDBRANCH  16  17
ENDBRANCH   1  16
TORSDOF 8
