@<TRIPOS>MOLECULE
*****
 58 60 0 0 0
SMALL
USER_CHARGES

@<TRIPOS>ATOM
      1 C1          1.0089    0.1795    1.2056 C.3     1  NONAME1    -0.0416
      2 C2          2.3341    0.9625    1.1551 C.3     1  NONAME1     0.0450
      3 O1          3.5176    0.0978    1.3889 O.3     1  NONAME1    -0.3767
      4 C3          4.2397   -0.3526    0.2032 C.3     1  NONAME1     0.0817
      5 C4          5.5003   -1.3071    0.4690 C.3     1  NONAME1     0.1128
      6 O2          6.8102   -0.6646    0.3163 O.3     1  NONAME1    -0.4897
      7 C5          7.9752   -1.4255    0.2622 C.ar    1  NONAME1     0.1207
      8 C6          9.2070   -0.7283    0.1990 C.ar    1  NONAME1    -0.0192
      9 C7         10.4924   -1.3778    0.1230 C.ar    1  NONAME1    -0.0462
     10 C8         10.5887   -2.7687    0.0951 C.ar    1  NONAME1     0.0373
     11 C9         11.8588   -3.6301   -0.0255 C.2     1  NONAME1     0.2495
     12 O3         11.6412   -4.8290   -0.2129 O.2     1  NONAME1    -0.2698
     13 N1         13.1958   -3.1164    0.0293 N.am    1  NONAME1    -0.2627
     14 C10        14.4158   -3.8743    0.0592 C.2     1  NONAME1     0.1533
     15 S1         14.5259   -5.5588    0.1322 S.2     1  NONAME1    -0.0170
     16 N2         15.6072   -3.1061    0.0453 N.am    1  NONAME1    -0.2454
     17 N3         16.9076   -3.7902    0.0342 N.am    1  NONAME1    -0.2323
     18 C11        18.1261   -3.1036   -0.0185 C.2     1  NONAME1     0.2667
     19 O4         18.1680   -1.8753   -0.0773 O.2     1  NONAME1    -0.2705
     20 C12        19.4065   -4.0327   -0.0018 C.3     1  NONAME1     0.1666
     21 O5         20.6577   -3.3360   -0.0015 O.3     1  NONAME1    -0.4827
     22 C13        21.8474   -4.0282    0.0015 C.ar    1  NONAME1     0.1218
     23 C14        22.9944   -3.2231    0.0094 C.ar    1  NONAME1    -0.0193
     24 C15        24.2856   -3.7766    0.0109 C.ar    1  NONAME1    -0.0506
     25 C16        24.4751   -5.1651    0.0054 C.ar    1  NONAME1    -0.0177
     26 C17        25.7667   -5.7350   -0.0032 C.ar    1  NONAME1    -0.0540
     27 C18        25.9421   -7.1177   -0.0153 C.ar    1  NONAME1    -0.0612
     28 C19        24.8303   -7.9500   -0.0212 C.ar    1  NONAME1    -0.0612
     29 C20        23.5411   -7.3920   -0.0172 C.ar    1  NONAME1    -0.0539
     30 C21        23.3323   -6.0012   -0.0066 C.ar    1  NONAME1    -0.0144
     31 C22        22.0289   -5.4159   -0.0077 C.ar    1  NONAME1    -0.0122
     32 C23         9.3448   -3.4562    0.1552 C.ar    1  NONAME1    -0.0462
     33 C24         8.0712   -2.8096    0.2403 C.ar    1  NONAME1    -0.0192
     34 H1          0.3738    1.0722    1.3746 H       1  NONAME1     0.0252
     35 H2         -0.3162   -0.6036    1.2560 H       1  NONAME1     0.0252
     36 H3          1.2234   -0.3232    2.1702 H       1  NONAME1     0.0252
     37 H4          2.4514    1.4681    0.1910 H       1  NONAME1     0.0557
     38 H5          2.3617    1.7177    1.9488 H       1  NONAME1     0.0557
     39 H6          3.5128   -0.9343   -0.3775 H       1  NONAME1     0.0594
     40 H7          4.5529    0.5186   -0.3795 H       1  NONAME1     0.0594
     41 H8          5.4363   -1.7435    1.4708 H       1  NONAME1     0.0720
     42 H9          5.4422   -2.1004   -0.2868 H       1  NONAME1     0.0720
     43 H10         9.1786    0.3598    0.2036 H       1  NONAME1     0.0654
     44 H11        11.3792   -0.7548    0.0675 H       1  NONAME1     0.0626
     45 H12        13.2966   -2.1183    0.1142 H       1  NONAME1     0.1569
     46 H13        15.6579   -2.1008   -0.1056 H       1  NONAME1     0.1718
     47 H14        16.8600   -4.8082    0.0797 H       1  NONAME1     0.1729
     48 H15        19.3460   -4.6518    0.9008 H       1  NONAME1     0.0795
     49 H16        19.3540   -4.6676   -0.8937 H       1  NONAME1     0.0795
     50 H17        22.8903   -2.1406    0.0150 H       1  NONAME1     0.0654
     51 H18        25.1456   -3.1082    0.0159 H       1  NONAME1     0.0625
     52 H19        26.6498   -5.0967    0.0001 H       1  NONAME1     0.0624
     53 H20        26.9432   -7.5394   -0.0206 H       1  NONAME1     0.0618
     54 H21        24.9638   -9.0295   -0.0321 H       1  NONAME1     0.0618
     55 H22        22.6936   -8.0760   -0.0235 H       1  NONAME1     0.0624
     56 H23        21.1722   -6.0815   -0.0116 H       1  NONAME1     0.0660
     57 H24         9.3448   -4.5487    0.1286 H       1  NONAME1     0.0626
     58 H25         7.1896   -3.4437    0.2733 H       1  NONAME1     0.0654
@<TRIPOS>BOND
     1     1     2    1
     2     2     3    1
     3     3     4    1
     4     4     5    1
     5     5     6    1
     6     6     7    1
     7     7     8   ar
     8     8     9   ar
     9     9    10   ar
    10    10    11    1
    11    11    12    2
    12    11    13   am
    13    13    14    1
    14    14    15    2
    15    14    16    1
    16    16    17    1
    17    17    18   am
    18    18    19    2
    19    18    20    1
    20    20    21    1
    21    21    22    1
    22    22    23   ar
    23    23    24   ar
    24    24    25   ar
    25    25    26   ar
    26    26    27   ar
    27    27    28   ar
    28    28    29   ar
    29    29    30   ar
    30    25    30   ar
    31    30    31   ar
    32    22    31   ar
    33    10    32   ar
    34    32    33   ar
    35     7    33   ar
    36     1    34    1
    37     1    35    1
    38     1    36    1
    39     2    37    1
    40     2    38    1
    41     4    39    1
    42     4    40    1
    43     5    41    1
    44     5    42    1
    45     8    43    1
    46     9    44    1
    47    13    45    1
    48    16    46    1
    49    17    47    1
    50    20    48    1
    51    20    49    1
    52    23    50    1
    53    24    51    1
    54    26    52    1
    55    27    53    1
    56    28    54    1
    57    29    55    1
    58    31    56    1
    59    32    57    1
    60    33    58    1
