REMARK  7 active torsions:
REMARK  status: ('A' for Active; 'I' for Inactive)
REMARK    1  A    between atoms: C5_5  and  C6_6 
REMARK    2  A    between atoms: C6_6  and  C7_7 
REMARK    3  A    between atoms: C7_7  and  C8_8 
REMARK    4  A    between atoms: C8_8  and  C9_9 
REMARK    5  A    between atoms: C9_9  and  C10_10 
REMARK       I    between atoms: C10_10  and  N1_12 
REMARK    6  A    between atoms: N1_12  and  N2_13 
REMARK       I    between atoms: N2_13  and  C11_14 
REMARK    7  A    between atoms: C12_16  and  C11_14 
ROOT
ATOM      1  C10 NON d   1       2.887   5.740  -1.269  0.00  0.00     0.236 C 
ATOM      2  O1  NON d   1       2.256   5.646  -2.316  0.00  0.00    -0.272 OA
ATOM      3  N1  NON d   1       3.976   6.587  -1.111  0.00  0.00    -0.267 N 
ATOM      4  H14 NON d   1       4.563   6.563  -0.276  0.00  0.00     0.190 HD
ENDROOT
BRANCH   1   5
ATOM      5  C9  NON d   1       2.590   4.935  -0.006  0.00  0.00     0.104 C 
BRANCH   5   6
ATOM      6  C8  NON d   1       1.418   3.943  -0.106  0.00  0.00     0.010 C 
BRANCH   6   7
ATOM      7  C7  NON d   1       0.066   4.567   0.274  0.00  0.00     0.005 C 
BRANCH   7   8
ATOM      8  C6  NON d   1      -1.126   3.584   0.187  0.00  0.00     0.038 C 
BRANCH   8   9
ATOM      9  C5  NON d   1      -1.487   2.709   1.377  0.00  0.00    -0.058 A 
ATOM     10  C4  NON d   1      -0.689   2.555   2.510  0.00  0.00     0.007 A 
ATOM     11  C3  NON d   1      -1.101   1.730   3.571  0.00  0.00     0.007 A 
ATOM     12  C2  NON d   1      -2.334   1.046   3.551  0.00  0.00    -0.062 A 
ATOM     13  C1  NON d   1      -2.667   0.111   4.729  0.00  0.00     0.048 C 
ATOM     14  C17 NON d   1      -3.120   1.170   2.406  0.00  0.00     0.007 A 
ATOM     15  C16 NON d   1      -2.703   1.993   1.342  0.00  0.00     0.007 A 
ENDBRANCH   8   9
ENDBRANCH   7   8
ENDBRANCH   6   7
ENDBRANCH   5   6
ENDBRANCH   1   5
BRANCH   3  16
ATOM     16  N2  NON d   1       4.551   7.202  -2.234  0.00  0.00    -0.265 N 
ATOM     17  C11 NON d   1       5.720   7.919  -2.061  0.00  0.00     0.265 C 
ATOM     18  O2  NON d   1       6.291   7.987  -0.970  0.00  0.00    -0.269 OA
ATOM     19  H15 NON d   1       4.006   7.253  -3.096  0.00  0.00     0.190 HD
BRANCH  17  20
ATOM     20  C12 NON d   1       6.305   8.504  -3.355  0.00  0.00     0.215 C 
ATOM     21  C13 NON d   1       7.150   9.742  -3.103  0.00  0.00     0.044 C 
ATOM     22  C14 NON d   1       7.180  10.389  -4.464  0.00  0.00     0.029 C 
ATOM     23  C15 NON d   1       5.812  10.054  -5.023  0.00  0.00     0.168 C 
ATOM     24  O3  NON d   1       5.328   8.890  -4.330  0.00  0.00    -0.376 OA
ENDBRANCH  17  20
ENDBRANCH   3  16
TORSDOF 7
