REMARK  6 active torsions:
REMARK  status: ('A' for Active; 'I' for Inactive)
REMARK    1  A    between atoms: C5_5  and  N1_6 
REMARK       I    between atoms: N1_6  and  C6_7 
REMARK    2  A    between atoms: C7_9  and  C6_7 
REMARK    3  A    between atoms: C7_9  and  C8_10 
REMARK    4  A    between atoms: C7_9  and  N2_14 
REMARK    5  A    between atoms: C8_10  and  C9_11 
REMARK       I    between atoms: N2_14  and  C12_15 
REMARK    6  A    between atoms: C13_17  and  C12_15 
ROOT
ATOM      1  C7  NON d   1       4.977 -10.574   0.000  0.00  0.00     0.177 C 
ENDROOT
BRANCH   1   2
ATOM      2  C6  NON d   1       4.207 -11.907   0.000  0.00  0.00     0.245 C 
ATOM      3  N1  NON d   1       2.961 -12.176  -0.621  0.00  0.00    -0.325 N 
ATOM      4  H6  NON d   1       2.484 -11.426  -1.106  0.00  0.00     0.169 HD
ATOM      5  O1  NON d   1       4.615 -12.579   0.974  0.00  0.00    -0.271 OA
BRANCH   3   6
ATOM      6  C5  NON d   1       2.113 -13.360  -0.354  0.00  0.00     0.040 A 
ATOM      7  C4  NON d   1       0.706 -13.411  -0.520  0.00  0.00     0.030 A 
ATOM      8  C3  NON d   1      -0.136 -14.628  -0.335  0.00  0.00     0.009 A 
ATOM      9  C2  NON d   1       0.357 -15.908   0.000  0.00  0.00    -0.061 A 
ATOM     10  C1  NON d   1      -0.413 -17.242   0.000  0.00  0.00     0.048 C 
ATOM     11  C24 NON d   1       1.805 -15.814   0.163  0.00  0.00     0.015 A 
ATOM     12  C22 NON d   1       2.667 -14.575   0.000  0.00  0.00    -0.035 A 
ATOM     13  C23 NON d   1       4.207 -14.575   0.000  0.00  0.00     0.050 C 
ENDBRANCH   3   6
ENDBRANCH   1   2
BRANCH   1  14
ATOM     14  C8  NON d   1       4.090  -9.072  -0.130  0.00  0.00     0.038 C 
BRANCH  14  15
ATOM     15  C9  NON d   1       3.256  -8.900   1.162  0.00  0.00    -0.020 C 
ATOM     16  C10 NON d   1       2.064  -9.823   1.476  0.00  0.00     0.009 C 
ATOM     17  C11 NON d   1       3.496  -7.638   2.010  0.00  0.00     0.009 C 
ENDBRANCH  14  15
ENDBRANCH   1  14
BRANCH   1  18
ATOM     18  N2  NON d   1       6.420 -10.880   0.281  0.00  0.00    -0.346 N 
ATOM     19  C12 NON d   1       7.413 -10.408  -0.570  0.00  0.00     0.249 C 
ATOM     20  O2  NON d   1       7.216 -10.218  -1.766  0.00  0.00    -0.271 OA
ATOM     21  H17 NON d   1       6.598 -11.246   1.206  0.00  0.00     0.163 HD
BRANCH  19  22
ATOM     22  C13 NON d   1       8.803 -10.121   0.051  0.00  0.00     0.281 C 
ATOM     23  C14 NON d   1       9.301  -8.701  -0.330  0.00  0.00     0.082 C 
ATOM     24  C15 NON d   1      10.790  -8.479  -0.136  0.00  0.00    -0.048 A 
ATOM     25  C16 NON d   1      11.318  -7.177  -0.177  0.00  0.00     0.008 A 
ATOM     26  C20 NON d   1      11.670  -9.569   0.002  0.00  0.00    -0.026 A 
ATOM     27  C17 NON d   1      12.693  -6.960  -0.065  0.00  0.00     0.001 A 
ATOM     28  C18 NON d   1      13.560  -8.038   0.084  0.00  0.00     0.001 A 
ATOM     29  C19 NON d   1      13.052  -9.336   0.125  0.00  0.00     0.009 A 
ATOM     30  C21 NON d   1      11.151 -10.972   0.088  0.00  0.00     0.272 C 
ATOM     31  N3  NON d   1       9.790 -11.130  -0.482  0.00  0.00    -0.058 N 
ATOM     32  H27 NON d   1       9.830 -11.014  -1.507  0.00  0.00     0.278 HD
ATOM     33  H28 NON d   1       9.438 -12.081  -0.319  0.00  0.00     0.278 HD
ENDBRANCH  19  22
ENDBRANCH   1  18
TORSDOF 6
