REMARK  5 active torsions:
REMARK  status: ('A' for Active; 'I' for Inactive)
REMARK    1  A    between atoms: C6_6  and  C7_7 
REMARK       I    between atoms: C7_7  and  N1_9 
REMARK    2  A    between atoms: N1_9  and  C8_10 
REMARK    3  A    between atoms: C11_13  and  C12_14 
REMARK       I    between atoms: C12_14  and  N2_16 
REMARK    4  A    between atoms: N2_16  and  N3_17 
REMARK       I    between atoms: N3_17  and  C13_18 
REMARK    5  A    between atoms: C13_18  and  C14_20 
ROOT
ATOM      1  C8  NON d   1      -5.786   5.904   0.019  0.00  0.00     0.035 A 
ATOM      2  C9  NON d   1      -4.629   6.701   0.010  0.00  0.00     0.030 A 
ATOM      3  C10 NON d   1      -3.339   6.127   0.002  0.00  0.00     0.019 A 
ATOM      4  C11 NON d   1      -3.183   4.738   0.001  0.00  0.00     0.033 A 
ATOM      5  C18 NON d   1      -4.341   3.948   0.008  0.00  0.00     0.019 A 
ATOM      6  C19 NON d   1      -5.623   4.520   0.017  0.00  0.00     0.030 A 
ENDROOT
BRANCH   4   7
ATOM      7  C12 NON d   1      -1.859   4.024  -0.007  0.00  0.00     0.271 C 
ATOM      8  O2  NON d   1      -1.873   2.793  -0.017  0.00  0.00    -0.266 OA
ATOM      9  N2  NON d   1      -0.711   4.794  -0.003  0.00  0.00    -0.239 N 
ATOM     10  H10 NON d   1      -0.659   5.806   0.007  0.00  0.00     0.192 HD
BRANCH   9  11
ATOM     11  N3  NON d   1       0.599   4.139  -0.007  0.00  0.00    -0.127 NA
ATOM     12  C13 NON d   1       1.627   5.002   0.001  0.00  0.00     0.317 C 
ATOM     13  O3  NON d   1       1.537   6.233   0.007  0.00  0.00    -0.262 OA
BRANCH  12  14
ATOM     14  C14 NON d   1       2.919   4.320   0.000  0.00  0.00     0.146 A 
ATOM     15  C15 NON d   1       4.201   4.849   0.001  0.00  0.00     0.045 A 
ATOM     16  C16 NON d   1       5.108   3.761   0.001  0.00  0.00     0.027 A 
ATOM     17  C17 NON d   1       4.335   2.627  -0.000  0.00  0.00     0.143 A 
ATOM     18  O4  NON d   1       3.017   2.947  -0.001  0.00  0.00    -0.317 OA
ENDBRANCH  12  14
ENDBRANCH   9  11
ENDBRANCH   4   7
BRANCH   1  19
ATOM     19  N1  NON d   1      -7.052   6.556   0.028  0.00  0.00    -0.323 N 
ATOM     20  C7  NON d   1      -8.305   5.949   0.047  0.00  0.00     0.256 C 
ATOM     21  O1  NON d   1      -8.500   4.737   0.064  0.00  0.00    -0.267 OA
ATOM     22  H7  NON d   1      -7.003   7.561   0.016  0.00  0.00     0.169 HD
BRANCH  20  23
ATOM     23  C6  NON d   1      -9.528   6.835   0.042  0.00  0.00     0.032 A 
ATOM     24  C5  NON d   1      -9.495   8.232   0.047  0.00  0.00     0.017 A 
ATOM     25  C4  NON d   1     -10.691   8.966   0.047  0.00  0.00     0.002 A 
ATOM     26  C3  NON d   1     -11.935   8.323   0.031  0.00  0.00     0.007 A 
ATOM     27  C2  NON d   1     -12.003   6.930   0.000  0.00  0.00    -0.061 A 
ATOM     28  C1  NON d   1     -13.337   6.160   0.000  0.00  0.00     0.048 C 
ATOM     29  C20 NON d   1     -10.792   6.203   0.029  0.00  0.00     0.023 A 
ENDBRANCH  20  23
ENDBRANCH   1  19
TORSDOF 5
