@<TRIPOS>MOLECULE
*****
 47 48 0 0 0
SMALL
USER_CHARGES

@<TRIPOS>ATOM
      1 C1         -1.0716  -14.2822    0.0600 C.3     1  NONAME1    -0.0650
      2 C2          0.3445  -13.7228    0.0727 C.3     1  NONAME1    -0.0519
      3 C3          0.3482  -12.2008   -0.1072 C.3     1  NONAME1    -0.0279
      4 C4          1.6947  -11.5070   -0.0655 C.ar    1  NONAME1    -0.0473
      5 C5          1.7144  -10.1046   -0.0012 C.ar    1  NONAME1    -0.0579
      6 C6          2.9221   -9.3999    0.0339 C.ar    1  NONAME1    -0.0510
      7 C7          4.1437  -10.0802   -0.0079 C.ar    1  NONAME1     0.0174
      8 C8          5.4104   -9.2824    0.0589 C.2     1  NONAME1     0.1636
      9 O1          5.3554   -8.0930    0.3666 O.2     1  NONAME1    -0.2920
     10 C9          6.7294   -9.9793   -0.2353 C.3     1  NONAME1     0.0187
     11 C10         7.9348   -9.0526   -0.0749 C.3     1  NONAME1     0.0324
     12 C11         8.1972   -8.1966   -1.2976 C.2     1  NONAME1     0.2295
     13 O2          7.5285   -8.2333   -2.3283 O.2     1  NONAME1    -0.2743
     14 N1          9.3000   -7.3772   -1.1503 N.am    1  NONAME1    -0.2341
     15 N2          9.6931   -6.5747   -2.2266 N.am    1  NONAME1    -0.2304
     16 C12        10.9181   -5.9383   -2.1517 C.2     1  NONAME1     0.2601
     17 O3         11.6703   -6.0990   -1.1924 O.2     1  NONAME1    -0.2687
     18 C13        11.3054   -5.0285   -3.2758 C.ar    1  NONAME1     0.0383
     19 C14        12.5519   -4.3799   -3.1941 C.ar    1  NONAME1    -0.0469
     20 C15        12.9681   -3.5006   -4.1984 C.ar    1  NONAME1    -0.0257
     21 C16        12.1391   -3.2684   -5.2872 C.ar    1  NONAME1     0.1234
     22 F1         12.5305   -2.4230   -6.2492 F       1  NONAME1    -0.2055
     23 C17        10.9063   -3.9012   -5.3902 C.ar    1  NONAME1    -0.0257
     24 C18        10.4839   -4.7814   -4.3873 C.ar    1  NONAME1    -0.0469
     25 C19         4.1344  -11.4770   -0.0873 C.ar    1  NONAME1    -0.0510
     26 C20         2.9208  -12.1812   -0.1148 C.ar    1  NONAME1    -0.0579
     27 H1         -1.7059  -13.7762    0.7949 H       1  NONAME1     0.0230
     28 H2         -1.5288  -14.1640   -0.9277 H       1  NONAME1     0.0230
     29 H3         -1.0596  -15.3501    0.3011 H       1  NONAME1     0.0230
     30 H4          0.9166  -14.2046   -0.7288 H       1  NONAME1     0.0266
     31 H5          0.8237  -13.9887    1.0223 H       1  NONAME1     0.0266
     32 H6         -0.2750  -11.7650    0.6859 H       1  NONAME1     0.0313
     33 H7         -0.1274  -11.9550   -1.0649 H       1  NONAME1     0.0313
     34 H8          0.7801   -9.5460    0.0257 H       1  NONAME1     0.0620
     35 H9          2.9014   -8.3128    0.0925 H       1  NONAME1     0.0625
     36 H10         6.6916  -10.4078   -1.2425 H       1  NONAME1     0.0350
     37 H11         6.8425  -10.7898    0.4935 H       1  NONAME1     0.0350
     38 H12         7.8276   -8.4010    0.7997 H       1  NONAME1     0.0363
     39 H13         8.8287   -9.6707    0.0768 H       1  NONAME1     0.0363
     40 H14         9.9339   -7.4118   -0.3534 H       1  NONAME1     0.1728
     41 H15         9.0274   -6.5106   -2.9908 H       1  NONAME1     0.1731
     42 H16        13.2046   -4.5537   -2.3403 H       1  NONAME1     0.0626
     43 H17        13.9278   -2.9977   -4.1332 H       1  NONAME1     0.0646
     44 H18        10.2744   -3.7007   -6.2522 H       1  NONAME1     0.0646
     45 H19         9.5131   -5.2474   -4.5047 H       1  NONAME1     0.0626
     46 H20         5.0550  -12.0517   -0.1182 H       1  NONAME1     0.0625
     47 H21         2.9602  -13.2663   -0.1714 H       1  NONAME1     0.0620
@<TRIPOS>BOND
     1     1     2    1
     2     2     3    1
     3     3     4    1
     4     4     5   ar
     5     5     6   ar
     6     6     7   ar
     7     7     8    1
     8     8     9    2
     9     8    10    1
    10    10    11    1
    11    11    12    1
    12    12    13    2
    13    12    14   am
    14    14    15    1
    15    15    16   am
    16    16    17    2
    17    16    18    1
    18    18    19   ar
    19    19    20   ar
    20    20    21   ar
    21    21    22    1
    22    21    23   ar
    23    23    24   ar
    24    18    24   ar
    25     7    25   ar
    26    25    26   ar
    27     4    26   ar
    28     1    27    1
    29     1    28    1
    30     1    29    1
    31     2    30    1
    32     2    31    1
    33     3    32    1
    34     3    33    1
    35     5    34    1
    36     6    35    1
    37    10    36    1
    38    10    37    1
    39    11    38    1
    40    11    39    1
    41    14    40    1
    42    15    41    1
    43    19    42    1
    44    20    43    1
    45    23    44    1
    46    24    45    1
    47    25    46    1
    48    26    47    1
