REMARK  9 active torsions:
REMARK  status: ('A' for Active; 'I' for Inactive)
REMARK    1  A    between atoms: C2_2  and  C3_3 
REMARK    2  A    between atoms: C3_3  and  C4_4 
REMARK    3  A    between atoms: C4_4  and  C5_5 
REMARK    4  A    between atoms: C5_5  and  C6_6 
REMARK       I    between atoms: C6_6  and  N1_8 
REMARK    5  A    between atoms: N1_8  and  C7_9 
REMARK    6  A    between atoms: C11_13  and  N2_14 
REMARK    7  A    between atoms: N2_14  and  C12_15 
REMARK    8  A    between atoms: C12_15  and  C13_16 
REMARK       I    between atoms: C13_16  and  N3_18 
REMARK    9  A    between atoms: N3_18  and  C14_19 
ROOT
ATOM      1  N2  NON d   1      30.494  -2.155  -0.163  0.00  0.00    -0.381 N 
ATOM      2  H16 NON d   1      30.438  -3.091   0.240  0.00  0.00     0.160 HD
ENDROOT
BRANCH   1   3
ATOM      3  C11 NON d   1      29.343  -1.370  -0.017  0.00  0.00     0.030 A 
ATOM      4  C10 NON d   1      29.387   0.028  -0.063  0.00  0.00     0.029 A 
ATOM      5  C9  NON d   1      28.224   0.791   0.007  0.00  0.00     0.004 A 
ATOM      6  C8  NON d   1      26.980   0.172   0.084  0.00  0.00     0.029 A 
ATOM      7  C7  NON d   1      26.874  -1.219   0.078  0.00  0.00     0.036 A 
ATOM      8  C24 NON d   1      28.067  -1.979   0.029  0.00  0.00     0.058 A 
BRANCH   7   9
ATOM      9  N1  NON d   1      25.621  -1.888   0.128  0.00  0.00    -0.327 N 
ATOM     10  C6  NON d   1      24.364  -1.294   0.023  0.00  0.00     0.222 C 
ATOM     11  O1  NON d   1      24.149  -0.107  -0.208  0.00  0.00    -0.273 OA
ATOM     12  H12 NON d   1      25.652  -2.898   0.180  0.00  0.00     0.169 HD
BRANCH  10  13
ATOM     13  C5  NON d   1      23.210  -2.278   0.211  0.00  0.00     0.103 C 
BRANCH  13  14
ATOM     14  C4  NON d   1      21.822  -1.631   0.038  0.00  0.00     0.009 C 
BRANCH  14  15
ATOM     15  C3  NON d   1      21.393  -0.772   1.238  0.00  0.00     0.000 C 
BRANCH  15  16
ATOM     16  C2  NON d   1      20.152   0.086   0.955  0.00  0.00    -0.005 C 
ATOM     17  C1  NON d   1      18.848  -0.697   0.956  0.00  0.00     0.005 C 
ENDBRANCH  15  16
ENDBRANCH  14  15
ENDBRANCH  13  14
ENDBRANCH  10  13
ENDBRANCH   7   9
ENDBRANCH   1   3
BRANCH   1  18
ATOM     18  C12 NON d   1      31.826  -1.548   0.000  0.00  0.00     0.223 C 
BRANCH  18  19
ATOM     19  C13 NON d   1      32.960  -2.596   0.057  0.00  0.00     0.239 C 
ATOM     20  O2  NON d   1      32.726  -3.793   0.188  0.00  0.00    -0.271 OA
ATOM     21  N3  NON d   1      34.221  -2.002  -0.009  0.00  0.00    -0.326 N 
ATOM     22  H19 NON d   1      34.247  -0.992  -0.061  0.00  0.00     0.169 HD
BRANCH  21  23
ATOM     23  C14 NON d   1      35.487  -2.635   0.004  0.00  0.00     0.035 A 
ATOM     24  C15 NON d   1      36.617  -1.807  -0.011  0.00  0.00     0.030 A 
ATOM     25  C16 NON d   1      37.908  -2.348  -0.010  0.00  0.00     0.014 A 
ATOM     26  C17 NON d   1      38.103  -3.735  -0.000  0.00  0.00    -0.026 A 
ATOM     27  C18 NON d   1      39.393  -4.298  -0.008  0.00  0.00     0.012 A 
ATOM     28  C22 NON d   1      36.972  -4.581   0.014  0.00  0.00    -0.024 A 
ATOM     29  C19 NON d   1      39.567  -5.683  -0.003  0.00  0.00     0.001 A 
ATOM     30  C20 NON d   1      38.456  -6.519   0.011  0.00  0.00     0.001 A 
ATOM     31  C21 NON d   1      37.169  -5.972   0.021  0.00  0.00     0.012 A 
ATOM     32  C23 NON d   1      35.677  -4.018   0.019  0.00  0.00     0.042 A 
ENDBRANCH  21  23
ENDBRANCH  18  19
ENDBRANCH   1  18
TORSDOF 9
