REMARK  7 active torsions:
REMARK  status: ('A' for Active; 'I' for Inactive)
REMARK    1  A    between atoms: O1_2  and  C2_3 
REMARK    2  A    between atoms: C2_3  and  C3_5 
REMARK    3  A    between atoms: C10_14  and  N2_15 
REMARK       I    between atoms: N2_15  and  C11_16 
REMARK    4  A    between atoms: C12_18  and  C11_16 
REMARK    5  A    between atoms: C12_18  and  N3_20 
REMARK    6  A    between atoms: N4_23  and  C16_24 
REMARK    7  A    between atoms: C20_28  and  C21_29 
ROOT
ATOM      1  N2  NON d   1       2.065  -4.164  -0.331  0.00  0.00    -0.322 N 
ATOM      2  C11 NON d   1       2.827  -5.271  -0.058  0.00  0.00     0.255 C 
ATOM      3  O3  NON d   1       4.051  -5.273   0.067  0.00  0.00    -0.271 OA
ATOM      4  H8  NON d   1       1.062  -4.328  -0.321  0.00  0.00     0.169 HD
ENDROOT
BRANCH   2   5
ATOM      5  C12 NON d   1       2.063  -6.591   0.210  0.00  0.00     0.310 C 
ATOM      6  C13 NON d   1       2.729  -7.719  -0.584  0.00  0.00     0.053 C 
BRANCH   5   7
ATOM      7  N3  NON d   1       0.563  -6.510   0.153  0.00  0.00     0.104 N 
ATOM      8  C14 NON d   1      -0.029  -6.737  -1.188  0.00  0.00     0.293 C 
ATOM      9  C15 NON d   1      -1.592  -6.751  -1.190  0.00  0.00     0.153 C 
ATOM     10  N4  NON d   1      -2.166  -7.716  -0.212  0.00  0.00    -0.377 N 
ATOM     11  C23 NON d   1      -1.519  -7.650   1.116  0.00  0.00     0.153 C 
ATOM     12  C24 NON d   1       0.017  -7.583   1.031  0.00  0.00     0.293 C 
BRANCH  10  13
ATOM     13  C16 NON d   1      -3.570  -7.904  -0.201  0.00  0.00     0.030 A 
ATOM     14  C17 NON d   1      -4.401  -7.497  -1.258  0.00  0.00     0.029 A 
ATOM     15  C18 NON d   1      -5.795  -7.697  -1.239  0.00  0.00     0.003 A 
ATOM     16  C19 NON d   1      -6.403  -8.326  -0.163  0.00  0.00     0.016 A 
ATOM     17  C20 NON d   1      -5.624  -8.771   0.904  0.00  0.00     0.050 A 
ATOM     18  C22 NON d   1      -4.225  -8.575   0.855  0.00  0.00     0.045 A 
BRANCH  17  19
ATOM     19  C21 NON d   1      -6.249  -9.485   2.078  0.00  0.00     0.417 C 
ATOM     20  F1  NON d   1      -6.205 -10.840   1.951  0.00  0.00    -0.166 F 
ATOM     21  F2  NON d   1      -5.629  -9.201   3.260  0.00  0.00    -0.166 F 
ATOM     22  F3  NON d   1      -7.562  -9.170   2.267  0.00  0.00    -0.166 F 
ENDBRANCH  17  19
ENDBRANCH  10  13
ENDBRANCH   5   7
ENDBRANCH   2   5
BRANCH   1  23
ATOM     23  C10 NON d   1       2.475  -2.827  -0.385  0.00  0.00     0.080 A 
ATOM     24  C9  NON d   1       3.782  -2.209  -0.392  0.00  0.00     0.021 A 
ATOM     25  C8  NON d   1       5.128  -2.647  -0.439  0.00  0.00     0.040 A 
ATOM     26  C4  NON d   1       3.583  -0.825  -0.291  0.00  0.00     0.045 A 
ATOM     27  C7  NON d   1       6.178  -1.736  -0.291  0.00  0.00     0.035 A 
ATOM     28  C6  NON d   1       5.933  -0.380  -0.128  0.00  0.00     0.026 A 
ATOM     29 Cl1  NON d   1       7.805  -2.306  -0.292  0.00  0.00    -0.084 Cl
ATOM     30  C5  NON d   1       4.625   0.102  -0.148  0.00  0.00     0.032 A 
ATOM     31  N1  NON d   1       2.231  -0.600  -0.339  0.00  0.00    -0.349 N 
ATOM     32  C3  NON d   1       1.542  -1.791  -0.354  0.00  0.00     0.136 A 
ATOM     33  H4  NON d   1       1.788   0.302  -0.276  0.00  0.00     0.166 HD
BRANCH  32  34
ATOM     34  C2  NON d   1       0.104  -1.790  -0.219  0.00  0.00     0.312 C 
ATOM     35  O2  NON d   1      -0.584  -0.790  -0.050  0.00  0.00    -0.258 OA
BRANCH  34  36
ATOM     36  O1  NON d   1      -0.353  -3.069  -0.140  0.00  0.00    -0.321 OA
ATOM     37  C1  NON d   1      -1.107  -3.304   1.045  0.00  0.00     0.213 C 
ENDBRANCH  34  36
ENDBRANCH  32  34
ENDBRANCH   1  23
TORSDOF 7
