REMARK  7 active torsions:
REMARK  status: ('A' for Active; 'I' for Inactive)
REMARK    1  A    between atoms: C5_5  and  N1_6 
REMARK    2  A    between atoms: N1_6  and  N2_7 
REMARK       I    between atoms: N2_7  and  C6_8 
REMARK       I    between atoms: C6_8  and  N3_10 
REMARK    3  A    between atoms: C7_11  and  N3_10 
REMARK    4  A    between atoms: C9_13  and  C10_14 
REMARK    5  A    between atoms: C13_17  and  O2_18 
REMARK    6  A    between atoms: O2_18  and  C14_19 
REMARK    7  A    between atoms: C14_19  and  C15_20 
ROOT
ATOM      1  C7  NON d   1       2.308  -8.311  -0.355  0.00  0.00     0.095 A 
ATOM      2  C8  NON d   1       3.073  -9.434   0.287  0.00  0.00     0.037 A 
ATOM      3  C9  NON d   1       1.619  -9.251   0.639  0.00  0.00     0.043 A 
ENDROOT
BRANCH   1   4
ATOM      4  N3  NON d   1       2.585  -6.916  -0.045  0.00  0.00    -0.337 N 
ATOM      5  C6  NON d   1       3.835  -6.318  -0.155  0.00  0.00     0.331 C 
ATOM      6  N2  NON d   1       3.803  -4.918   0.009  0.00  0.00    -0.267 N 
ATOM      7  O1  NON d   1       4.883  -6.938  -0.336  0.00  0.00    -0.246 OA
ATOM      8  H7  NON d   1       2.996  -4.411  -0.343  0.00  0.00     0.186 HD
ATOM      9  H8  NON d   1       1.805  -6.327   0.212  0.00  0.00     0.164 HD
BRANCH   6  10
ATOM     10  N1  NON d   1       5.051  -4.248  -0.272  0.00  0.00    -0.183 NA
ATOM     11  H6  NON d   1       5.818  -4.734   0.196  0.00  0.00     0.154 HD
BRANCH  10  12
ATOM     12  C5  NON d   1       5.104  -2.836  -0.065  0.00  0.00     0.143 A 
ATOM     13  C4  NON d   1       6.346  -2.197  -0.140  0.00  0.00     0.050 A 
ATOM     14  C3  NON d   1       6.470  -0.786  -0.089  0.00  0.00     0.032 A 
ATOM     15  C2  NON d   1       5.335   0.000   0.000  0.00  0.00     0.053 A 
ATOM     16  C1  NON d   1       5.335   1.540   0.000  0.00  0.00     0.072 C 
ATOM     17  N5  NON d   1       4.138  -0.632   0.093  0.00  0.00    -0.154 NA
ATOM     18  N4  NON d   1       4.019  -2.052   0.047  0.00  0.00    -0.136 NA
ENDBRANCH  10  12
ENDBRANCH   6  10
ENDBRANCH   1   4
BRANCH   3  19
ATOM     19  C10 NON d   1       0.584 -10.306   0.231  0.00  0.00    -0.052 A 
ATOM     20  C11 NON d   1       0.828 -11.695   0.304  0.00  0.00     0.010 A 
ATOM     21  C12 NON d   1      -0.178 -12.661   0.071  0.00  0.00     0.037 A 
ATOM     22  C13 NON d   1      -1.475 -12.262  -0.234  0.00  0.00     0.069 A 
ATOM     23  C21 NON d   1      -1.732 -10.894  -0.346  0.00  0.00     0.037 A 
ATOM     24  C22 NON d   1      -0.724  -9.938  -0.117  0.00  0.00     0.010 A 
BRANCH  22  25
ATOM     25  O2  NON d   1      -2.559 -13.074  -0.441  0.00  0.00    -0.347 OA
BRANCH  25  26
ATOM     26  C14 NON d   1      -2.447 -14.460  -0.089  0.00  0.00     0.214 C 
BRANCH  26  27
ATOM     27  C15 NON d   1      -3.800 -15.165  -0.111  0.00  0.00    -0.034 A 
ATOM     28  C16 NON d   1      -3.848 -16.571  -0.107  0.00  0.00     0.009 A 
ATOM     29  C17 NON d   1      -5.072 -17.249  -0.080  0.00  0.00     0.001 A 
ATOM     30  C18 NON d   1      -6.267 -16.535  -0.052  0.00  0.00     0.000 A 
ATOM     31  C19 NON d   1      -6.236 -15.143  -0.045  0.00  0.00     0.001 A 
ATOM     32  C20 NON d   1      -5.013 -14.463  -0.069  0.00  0.00     0.009 A 
ENDBRANCH  26  27
ENDBRANCH  25  26
ENDBRANCH  22  25
ENDBRANCH   3  19
TORSDOF 7
