REMARK  5 active torsions:
REMARK  status: ('A' for Active; 'I' for Inactive)
REMARK    1  A    between atoms: C8_8  and  C7_7 
REMARK    2  A    between atoms: C8_8  and  N1_10 
REMARK       I    between atoms: N1_10  and  C10_11 
REMARK    3  A    between atoms: C10_11  and  C11_13 
REMARK    4  A    between atoms: C14_16  and  N2_17 
REMARK       I    between atoms: N2_17  and  C15_18 
REMARK    5  A    between atoms: C15_18  and  C16_20 
ROOT
ATOM      1  C11 NON d   1       0.429 -13.822  -0.807  0.00  0.00     0.032 A 
ATOM      2  C12 NON d   1      -0.705 -14.627  -0.627  0.00  0.00     0.019 A 
ATOM      3  C13 NON d   1      -1.968 -14.070  -0.375  0.00  0.00     0.030 A 
ATOM      4  C14 NON d   1      -2.140 -12.688  -0.306  0.00  0.00     0.035 A 
ATOM      5  C21 NON d   1      -1.006 -11.877  -0.461  0.00  0.00     0.030 A 
ATOM      6  C22 NON d   1       0.270 -12.435  -0.708  0.00  0.00     0.019 A 
ENDROOT
BRANCH   1   7
ATOM      7  C10 NON d   1       1.731 -14.529  -1.075  0.00  0.00     0.252 C 
ATOM      8  N1  NON d   1       2.906 -13.905  -0.680  0.00  0.00    -0.349 N 
ATOM      9  H13 NON d   1       2.772 -12.986  -0.293  0.00  0.00     0.163 HD
ATOM     10  O1  NON d   1       1.702 -15.654  -1.563  0.00  0.00    -0.268 OA
BRANCH   8  11
ATOM     11  C8  NON d   1       4.001 -14.630   0.000  0.00  0.00     0.114 C 
ATOM     12  C9  NON d   1       4.001 -16.170   0.000  0.00  0.00     0.037 C 
BRANCH  11  13
ATOM     13  C7  NON d   1       5.433 -13.887  -0.075  0.00  0.00    -0.029 A 
ATOM     14  C5  NON d   1       6.668 -14.630   0.000  0.00  0.00    -0.054 A 
ATOM     15  C4  NON d   1       7.831 -13.814   0.018  0.00  0.00     0.008 A 
ATOM     16  C6  NON d   1       6.668 -16.170   0.000  0.00  0.00     0.049 C 
ATOM     17  C3  NON d   1       7.830 -12.349   0.015  0.00  0.00     0.007 A 
ATOM     18  C2  NON d   1       6.668 -11.550   0.000  0.00  0.00    -0.061 A 
ATOM     19  C1  NON d   1       6.668 -10.010   0.000  0.00  0.00     0.048 C 
ATOM     20  C23 NON d   1       5.484 -12.380  -0.064  0.00  0.00     0.016 A 
ENDBRANCH  11  13
ENDBRANCH   8  11
ENDBRANCH   1   7
BRANCH   4  21
ATOM     21  N2  NON d   1      -3.399 -12.069  -0.123  0.00  0.00    -0.322 N 
ATOM     22  C15 NON d   1      -4.632 -12.694   0.010  0.00  0.00     0.274 C 
ATOM     23  O2  NON d   1      -4.831 -13.902   0.091  0.00  0.00    -0.266 OA
ATOM     24  H16 NON d   1      -3.446 -11.052  -0.142  0.00  0.00     0.169 HD
BRANCH  22  25
ATOM     25  C16 NON d   1      -5.811 -11.763   0.041  0.00  0.00     0.124 A 
ATOM     26  C17 NON d   1      -7.098 -12.293   0.084  0.00  0.00     0.037 A 
ATOM     27  C18 NON d   1      -8.179 -11.417   0.082  0.00  0.00     0.004 A 
ATOM     28  C19 NON d   1      -7.941 -10.048   0.040  0.00  0.00     0.019 A 
ATOM     29  C20 NON d   1      -6.625  -9.607   0.002  0.00  0.00     0.117 A 
ATOM     30  N3  NON d   1      -5.543 -10.428   0.002  0.00  0.00    -0.256 NA
ENDBRANCH  22  25
ENDBRANCH   4  21
TORSDOF 5
