@<TRIPOS>MOLECULE
*****
 86 90 0 0 0
SMALL
USER_CHARGES

@<TRIPOS>ATOM
      1 C1          4.3780   -8.0892   -2.6899 C.3     1  NONAME1     0.0332
      2 C2          4.1227   -6.6039   -2.7631 C.2     1  NONAME1     0.3043
      3 O1          4.7831   -5.8463   -3.4477 O.2     1  NONAME1    -0.2512
      4 O2          3.1347   -6.1581   -1.8904 O.3     1  NONAME1    -0.4586
      5 C3          3.6417   -5.0901   -0.9573 C.3     1  NONAME1     0.1319
      6 C4          2.4643   -4.4238   -0.1675 C.3     1  NONAME1    -0.0060
      7 C5          2.4775   -2.8748    0.1330 C.3     1  NONAME1     0.0120
      8 C6          3.1547   -2.0827    1.3008 C.3     1  NONAME1     0.1040
      9 C7          4.4132   -2.3456    2.0927 C.3     1  NONAME1    -0.0274
     10 O3          2.1577   -1.9155    2.3068 O.3     1  NONAME1    -0.4611
     11 C8          0.9613   -1.7927    1.7055 C.2     1  NONAME1     0.3106
     12 O4         -0.0262   -1.3398    2.2595 O.2     1  NONAME1    -0.2505
     13 C9          1.0277   -2.3141    0.2882 C.3     1  NONAME1     0.0599
     14 C10        -0.1529   -3.2596    0.1235 C.3     1  NONAME1    -0.0519
     15 C11         4.7822   -5.8629    0.0000 C.3     1  NONAME1     0.1034
     16 C12         4.4801   -5.8453    1.5797 C.3     1  NONAME1    -0.0323
     17 O5          3.8370   -7.0787    0.0000 O.3     1  NONAME1    -0.3849
     18 C13         5.7274   -4.6471    0.0000 C.3     1  NONAME1    -0.0005
     19 C14         5.7612   -3.4511   -1.0237 C.3     1  NONAME1    -0.0440
     20 C15         6.9886   -2.5855   -0.7469 C.3     1  NONAME1    -0.0192
     21 C16         8.1657   -3.5440   -0.6838 C.3     1  NONAME1     0.0934
     22 O6          8.5874   -3.7893   -2.0377 O.3     1  NONAME1    -0.3837
     23 C17         9.4041   -2.8507   -0.0432 C.2     1  NONAME1    -0.0310
     24 C18         9.8617   -1.6117   -0.3143 C.2     1  NONAME1    -0.0167
     25 C19        11.2616   -1.3009    0.1539 C.2     1  NONAME1     0.1598
     26 O7         11.5295   -0.1652    0.5339 O.2     1  NONAME1    -0.2924
     27 C20        12.3377   -2.4355    0.0000 C.3     1  NONAME1     0.0299
     28 C21        13.7347   -1.9700    0.4442 C.3     1  NONAME1    -0.0141
     29 C22        14.7863   -2.9441   -0.0664 C.3     1  NONAME1     0.0817
     30 O8         16.0695   -2.6462    0.4883 O.3     1  NONAME1    -0.3892
     31 C23        14.3795   -4.3794    0.2878 C.3     1  NONAME1     0.0816
     32 O9         15.3698   -5.0048    1.0999 O.3     1  NONAME1    -0.3892
     33 C24        13.0265   -4.3998    1.0276 C.3     1  NONAME1    -0.0178
     34 C25        11.8145   -3.8839    0.0000 C.3     1  NONAME1    -0.0132
     35 C26        11.2913   -5.3323    0.0000 C.3     1  NONAME1    -0.0583
     36 C27        10.3061   -3.5802    0.9104 C.3     1  NONAME1    -0.0107
     37 C28         9.3551   -4.5187    1.7570 C.3     1  NONAME1    -0.0453
     38 C29         8.2251   -5.4039    1.1338 C.3     1  NONAME1    -0.0438
     39 C30         7.4696   -4.9286   -0.1422 C.3     1  NONAME1     0.0061
     40 C31         7.5731   -6.0725   -1.1915 C.3     1  NONAME1    -0.0563
     41 H1          3.5670   -8.6622   -3.1320 H       1  NONAME1     0.0342
     42 H2          5.3095   -8.3146   -3.2282 H       1  NONAME1     0.0342
     43 H3          4.5652   -8.4309   -1.6665 H       1  NONAME1     0.0342
     44 H4          3.9647   -4.3667   -1.6930 H       1  NONAME1     0.0763
     45 H5          2.1782   -4.9962    0.7171 H       1  NONAME1     0.0306
     46 H6          1.6423   -4.5833   -0.8742 H       1  NONAME1     0.0306
     47 H7          2.8686   -2.4346   -0.7935 H       1  NONAME1     0.0345
     48 H8          3.3288   -1.0748    0.8916 H       1  NONAME1     0.0734
     49 H9          4.5754   -1.5082    2.7901 H       1  NONAME1     0.0265
     50 H10         4.3480   -3.2013    2.7650 H       1  NONAME1     0.0265
     51 H11         5.3069   -2.3661    1.4868 H       1  NONAME1     0.0265
     52 H12         0.9156   -1.4497   -0.3764 H       1  NONAME1     0.0415
     53 H13        -0.1988   -3.6933   -0.8772 H       1  NONAME1     0.0238
     54 H14        -1.0964   -2.7260    0.2818 H       1  NONAME1     0.0238
     55 H15        -0.1195   -4.0658    0.8681 H       1  NONAME1     0.0238
     56 H16         3.6832   -6.5163    1.9390 H       1  NONAME1     0.0259
     57 H17         5.3721   -6.1477    2.1363 H       1  NONAME1     0.0259
     58 H18         4.1418   -4.8784    1.9265 H       1  NONAME1     0.0259
     59 H19         2.9965   -6.9371   -0.4713 H       1  NONAME1     0.2103
     60 H20         5.7444   -4.1703    0.9774 H       1  NONAME1     0.0336
     61 H21         5.8399   -3.8118   -2.0565 H       1  NONAME1     0.0270
     62 H22         4.9051   -2.7865   -0.9378 H       1  NONAME1     0.0270
     63 H23         7.0948   -1.8421   -1.5461 H       1  NONAME1     0.0296
     64 H24         6.8750   -2.0440    0.1963 H       1  NONAME1     0.0296
     65 H25         8.9585   -2.9707   -2.4055 H       1  NONAME1     0.2106
     66 H26         9.3656   -0.8659   -0.9180 H       1  NONAME1     0.0653
     67 H27        12.4646   -2.3338   -1.0977 H       1  NONAME1     0.0387
     68 H28        13.7949   -1.8467    1.5314 H       1  NONAME1     0.0298
     69 H29        13.9573   -0.9722    0.0432 H       1  NONAME1     0.0298
     70 H30        14.8702   -2.8532   -1.1558 H       1  NONAME1     0.0619
     71 H31        16.2537   -1.7059    0.3093 H       1  NONAME1     0.2099
     72 H32        14.2977   -4.9696   -0.6318 H       1  NONAME1     0.0619
     73 H33        16.1344   -4.3885    1.0836 H       1  NONAME1     0.2099
     74 H34        12.9270   -5.4148    1.4385 H       1  NONAME1     0.0297
     75 H35        13.0429   -3.8032    1.9504 H       1  NONAME1     0.0297
     76 H36        10.4170   -5.4226   -0.6508 H       1  NONAME1     0.0235
     77 H37        11.1178   -5.8845    0.9282 H       1  NONAME1     0.0235
     78 H38        12.0114   -5.9508   -0.5624 H       1  NONAME1     0.0235
     79 H39        10.6568   -2.9213    1.7248 H       1  NONAME1     0.0352
     80 H40         9.9529   -5.1353    2.4418 H       1  NONAME1     0.0271
     81 H41         8.8142   -3.8405    2.4373 H       1  NONAME1     0.0271
     82 H42         7.4959   -5.6054    1.9255 H       1  NONAME1     0.0272
     83 H43         8.6838   -6.3822    0.9357 H       1  NONAME1     0.0272
     84 H44         7.1106   -6.9920   -0.8175 H       1  NONAME1     0.0236
     85 H45         7.0721   -5.8094   -2.1272 H       1  NONAME1     0.0236
     86 H46         8.6116   -6.3117   -1.4374 H       1  NONAME1     0.0236
@<TRIPOS>BOND
     1     1     2    1
     2     2     3    2
     3     2     4    1
     4     5     4    1
     5     5     6    1
     6     7     6    1
     7     7     8    1
     8     8     9    1
     9     8    10    1
    10    10    11    1
    11    11    12    2
    12    13    11    1
    13     7    13    1
    14    13    14    1
    15    15     5    1
    16    15    16    1
    17    15    17    1
    18    15    18    1
    19    18    19    1
    20    19    20    1
    21    21    20    1
    22    21    22    1
    23    21    23    1
    24    23    24    2
    25    24    25    1
    26    25    26    2
    27    27    25    1
    28    27    28    1
    29    29    28    1
    30    29    30    1
    31    29    31    1
    32    31    32    1
    33    31    33    1
    34    34    33    1
    35    34    27    1
    36    34    35    1
    37    34    36    1
    38    36    23    1
    39    36    37    1
    40    37    38    1
    41    39    38    1
    42    18    39    1
    43    39    21    1
    44    39    40    1
    45     1    41    1
    46     1    42    1
    47     1    43    1
    48     5    44    1
    49     6    45    1
    50     6    46    1
    51     7    47    1
    52     8    48    1
    53     9    49    1
    54     9    50    1
    55     9    51    1
    56    13    52    1
    57    14    53    1
    58    14    54    1
    59    14    55    1
    60    16    56    1
    61    16    57    1
    62    16    58    1
    63    17    59    1
    64    18    60    1
    65    19    61    1
    66    19    62    1
    67    20    63    1
    68    20    64    1
    69    22    65    1
    70    24    66    1
    71    27    67    1
    72    28    68    1
    73    28    69    1
    74    29    70    1
    75    30    71    1
    76    31    72    1
    77    32    73    1
    78    33    74    1
    79    33    75    1
    80    35    76    1
    81    35    77    1
    82    35    78    1
    83    36    79    1
    84    37    80    1
    85    37    81    1
    86    38    82    1
    87    38    83    1
    88    40    84    1
    89    40    85    1
    90    40    86    1
