@<TRIPOS>MOLECULE
*****
 47 49 0 0 0
SMALL
USER_CHARGES

@<TRIPOS>ATOM
      1 C1         -5.3347   -4.6200    0.0000 C.3     1  NONAME1    -0.0219
      2 C2         -5.3347   -3.0800    0.0000 C.ar    1  NONAME1     0.0480
      3 N1         -6.6073   -2.2890   -0.0745 N.ar    1  NONAME1    -0.2192
      4 C3         -6.6986   -0.8542    0.0219 C.ar    1  NONAME1     0.2192
      5 N2         -8.0021    0.0000    0.0000 N.pl3   1  NONAME1    -0.3057
      6 C4         -9.1922   -0.7932    0.1772 C.3     1  NONAME1     0.0030
      7 C5         -8.0021    1.5400    0.0000 C.3     1  NONAME1     0.0030
      8 N3         -5.5147   -0.2211    0.1531 N.ar    1  NONAME1    -0.1993
      9 C6         -4.3167   -0.9416    0.2688 C.ar    1  NONAME1     0.1270
     10 N4         -3.2160   -0.0781    0.4998 N.pl3   1  NONAME1    -0.3283
     11 C7         -1.8594   -0.4052    0.0466 C.3     1  NONAME1     0.0172
     12 C8         -0.9593    0.8114   -0.1511 C.3     1  NONAME1     0.0210
     13 C9         -0.3402    1.4200    1.0945 C.ar    1  NONAME1     0.1118
     14 N5          0.8618    1.8993    1.0317 N.ar    1  NONAME1    -0.2337
     15 C10         1.3740    2.5613    2.1626 C.ar    1  NONAME1     0.0781
     16 C11         2.6499    3.1322    2.1002 C.ar    1  NONAME1    -0.0355
     17 C12         3.1705    3.8463    3.1860 C.ar    1  NONAME1    -0.0597
     18 C13         2.4199    3.9908    4.3529 C.ar    1  NONAME1    -0.0609
     19 C14         1.1507    3.4167    4.4368 C.ar    1  NONAME1    -0.0474
     20 C15         0.6412    2.7070    3.3409 C.ar    1  NONAME1     0.0647
     21 C16        -0.7027    2.1060    3.3764 C.ar    1  NONAME1     0.2592
     22 O1         -1.4055    2.1498    4.3824 O.2     1  NONAME1    -0.2672
     23 N6         -1.1190    1.5069    2.2129 N.ar    1  NONAME1    -0.3103
     24 C17        -4.1832   -2.3660    0.2474 C.ar    1  NONAME1     0.0104
     25 C18        -2.9062   -3.1173    0.4922 C.3     1  NONAME1    -0.0348
     26 H1         -6.4390   -4.7086    0.0300 H       1  NONAME1     0.0293
     27 H2         -5.3347   -6.1600    0.0000 H       1  NONAME1     0.0293
     28 H3         -5.0132   -4.6937   -1.0596 H       1  NONAME1     0.0293
     29 H4        -10.0038   -0.1849    0.5903 H       1  NONAME1     0.0428
     30 H5         -9.5268   -1.1908   -0.7862 H       1  NONAME1     0.0428
     31 H6         -9.0374   -1.6283    0.8688 H       1  NONAME1     0.0428
     32 H7         -7.2277    1.6359   -0.7841 H       1  NONAME1     0.0428
     33 H8         -8.0021    3.0800    0.0000 H       1  NONAME1     0.0428
     34 H9         -8.9827    1.6383   -0.5028 H       1  NONAME1     0.0428
     35 H10        -3.5675    0.8426    0.2318 H       1  NONAME1     0.1475
     36 H11        -1.9059   -0.9285   -0.9149 H       1  NONAME1     0.0466
     37 H12        -1.3743   -1.0517    0.7844 H       1  NONAME1     0.0466
     38 H13        -1.4755    1.6045   -0.6997 H       1  NONAME1     0.0358
     39 H14        -0.1142    0.4858   -0.7756 H       1  NONAME1     0.0358
     40 H15         3.2385    3.0311    1.1903 H       1  NONAME1     0.0639
     41 H16         4.1591    4.2961    3.1157 H       1  NONAME1     0.0618
     42 H17         2.8202    4.5576    5.1911 H       1  NONAME1     0.0618
     43 H18         0.5600    3.5297    5.3417 H       1  NONAME1     0.0626
     44 H19        -2.0466    1.0945    2.2289 H       1  NONAME1     0.1700
     45 H20        -3.0653   -4.1853    0.6723 H       1  NONAME1     0.0279
     46 H21        -2.2439   -3.0518   -0.3758 H       1  NONAME1     0.0279
     47 H22        -2.4107   -2.7566    1.3969 H       1  NONAME1     0.0279
@<TRIPOS>BOND
     1     1     2    1
     2     2     3   ar
     3     3     4   ar
     4     4     5    1
     5     5     6    1
     6     5     7    1
     7     4     8   ar
     8     8     9   ar
     9     9    10    1
    10    10    11    1
    11    11    12    1
    12    12    13    1
    13    13    14   ar
    14    14    15   ar
    15    15    16   ar
    16    16    17   ar
    17    17    18   ar
    18    18    19   ar
    19    19    20   ar
    20    15    20   ar
    21    20    21   ar
    22    21    22    2
    23    21    23   ar
    24    13    23   ar
    25     9    24   ar
    26     2    24   ar
    27    24    25    1
    28     1    26    1
    29     1    27    1
    30     1    28    1
    31     6    29    1
    32     6    30    1
    33     6    31    1
    34     7    32    1
    35     7    33    1
    36     7    34    1
    37    10    35    1
    38    11    36    1
    39    11    37    1
    40    12    38    1
    41    12    39    1
    42    16    40    1
    43    17    41    1
    44    18    42    1
    45    19    43    1
    46    23    44    1
    47    25    45    1
    48    25    46    1
    49    25    47    1
