@<TRIPOS>MOLECULE
*****
 24 25 0 0 0
SMALL
USER_CHARGES

@<TRIPOS>ATOM
      1 N1         -2.5498   -0.4104    0.1978 N.am    1  NONAME1    -0.3290
      2 C1         -1.3485   -0.8165   -0.3042 C.2     1  NONAME1     0.2163
      3 O1         -1.3042   -1.7166   -1.1370 O.2     1  NONAME1    -0.2756
      4 C2         -0.1173   -0.1895    0.3396 C.3     1  NONAME1     0.0643
      5 C3          1.1330   -0.3458   -0.5658 C.3     1  NONAME1    -0.0272
      6 C4          2.3994   -0.0858    0.2706 C.3     1  NONAME1    -0.0491
      7 C5          2.3583    1.4311    0.5018 C.3     1  NONAME1    -0.0476
      8 C6          1.0650    1.8542   -0.2127 C.3     1  NONAME1    -0.0140
      9 C7          1.0634    0.9199   -1.4225 C.3     1  NONAME1    -0.0442
     10 C8         -0.1429    1.3377    0.5983 C.3     1  NONAME1     0.0694
     11 O2         -1.3385    1.9761    0.1654 O.3     1  NONAME1    -0.3908
     12 H1         -2.5959    0.5767    0.4462 H       1  NONAME1     0.1449
     13 H2         -3.3497   -0.7615   -0.3124 H       1  NONAME1     0.1449
     14 H3          0.0417   -0.7264    1.2839 H       1  NONAME1     0.0422
     15 H4          1.1807   -1.2785   -1.1318 H       1  NONAME1     0.0309
     16 H5          2.4065   -0.6469    1.2102 H       1  NONAME1     0.0268
     17 H6          3.2997   -0.3548   -0.2935 H       1  NONAME1     0.0268
     18 H7          2.3558    1.6864    1.5661 H       1  NONAME1     0.0269
     19 H8          3.2314    1.9060    0.0397 H       1  NONAME1     0.0269
     20 H9          1.0206    2.9166   -0.4622 H       1  NONAME1     0.0326
     21 H10         1.9380    1.0507   -2.0687 H       1  NONAME1     0.0272
     22 H11         0.1519    0.9899   -2.0250 H       1  NONAME1     0.0272
     23 H12        -0.0274    1.5519    1.6668 H       1  NONAME1     0.0603
     24 H13        -1.1888    2.9379    0.2220 H       1  NONAME1     0.2098
@<TRIPOS>BOND
     1     1     2   am
     2     2     3    2
     3     4     2    1
     4     4     5    1
     5     5     6    1
     6     6     7    1
     7     8     7    1
     8     8     9    1
     9     5     9    1
    10    10     8    1
    11     4    10    1
    12    10    11    1
    13     1    12    1
    14     1    13    1
    15     4    14    1
    16     5    15    1
    17     6    16    1
    18     6    17    1
    19     7    18    1
    20     7    19    1
    21     8    20    1
    22     9    21    1
    23     9    22    1
    24    10    23    1
    25    11    24    1
