REMARK  7 active torsions:
REMARK  status: ('A' for Active; 'I' for Inactive)
REMARK       I    between atoms: C2_2  and  N1_4 
REMARK    1  A    between atoms: C3_5  and  N1_4 
REMARK    2  A    between atoms: C4_6  and  O2_7 
REMARK    3  A    between atoms: O2_7  and  C5_8 
REMARK    4  A    between atoms: C23_28  and  C24_29 
REMARK    5  A    between atoms: C24_29  and  O5_30 
REMARK    6  A    between atoms: C25_31  and  O6_32 
REMARK    7  A    between atoms: C26_33  and  O7_34 
ROOT
ATOM      1  C5  NON d   1       4.023  -0.740  -0.578  0.00  0.00     0.072 C 
ATOM      2  C6  NON d   1       4.229  -1.888   0.179  0.00  0.00     0.037 C 
ATOM      3  C7  NON d   1       5.538  -2.350   0.419  0.00  0.00     0.011 C 
ATOM      4  C8  NON d   1       6.665  -1.670  -0.090  0.00  0.00    -0.047 C 
ATOM      5  C9  NON d   1       6.444  -0.592  -0.957  0.00  0.00    -0.049 C 
ATOM      6  C10 NON d   1       5.121  -0.157  -1.213  0.00  0.00     0.044 C 
ATOM      7  C11 NON d   1       7.573   0.202  -1.565  0.00  0.00     0.039 C 
ATOM      8  C12 NON d   1       8.986  -0.312  -1.280  0.00  0.00     0.010 C 
ATOM      9  C13 NON d   1       9.109  -0.906   0.118  0.00  0.00    -0.000 C 
ATOM     10  C14 NON d   1      10.524  -1.349   0.522  0.00  0.00     0.006 C 
ATOM     11  C15 NON d   1      11.737  -0.481   0.196  0.00  0.00     0.013 C 
ATOM     12  C16 NON d   1      12.896  -1.298   0.800  0.00  0.00     0.079 C 
ATOM     13  C17 NON d   1      12.315  -2.710   0.861  0.00  0.00     0.135 C 
ATOM     14  O3  NON d   1      12.871  -3.659   1.395  0.00  0.00    -0.297 OA
ATOM     15  C18 NON d   1      10.979  -2.773   0.129  0.00  0.00     0.021 C 
ATOM     16  C19 NON d   1      11.367  -3.063  -1.333  0.00  0.00     0.024 C 
ATOM     17  C20 NON d   1       9.928  -3.771   0.601  0.00  0.00     0.018 C 
ATOM     18  C21 NON d   1       8.557  -3.434  -0.027  0.00  0.00     0.011 C 
ATOM     19  C22 NON d   1       8.066  -2.033   0.398  0.00  0.00     0.024 C 
ENDROOT
BRANCH   1  20
ATOM     20  O2  NON d   1       2.755  -0.219  -0.744  0.00  0.00    -0.318 OA
BRANCH  20  21
ATOM     21  C4  NON d   1       2.434   0.803   0.242  0.00  0.00     0.292 C 
ATOM     22  C3  NON d   1       3.127   2.157  -0.104  0.00  0.00     0.171 C 
ATOM     23  C26 NON d   1       2.271   3.425   0.042  0.00  0.00     0.177 C 
ATOM     24  C25 NON d   1       0.790   3.265  -0.307  0.00  0.00     0.180 C 
ATOM     25  C23 NON d   1       0.320   1.797  -0.440  0.00  0.00     0.179 C 
ATOM     26  O4  NON d   1       1.018   0.937   0.472  0.00  0.00    -0.349 OA
BRANCH  22  27
ATOM     27  N1  NON d   1       4.360   2.312   0.695  0.00  0.00    -0.349 N 
ATOM     28  C2  NON d   1       5.442   3.020   0.242  0.00  0.00     0.214 C 
ATOM     29  C1  NON d   1       6.561   3.096   1.245  0.00  0.00     0.117 C 
ATOM     30  O1  NON d   1       5.492   3.558  -0.860  0.00  0.00    -0.274 OA
ATOM     31  H4  NON d   1       4.269   2.161   1.691  0.00  0.00     0.163 HD
ENDBRANCH  22  27
BRANCH  23  32
ATOM     32  O7  NON d   1       2.388   3.988   1.372  0.00  0.00    -0.391 OA
ATOM     33  H35 NON d   1       3.063   4.691   1.294  0.00  0.00     0.210 HD
ENDBRANCH  23  32
BRANCH  24  34
ATOM     34  O6  NON d   1       0.002   4.012   0.640  0.00  0.00    -0.390 OA
ATOM     35  H33 NON d   1       0.637   4.321   1.322  0.00  0.00     0.210 HD
ENDBRANCH  24  34
BRANCH  25  36
ATOM     36  C24 NON d   1      -1.195   1.711  -0.147  0.00  0.00     0.198 C 
BRANCH  36  37
ATOM     37  O5  NON d   1      -1.783   0.575  -0.784  0.00  0.00    -0.398 OA
ATOM     38  H31 NON d   1      -2.720   0.570  -0.520  0.00  0.00     0.209 HD
ENDBRANCH  36  37
ENDBRANCH  25  36
ENDBRANCH  20  21
ENDBRANCH   1  20
TORSDOF 7
