@<TRIPOS>MOLECULE
*****
 59 59 0 0 0
SMALL
USER_CHARGES

@<TRIPOS>ATOM
      1 C1        -11.0107   -4.0287    1.1641 C.3     1  NONAME1    -0.0622
      2 C2        -10.6694   -3.0800    0.0000 C.3     1  NONAME1    -0.0385
      3 C3        -11.6617   -2.9013   -1.1640 C.3     1  NONAME1    -0.0622
      4 C4         -9.2699   -2.2965    0.0960 C.3     1  NONAME1     0.0263
      5 C5         -7.9078   -2.7737   -0.4647 C.2     1  NONAME1     0.2139
      6 O1         -7.7646   -3.0118   -1.6628 O.2     1  NONAME1    -0.2758
      7 N1         -6.8224   -2.7882    0.4336 N.am    1  NONAME1    -0.3037
      8 C6         -5.3347   -3.0800    0.0000 C.3     1  NONAME1     0.1031
      9 C7         -3.9749   -2.3714    0.9900 C.2     1  NONAME1     0.2496
     10 O2         -4.0372   -2.1567    2.1949 O.2     1  NONAME1    -0.2722
     11 N2         -2.8272   -2.1052    0.1335 N.am    1  NONAME1    -0.2336
     12 N3         -1.4811   -1.8128    0.6006 N.am    1  NONAME1    -0.2455
     13 C8         -0.3669   -2.3646   -0.0326 C.2     1  NONAME1     0.1510
     14 S1         -0.4495   -3.7881   -0.9278 S.2     1  NONAME1    -0.0171
     15 N4          0.8869   -1.7759    0.0712 N.am    1  NONAME1    -0.2955
     16 C9          1.2998   -0.4188    0.2605 C.ar    1  NONAME1     0.0361
     17 C10         0.2992    0.5706    0.1834 C.ar    1  NONAME1    -0.0402
     18 C11         0.5659    1.9230    0.3828 C.ar    1  NONAME1    -0.0600
     19 C12         1.8489    2.3200    0.6996 C.ar    1  NONAME1    -0.0614
     20 C13         2.8802    1.3784    0.7243 C.ar    1  NONAME1    -0.0566
     21 C14         2.6761    0.0032    0.4210 C.ar    1  NONAME1    -0.0236
     22 C15         4.0010   -0.7700    0.0000 C.3     1  NONAME1    -0.0198
     23 C16         4.0010   -2.3100    0.0000 C.3     1  NONAME1    -0.0586
     24 C17         5.3347    0.0000    0.0000 C.3     1  NONAME1    -0.0586
     25 C18        -5.3347   -4.6200    0.0000 C.3     1  NONAME1    -0.0197
     26 C19        -4.3973   -5.6033    0.7871 C.3     1  NONAME1    -0.0605
     27 C20        -6.6683   -5.3900   -0.0183 C.3     1  NONAME1    -0.0605
     28 H1         -9.9837   -4.0856    1.5786 H       1  NONAME1     0.0232
     29 H2        -11.3521   -4.9774    2.3282 H       1  NONAME1     0.0232
     30 H3        -11.1433   -4.9273    0.5274 H       1  NONAME1     0.0232
     31 H4        -11.1859   -2.2512    0.5349 H       1  NONAME1     0.0300
     32 H5        -11.8857   -3.9806   -1.2823 H       1  NONAME1     0.0232
     33 H6        -12.6541   -2.7227   -2.3281 H       1  NONAME1     0.0232
     34 H7        -10.8878   -2.6458   -1.9164 H       1  NONAME1     0.0232
     35 H8         -9.4229   -1.3187   -0.3859 H       1  NONAME1     0.0361
     36 H9         -9.1047   -2.0554    1.1572 H       1  NONAME1     0.0361
     37 H10        -6.9548   -2.4964    1.3950 H       1  NONAME1     0.1495
     38 H11        -5.3347   -1.5400    0.0000 H       1  NONAME1     0.0598
     39 H12        -2.8518   -2.4545   -0.8255 H       1  NONAME1     0.1728
     40 H13        -1.3978   -1.1208    1.3381 H       1  NONAME1     0.1718
     41 H14         1.6311   -2.3991   -0.2125 H       1  NONAME1     0.1539
     42 H15        -0.7138    0.3303   -0.1238 H       1  NONAME1     0.0636
     43 H16        -0.2300    2.6560    0.2768 H       1  NONAME1     0.0618
     44 H17         2.0677    3.3716    0.8645 H       1  NONAME1     0.0618
     45 H18         3.8778    1.7698    0.9107 H       1  NONAME1     0.0621
     46 H19         3.7841   -0.6961   -1.0883 H       1  NONAME1     0.0344
     47 H20         3.7281   -2.4065    1.0715 H       1  NONAME1     0.0235
     48 H21         4.0010   -3.8500    0.0000 H       1  NONAME1     0.0235
     49 H22         5.0957   -2.4508   -0.0781 H       1  NONAME1     0.0235
     50 H23         5.9151   -0.7338   -0.5959 H       1  NONAME1     0.0235
     51 H24         6.6684    0.7700    0.0000 H       1  NONAME1     0.0235
     52 H25         5.0282    0.8007   -0.7092 H       1  NONAME1     0.0235
     53 H26        -4.0011   -3.8500    0.0183 H       1  NONAME1     0.0318
     54 H27        -4.8468   -6.5725    1.0265 H       1  NONAME1     0.0233
     55 H28        -3.5347   -5.8492    0.1495 H       1  NONAME1     0.0233
     56 H29        -4.0484   -5.1748    1.7296 H       1  NONAME1     0.0233
     57 H30        -7.2323   -5.1886   -0.9303 H       1  NONAME1     0.0233
     58 H31        -7.2717   -5.2174    0.8780 H       1  NONAME1     0.0233
     59 H32        -6.5195   -6.4754   -0.0850 H       1  NONAME1     0.0233
@<TRIPOS>BOND
     1     1     2    1
     2     2     3    1
     3     2     4    1
     4     4     5    1
     5     5     6    2
     6     5     7   am
     7     8     7    1
     8     8     9    1
     9     9    10    2
    10     9    11   am
    11    11    12    1
    12    12    13    1
    13    13    14    2
    14    13    15    1
    15    15    16    1
    16    16    17   ar
    17    17    18   ar
    18    18    19   ar
    19    19    20   ar
    20    20    21   ar
    21    16    21   ar
    22    21    22    1
    23    22    23    1
    24    22    24    1
    25     8    25    1
    26    25    26    1
    27    25    27    1
    28     1    28    1
    29     1    29    1
    30     1    30    1
    31     2    31    1
    32     3    32    1
    33     3    33    1
    34     3    34    1
    35     4    35    1
    36     4    36    1
    37     7    37    1
    38     8    38    1
    39    11    39    1
    40    12    40    1
    41    15    41    1
    42    17    42    1
    43    18    43    1
    44    19    44    1
    45    20    45    1
    46    22    46    1
    47    23    47    1
    48    23    48    1
    49    23    49    1
    50    24    50    1
    51    24    51    1
    52    24    52    1
    53    25    53    1
    54    26    54    1
    55    26    55    1
    56    26    56    1
    57    27    57    1
    58    27    58    1
    59    27    59    1
