@<TRIPOS>MOLECULE
*****
 37 37 0 0 0
SMALL
USER_CHARGES

@<TRIPOS>ATOM
      1 C1         -2.6154   -4.8895    0.2446 C.3     1  NONAME1    -0.0646
      2 C2         -2.3630   -6.2930   -0.2952 C.3     1  NONAME1    -0.0447
      3 C3         -1.1226   -6.9822    0.3155 C.3     1  NONAME1     0.0365
      4 C4         -1.2224   -8.5180    0.1954 C.3     1  NONAME1    -0.0447
      5 C5         -1.5662   -9.0365   -1.1943 C.3     1  NONAME1    -0.0646
      6 C6          0.1728   -6.3922   -0.2705 C.2     1  NONAME1     0.2322
      7 O1          0.1996   -5.3603   -0.9454 O.2     1  NONAME1    -0.2740
      8 N1          1.3478   -7.0007    0.1171 N.am    1  NONAME1    -0.2339
      9 N2          2.5493   -6.3335   -0.1603 N.am    1  NONAME1    -0.2304
     10 C7          3.7417   -6.9632    0.1297 C.2     1  NONAME1     0.2602
     11 O2          3.7921   -8.1332    0.5019 O.2     1  NONAME1    -0.2687
     12 C8          4.9943   -6.1571    0.0022 C.ar    1  NONAME1     0.0403
     13 C9          4.9892   -4.7546   -0.0403 C.ar    1  NONAME1    -0.0495
     14 C10         6.1925   -4.0386   -0.0942 C.ar    1  NONAME1    -0.0589
     15 C11         7.4111   -4.7154   -0.0941 C.ar    1  NONAME1    -0.0314
     16 C12         7.4216   -6.1148   -0.0498 C.ar    1  NONAME1     0.1269
     17 N3          8.7049   -6.8273   -0.0316 N.pl3   1  NONAME1     0.0564
     18 O3          9.7401   -6.1467   -0.0116 O.2     1  NONAME1    -0.1261
     19 O4          8.6790   -8.0669   -0.0423 O.2     1  NONAME1    -0.1261
     20 C13         6.2210   -6.8398   -0.0003 C.ar    1  NONAME1    -0.0193
     21 H1         -3.0983   -4.9378    1.2256 H       1  NONAME1     0.0230
     22 H2         -3.2856   -4.3472   -0.4309 H       1  NONAME1     0.0230
     23 H3         -1.6980   -4.3047    0.3480 H       1  NONAME1     0.0230
     24 H4         -3.2628   -6.8879   -0.0959 H       1  NONAME1     0.0270
     25 H5         -2.2540   -6.2349   -1.3855 H       1  NONAME1     0.0270
     26 H6         -1.0910   -6.7484    1.3892 H       1  NONAME1     0.0394
     27 H7         -0.2967   -8.9999    0.5255 H       1  NONAME1     0.0270
     28 H8         -1.9995   -8.8671    0.8881 H       1  NONAME1     0.0270
     29 H9         -2.5663   -8.7185   -1.5056 H       1  NONAME1     0.0230
     30 H10        -0.8423   -8.6946   -1.9383 H       1  NONAME1     0.0230
     31 H11        -1.5649  -10.1317   -1.1924 H       1  NONAME1     0.0230
     32 H12         1.4217   -7.8707    0.6392 H       1  NONAME1     0.1728
     33 H13         2.4506   -5.4029   -0.5598 H       1  NONAME1     0.1731
     34 H14         4.0636   -4.1865   -0.0031 H       1  NONAME1     0.0625
     35 H15         6.1749   -2.9515   -0.1178 H       1  NONAME1     0.0618
     36 H16         8.3367   -4.1423   -0.1250 H       1  NONAME1     0.0640
     37 H17         6.2303   -7.9279    0.0484 H       1  NONAME1     0.0648
@<TRIPOS>BOND
     1     1     2    1
     2     2     3    1
     3     3     4    1
     4     4     5    1
     5     3     6    1
     6     6     7    2
     7     6     8   am
     8     8     9    1
     9     9    10   am
    10    10    11    2
    11    10    12    1
    12    12    13   ar
    13    13    14   ar
    14    14    15   ar
    15    15    16   ar
    16    16    17    1
    17    17    18    2
    18    17    19    1
    19    16    20   ar
    20    12    20   ar
    21     1    21    1
    22     1    22    1
    23     1    23    1
    24     2    24    1
    25     2    25    1
    26     3    26    1
    27     4    27    1
    28     4    28    1
    29     5    29    1
    30     5    30    1
    31     5    31    1
    32     8    32    1
    33     9    33    1
    34    13    34    1
    35    14    35    1
    36    15    36    1
    37    20    37    1
