REMARK  12 active torsions:
REMARK  status: ('A' for Active; 'I' for Inactive)
REMARK    1  A    between atoms: C2_2  and  N1_3 
REMARK    2  A    between atoms: C4_5  and  C5_6 
REMARK    3  A    between atoms: C6_7  and  N2_8 
REMARK    4  A    between atoms: C6_7  and  C17_23 
REMARK       I    between atoms: N2_8  and  C7_9 
REMARK    5  A    between atoms: C7_9  and  C8_11 
REMARK    6  A    between atoms: C10_13  and  O2_14 
REMARK    7  A    between atoms: C12_16  and  O3_17 
REMARK    8  A    between atoms: C14_19  and  O4_20 
REMARK       I    between atoms: C17_23  and  N3_25 
REMARK    9  A    between atoms: N3_25  and  C18_26 
REMARK   10  A    between atoms: C18_26  and  C19_27 
REMARK   11  A    between atoms: C19_27  and  C20_28 
REMARK   12  A    between atoms: C20_28  and  O6_29 
ROOT
ATOM      1  C5  NON d   1      -1.819  -7.726  -0.153  0.00  0.00     0.049 C 
ATOM      2  C6  NON d   1      -1.718  -6.376  -0.087  0.00  0.00     0.104 C 
ENDROOT
BRANCH   2   3
ATOM      3  N2  NON d   1      -2.812  -5.512  -0.015  0.00  0.00    -0.318 N 
ATOM      4  C7  NON d   1      -2.821  -4.160   0.327  0.00  0.00     0.256 C 
ATOM      5  O1  NON d   1      -1.845  -3.546   0.747  0.00  0.00    -0.267 OA
ATOM      6  H8  NON d   1      -3.683  -5.919  -0.300  0.00  0.00     0.169 HD
BRANCH   4   7
ATOM      7  C8  NON d   1      -4.149  -3.429   0.245  0.00  0.00     0.037 A 
ATOM      8  C9  NON d   1      -5.368  -4.100   0.389  0.00  0.00     0.057 A 
ATOM      9  C10 NON d   1      -6.599  -3.415   0.322  0.00  0.00     0.105 A 
ATOM     10  C12 NON d   1      -6.670  -2.015   0.130  0.00  0.00     0.135 A 
ATOM     11  C14 NON d   1      -5.376  -1.275   0.072  0.00  0.00     0.105 A 
ATOM     12  C16 NON d   1      -4.166  -2.021   0.118  0.00  0.00     0.057 A 
BRANCH   9  13
ATOM     13  O2  NON d   1      -7.729  -4.142   0.628  0.00  0.00    -0.353 OA
ATOM     14  C11 NON d   1      -8.090  -5.051  -0.409  0.00  0.00     0.210 C 
ENDBRANCH   9  13
BRANCH  10  15
ATOM     15  O3  NON d   1      -7.933  -1.410   0.000  0.00  0.00    -0.351 OA
ATOM     16  C13 NON d   1      -9.267  -2.180   0.000  0.00  0.00     0.210 C 
ENDBRANCH  10  15
BRANCH  11  17
ATOM     17  O4  NON d   1      -5.266   0.130   0.000  0.00  0.00    -0.353 OA
ATOM     18  C15 NON d   1      -3.932   0.900   0.000  0.00  0.00     0.210 C 
ENDBRANCH  11  17
ENDBRANCH   4   7
ENDBRANCH   2   3
BRANCH   2  19
ATOM     19  C17 NON d   1      -0.324  -5.816  -0.356  0.00  0.00     0.268 C 
ATOM     20  O5  NON d   1      -0.170  -4.919  -1.181  0.00  0.00    -0.266 OA
ATOM     21  N3  NON d   1       0.737  -6.430   0.303  0.00  0.00    -0.356 N 
ATOM     22  H20 NON d   1       0.526  -7.068   1.058  0.00  0.00     0.162 HD
BRANCH  21  23
ATOM     23  C18 NON d   1       2.083  -5.875   0.220  0.00  0.00     0.125 C 
BRANCH  23  24
ATOM     24  C19 NON d   1       3.197  -6.894  -0.034  0.00  0.00     0.046 C 
BRANCH  24  25
ATOM     25  C20 NON d   1       3.577  -7.723   1.185  0.00  0.00     0.165 C 
BRANCH  25  26
ATOM     26  O6  NON d   1       4.765  -8.454   0.890  0.00  0.00    -0.401 OA
ATOM     27  H27 NON d   1       5.031  -8.917   1.703  0.00  0.00     0.209 HD
ENDBRANCH  25  26
ENDBRANCH  24  25
ENDBRANCH  23  24
ENDBRANCH  21  23
ENDBRANCH   2  19
BRANCH   1  28
ATOM     28  C4  NON d   1      -2.938  -8.628  -0.045  0.00  0.00    -0.006 A 
ATOM     29  C3  NON d   1      -4.268  -8.322   0.099  0.00  0.00     0.103 A 
ATOM     30  N1  NON d   1      -5.019  -9.483   0.055  0.00  0.00    -0.356 N 
ATOM     31  C26 NON d   1      -4.180 -10.574  -0.009  0.00  0.00     0.045 A 
ATOM     32  C25 NON d   1      -4.423 -11.962  -0.029  0.00  0.00     0.030 A 
ATOM     33  C21 NON d   1      -2.866 -10.069  -0.066  0.00  0.00     0.002 A 
ATOM     34  C24 NON d   1      -3.343 -12.847  -0.088  0.00  0.00     0.002 A 
ATOM     35  C23 NON d   1      -2.042 -12.372  -0.133  0.00  0.00     0.001 A 
ATOM     36  C22 NON d   1      -1.794 -10.996  -0.128  0.00  0.00     0.014 A 
BRANCH  30  37
ATOM     37  C2  NON d   1      -6.471  -9.391   0.035  0.00  0.00     0.124 C 
ATOM     38  C1  NON d   1      -7.318 -10.641   0.171  0.00  0.00     0.027 C 
ENDBRANCH  30  37
ENDBRANCH   1  28
TORSDOF 12
