REMARK  8 active torsions:
REMARK  status: ('A' for Active; 'I' for Inactive)
REMARK    1  A    between atoms: C1_2  and  N2_3 
REMARK    2  A    between atoms: C1_2  and  C11_16 
REMARK    3  A    between atoms: N2_3  and  N3_4 
REMARK    4  A    between atoms: C2_5  and  C3_6 
REMARK    5  A    between atoms: C8_11  and  O1_12 
REMARK    6  A    between atoms: O1_12  and  C9_13 
REMARK    7  A    between atoms: C9_13  and  C10_14 
REMARK    8  A    between atoms: C10_14  and  O2_15 
ROOT
ATOM      1  N3  NON d   1      -0.245  -4.662  -0.041  0.00  0.00    -0.185 NA
ATOM      2  C2  NON d   1      -1.383  -5.285  -0.025  0.00  0.00     0.152 C 
ENDROOT
BRANCH   1   3
ATOM      3  N2  NON d   1      -0.256  -3.296  -0.040  0.00  0.00    -0.261 N 
ATOM      4  H2  NON d   1      -1.137  -2.800   0.026  0.00  0.00     0.191 HD
BRANCH   3   5
ATOM      5  C1  NON d   1       0.929  -2.579  -0.039  0.00  0.00     0.146 C 
ATOM      6  N1  NON d   1       2.050  -3.249  -0.058  0.00  0.00    -0.282 NA
ATOM      7  H1  NON d   1       1.723  -4.230  -0.066  0.00  0.00     0.188 HD
BRANCH   5   8
ATOM      8  C11 NON d   1       0.985  -1.081  -0.020  0.00  0.00     0.011 A 
ATOM      9  C12 NON d   1      -0.164  -0.284  -0.013  0.00  0.00     0.015 A 
ATOM     10  C13 NON d   1      -0.049   1.112   0.001  0.00  0.00     0.001 A 
ATOM     11  C14 NON d   1       1.207   1.719   0.008  0.00  0.00     0.000 A 
ATOM     12  C15 NON d   1       2.356   0.935   0.001  0.00  0.00     0.001 A 
ATOM     13  C16 NON d   1       2.244  -0.457  -0.012  0.00  0.00     0.015 A 
ENDBRANCH   5   8
ENDBRANCH   3   5
ENDBRANCH   1   3
BRANCH   2  14
ATOM     14  C3  NON d   1      -1.409  -6.771  -0.005  0.00  0.00     0.016 A 
ATOM     15  C4  NON d   1      -0.175  -7.449   0.018  0.00  0.00     0.016 A 
ATOM     16  C5  NON d   1      -0.126  -8.839   0.060  0.00  0.00     0.001 A 
ATOM     17  C6  NON d   1      -1.310  -9.564   0.088  0.00  0.00     0.003 A 
ATOM     18  C7  NON d   1      -2.541  -8.900   0.064  0.00  0.00     0.037 A 
ATOM     19  C8  NON d   1      -2.611  -7.498   0.003  0.00  0.00     0.080 A 
BRANCH  19  20
ATOM     20  O1  NON d   1      -3.792  -6.796  -0.059  0.00  0.00    -0.348 OA
BRANCH  20  21
ATOM     21  C9  NON d   1      -5.000  -7.574  -0.037  0.00  0.00     0.201 C 
BRANCH  21  22
ATOM     22  C10 NON d   1      -6.218  -6.679  -0.255  0.00  0.00     0.190 C 
BRANCH  22  23
ATOM     23  O2  NON d   1      -6.484  -5.899   0.907  0.00  0.00    -0.399 OA
ATOM     24  H12 NON d   1      -7.295  -5.393   0.729  0.00  0.00     0.209 HD
ENDBRANCH  22  23
ENDBRANCH  21  22
ENDBRANCH  20  21
ENDBRANCH  19  20
ENDBRANCH   2  14
TORSDOF 8
