@<TRIPOS>MOLECULE
*****
 49 50 0 0 0
SMALL
USER_CHARGES

@<TRIPOS>ATOM
      1 C1         -1.2626   -9.7212   -0.0854 C.3     1  NONAME1    -0.0397
      2 C2          0.0510   -8.9991   -0.0480 C.ar    1  NONAME1    -0.0499
      3 C3          0.1037   -7.6099   -0.0871 C.ar    1  NONAME1    -0.0556
      4 C4          1.3337   -6.9300    0.0000 C.ar    1  NONAME1    -0.0453
      5 C5          1.3337   -5.3900    0.0000 C.3     1  NONAME1    -0.0394
      6 C6          2.5624   -7.6468    0.0900 C.ar    1  NONAME1    -0.0245
      7 C7          3.8415   -6.8209    0.1393 C.3     1  NONAME1     0.0378
      8 N1          5.0641   -7.4909   -0.2231 N.am    1  NONAME1    -0.3035
      9 C8          6.2978   -7.0038    0.1338 C.2     1  NONAME1     0.2996
     10 O1          6.5207   -5.9355    0.6888 O.2     1  NONAME1    -0.2652
     11 C9          7.4745   -7.9481   -0.2073 C.2     1  NONAME1     0.3031
     12 O2          7.2278   -9.0770   -0.6065 O.2     1  NONAME1    -0.2648
     13 N2          8.6988   -7.3523    0.0169 N.am    1  NONAME1    -0.2777
     14 C10         9.9725   -7.9491   -0.0274 C.ar    1  NONAME1     0.0345
     15 C11        11.0763   -7.1162    0.1727 C.ar    1  NONAME1    -0.0402
     16 C12        12.3717   -7.6401    0.1818 C.ar    1  NONAME1    -0.0564
     17 C13        12.5935   -9.0160    0.0195 C.ar    1  NONAME1    -0.0382
     18 C14        14.0074   -9.5296    0.0623 C.3     1  NONAME1    -0.0390
     19 C15        11.4828   -9.8606   -0.1794 C.ar    1  NONAME1     0.0411
     20 C16        11.6574  -11.3358   -0.3515 C.2     1  NONAME1     0.2418
     21 N3         10.6632  -12.1391    0.1376 N.am    1  NONAME1    -0.3253
     22 O3         12.6460  -11.8314   -0.8759 O.2     1  NONAME1    -0.2704
     23 C17        10.1834   -9.3153   -0.2210 C.ar    1  NONAME1    -0.0281
     24 C18         2.4937   -9.0582    0.2093 C.ar    1  NONAME1    -0.0453
     25 C19         3.6831   -9.9576    0.4272 C.3     1  NONAME1    -0.0394
     26 C20         1.2424   -9.7069    0.1142 C.ar    1  NONAME1    -0.0556
     27 H1         -2.0338   -9.1146   -0.5714 H       1  NONAME1     0.0278
     28 H2         -1.5903   -9.9526    0.9330 H       1  NONAME1     0.0278
     29 H3         -1.1759  -10.6539   -0.6525 H       1  NONAME1     0.0278
     30 H4         -0.8212   -7.0422   -0.1723 H       1  NONAME1     0.0623
     31 H5          1.1054   -5.3083   -1.0824 H       1  NONAME1     0.0278
     32 H6          1.3337   -3.8500    0.0000 H       1  NONAME1     0.0278
     33 H7          0.4102   -5.2820    0.6032 H       1  NONAME1     0.0278
     34 H8          3.9547   -6.3992    1.1448 H       1  NONAME1     0.0512
     35 H9          3.7652   -5.9882   -0.5699 H       1  NONAME1     0.0512
     36 H10         5.0500   -8.2897   -0.8466 H       1  NONAME1     0.1495
     37 H11         8.6439   -6.3738    0.2927 H       1  NONAME1     0.1553
     38 H12        10.9492   -6.0454    0.3149 H       1  NONAME1     0.0636
     39 H13        13.2122   -6.9630    0.3264 H       1  NONAME1     0.0621
     40 H14        14.1016  -10.3451    0.7867 H       1  NONAME1     0.0278
     41 H15        14.3210   -9.8708   -0.9291 H       1  NONAME1     0.0278
     42 H16        14.7071   -8.7467    0.3754 H       1  NONAME1     0.0278
     43 H17         9.8952  -11.8018    0.6998 H       1  NONAME1     0.1453
     44 H18        10.8136  -13.1378    0.0807 H       1  NONAME1     0.1453
     45 H19         9.3439   -9.9757   -0.4101 H       1  NONAME1     0.0644
     46 H20         3.3763  -10.9300    0.8297 H       1  NONAME1     0.0278
     47 H21         4.1962  -10.1489   -0.5199 H       1  NONAME1     0.0278
     48 H22         4.3718   -9.5341    1.1634 H       1  NONAME1     0.0278
     49 H23         1.1969  -10.7937    0.1834 H       1  NONAME1     0.0623
@<TRIPOS>BOND
     1     1     2    1
     2     2     3   ar
     3     3     4   ar
     4     4     5    1
     5     4     6   ar
     6     6     7    1
     7     7     8    1
     8     8     9   am
     9     9    10    2
    10     9    11    1
    11    11    12    2
    12    11    13   am
    13    13    14    1
    14    14    15   ar
    15    15    16   ar
    16    16    17   ar
    17    17    18    1
    18    17    19   ar
    19    19    20    1
    20    20    21   am
    21    20    22    2
    22    19    23   ar
    23    14    23   ar
    24     6    24   ar
    25    24    25    1
    26    24    26   ar
    27     2    26   ar
    28     1    27    1
    29     1    28    1
    30     1    29    1
    31     3    30    1
    32     5    31    1
    33     5    32    1
    34     5    33    1
    35     7    34    1
    36     7    35    1
    37     8    36    1
    38    13    37    1
    39    15    38    1
    40    16    39    1
    41    18    40    1
    42    18    41    1
    43    18    42    1
    44    21    43    1
    45    21    44    1
    46    23    45    1
    47    25    46    1
    48    25    47    1
    49    25    48    1
    50    26    49    1
