REMARK  5 active torsions:
REMARK  status: ('A' for Active; 'I' for Inactive)
REMARK    1  A    between atoms: N1_1  and  C1_2 
REMARK    2  A    between atoms: C2_3  and  C3_4 
REMARK       I    between atoms: C3_4  and  N2_6 
REMARK    3  A    between atoms: N2_6  and  C4_7 
REMARK    4  A    between atoms: C5_8  and  C4_7 
REMARK    5  A    between atoms: C10_16  and  N4_17 
ROOT
ATOM      1  C1  NON d   1      -1.766  -0.255   0.025  0.00  0.00     0.062 A 
ATOM      2  C2  NON d   1      -3.053  -0.761   0.115  0.00  0.00     0.101 A 
ATOM      3  S1  NON d   1      -3.024  -2.480   0.061  0.00  0.00    -0.062 SA
ATOM      4  C9  NON d   1      -1.331  -2.538   0.009  0.00  0.00     0.114 A 
ATOM      5  N3  NON d   1      -0.727  -3.732   0.004  0.00  0.00    -0.223 NA
ATOM      6  C10 NON d   1       0.615  -3.803   0.009  0.00  0.00     0.133 A 
ATOM      7  C16 NON d   1       1.369  -2.594  -0.004  0.00  0.00    -0.005 A 
ATOM      8  C17 NON d   1       0.692  -1.313   0.023  0.00  0.00    -0.033 A 
ATOM      9  C18 NON d   1      -0.735  -1.293   0.003  0.00  0.00     0.035 A 
ATOM     10  C19 NON d   1       1.470  -0.014   0.069  0.00  0.00     0.040 C 
ATOM     11  C20 NON d   1       2.931  -0.126   0.462  0.00  0.00     0.005 C 
ATOM     12  C21 NON d   1       3.569  -1.250  -0.307  0.00  0.00     0.005 C 
ATOM     13  C22 NON d   1       2.889  -2.570   0.038  0.00  0.00     0.043 C 
ENDROOT
BRANCH   2  14
ATOM     14  C3  NON d   1      -4.361  -0.126   0.278  0.00  0.00     0.261 C 
ATOM     15  O1  NON d   1      -5.359  -0.751   0.647  0.00  0.00    -0.267 OA
ATOM     16  N2  NON d   1      -4.464   1.242   0.014  0.00  0.00    -0.354 N 
ATOM     17  H3  NON d   1      -3.795   1.609  -0.656  0.00  0.00     0.162 HD
BRANCH  16  18
ATOM     18  C4  NON d   1      -5.793   1.843   0.078  0.00  0.00     0.155 C 
BRANCH  18  19
ATOM     19  C5  NON d   1      -5.907   3.359   0.282  0.00  0.00     0.139 C 
ATOM     20  C6  NON d   1      -4.794   4.085   1.008  0.00  0.00     0.035 C 
ATOM     21  C7  NON d   1      -5.126   5.535   0.696  0.00  0.00     0.029 C 
ATOM     22  C8  NON d   1      -5.897   5.470  -0.615  0.00  0.00     0.168 C 
ATOM     23  O2  NON d   1      -6.003   4.077  -0.962  0.00  0.00    -0.384 OA
ENDBRANCH  18  19
ENDBRANCH  16  18
ENDBRANCH   2  14
BRANCH   1  24
ATOM     24  N1  NON d   1      -1.520   1.083   0.001  0.00  0.00    -0.397 N 
ATOM     25  H1  NON d   1      -0.574   1.445  -0.026  0.00  0.00     0.156 HD
ATOM     26  H2  NON d   1      -2.128   1.706   0.533  0.00  0.00     0.156 HD
ENDBRANCH   1  24
BRANCH   6  27
ATOM     27  N4  NON d   1       1.119  -5.129   0.089  0.00  0.00    -0.365 N 
ATOM     28  C11 NON d   1       2.489  -5.454  -0.299  0.00  0.00     0.124 C 
ATOM     29  C12 NON d   1       2.837  -6.938  -0.362  0.00  0.00     0.020 C 
ATOM     30  C13 NON d   1       1.936  -7.809   0.477  0.00  0.00     0.003 C 
ATOM     31  C14 NON d   1       0.494  -7.603   0.068  0.00  0.00     0.020 C 
ATOM     32  C15 NON d   1       0.082  -6.150  -0.183  0.00  0.00     0.124 C 
ENDBRANCH   6  27
TORSDOF 5
