REMARK  8 active torsions:
REMARK  status: ('A' for Active; 'I' for Inactive)
REMARK    1  A    between atoms: C2_2  and  O1_3 
REMARK    2  A    between atoms: O1_3  and  C3_4 
REMARK    3  A    between atoms: C6_7  and  C5_6 
REMARK    4  A    between atoms: C6_7  and  C7_8 
REMARK    5  A    between atoms: C6_7  and  C11_15 
REMARK    6  A    between atoms: C17_24  and  O4_25 
REMARK    7  A    between atoms: O4_25  and  S1_26 
REMARK    8  A    between atoms: S1_26  and  C18_29 
ROOT
ATOM      1  C3  NON d   1      11.935   0.586   0.062  0.00  0.00     0.103 C 
ATOM      2  C4  NON d   1      10.767  -0.272  -0.026  0.00  0.00     0.047 C 
ATOM      3  C5  NON d   1      10.668  -1.586   0.548  0.00  0.00    -0.042 C 
ATOM      4  C15 NON d   1      11.831  -2.000   1.212  0.00  0.00     0.011 C 
ATOM      5  C16 NON d   1      13.053  -1.318   1.092  0.00  0.00     0.041 C 
ATOM      6  C17 NON d   1      13.164  -0.075   0.441  0.00  0.00     0.123 C 
ENDROOT
BRANCH   3   7
ATOM      7  C6  NON d   1       9.400  -2.567   0.660  0.00  0.00     0.099 C 
BRANCH   7   8
ATOM      8  C7  NON d   1       9.481  -4.062   0.076  0.00  0.00     0.050 C 
ATOM      9  C8  NON d   1       8.383  -4.716  -0.700  0.00  0.00     0.270 C 
ATOM     10  O2  NON d   1       7.405  -4.171  -1.194  0.00  0.00    -0.266 OA
ATOM     11  N1  NON d   1       8.730  -6.041  -0.872  0.00  0.00    -0.243 N 
ATOM     12  N2  NON d   1      10.085  -6.301  -0.526  0.00  0.00    -0.176 NA
ATOM     13  H8  NON d   1       8.215  -6.680  -1.454  0.00  0.00     0.192 HD
ATOM     14  C9  NON d   1      10.383  -5.100   0.000  0.00  0.00     0.063 C 
ATOM     15  C10 NON d   1      11.847  -4.624   0.000  0.00  0.00     0.073 C 
ENDBRANCH   7   8
BRANCH   7  16
ATOM     16  C11 NON d   1       7.981  -1.964   0.617  0.00  0.00     0.036 C 
ATOM     17  C12 NON d   1       7.293  -0.815   0.404  0.00  0.00     0.009 C 
ATOM     18  C13 NON d   1       7.739   0.594   0.252  0.00  0.00     0.063 C 
ATOM     19  N3  NON d   1       5.903  -0.970   0.406  0.00  0.00    -0.223 NA
ATOM     20  N4  NON d   1       5.663  -2.299   0.705  0.00  0.00    -0.187 NA
ATOM     21  H15 NON d   1       5.538  -0.726  -0.520  0.00  0.00     0.147 HD
ATOM     22  C14 NON d   1       6.863  -2.838   1.129  0.00  0.00     0.243 C 
ATOM     23  H16 NON d   1       4.830  -2.561   1.215  0.00  0.00     0.150 HD
ATOM     24  O3  NON d   1       6.975  -3.750   1.931  0.00  0.00    -0.273 OA
ENDBRANCH   7  16
ENDBRANCH   3   7
BRANCH   1  25
ATOM     25  O1  NON d   1      11.829   1.998  -0.178  0.00  0.00    -0.349 OA
BRANCH  25  26
ATOM     26  C2  NON d   1      10.470   2.735   0.000  0.00  0.00     0.171 C 
ATOM     27  C1  NON d   1      10.470   4.275   0.000  0.00  0.00     0.034 C 
ENDBRANCH  25  26
ENDBRANCH   1  25
BRANCH   6  28
ATOM     28  O4  NON d   1      14.512   0.343   0.349  0.00  0.00    -0.226 OA
BRANCH  28  29
ATOM     29  S1  NON d   1      15.536  -0.333  -0.811  0.00  0.00     0.303 S 
ATOM     30  O5  NON d   1      14.849  -1.403  -1.513  0.00  0.00    -0.193 OA
ATOM     31  O6  NON d   1      16.078   0.777  -1.578  0.00  0.00    -0.193 OA
BRANCH  29  32
ATOM     32  C18 NON d   1      17.144  -1.204  -0.128  0.00  0.00     0.086 A 
ATOM     33  C19 NON d   1      18.384  -0.534  -0.090  0.00  0.00     0.026 A 
ATOM     34  C20 NON d   1      19.669  -1.243  -0.011  0.00  0.00     0.008 A 
ATOM     35  C21 NON d   1      19.806  -2.655   0.000  0.00  0.00    -0.062 A 
ATOM     36  C22 NON d   1      21.140  -3.425   0.000  0.00  0.00     0.048 C 
ATOM     37  C23 NON d   1      18.539  -3.299  -0.087  0.00  0.00     0.008 A 
ATOM     38  C24 NON d   1      17.252  -2.608  -0.159  0.00  0.00     0.026 A 
ENDBRANCH  29  32
ENDBRANCH  28  29
ENDBRANCH   6  28
TORSDOF 8
