@<TRIPOS>MOLECULE
*****
 67 70 0 0 0
SMALL
USER_CHARGES

@<TRIPOS>ATOM
      1 C1          8.6529    8.8274   -2.3281 C.1     1  NONAME1    -0.1176
      2 C2          9.9866    8.0574   -2.3281 C.1     1  NONAME1    -0.0864
      3 C3         11.3203    7.2874   -2.3281 C.3     1  NONAME1     0.0758
      4 N1         11.7489    6.5150   -1.1644 N.am    1  NONAME1    -0.2934
      5 C4         10.7870    6.2665   -0.1000 C.3     1  NONAME1     0.0041
      6 C5         13.0057    5.8882   -1.2939 C.2     1  NONAME1     0.2167
      7 O1         13.6871    6.0970   -2.3077 O.2     1  NONAME1    -0.2756
      8 C6         13.5273    4.9549   -0.1818 C.3     1  NONAME1     0.0329
      9 C7         14.6971    4.0094   -0.6376 C.3     1  NONAME1     0.0161
     10 C8         16.0780    4.3513   -0.1185 C.ar    1  NONAME1     0.0578
     11 N2         16.4931    5.6255    0.2772 N.ar    1  NONAME1    -0.2290
     12 C9         17.8193    5.6928    0.3779 C.ar    1  NONAME1     0.1628
     13 N3         18.4765    6.8734    0.5930 N.pl3   1  NONAME1    -0.2936
     14 C10        19.8508    7.2222    0.4785 C.ar    1  NONAME1     0.0362
     15 C11        20.1786    8.5540    0.1464 C.ar    1  NONAME1    -0.0403
     16 C12        21.5092    8.9650   -0.0432 C.ar    1  NONAME1    -0.0566
     17 C13        22.5491    8.0503    0.0834 C.ar    1  NONAME1    -0.0201
     18 C14        22.2451    6.7423    0.4250 C.ar    1  NONAME1     0.1186
     19 O2         23.2244    5.7978    0.5554 O.3     1  NONAME1    -0.5067
     20 C15        20.9235    6.3399    0.6431 C.ar    1  NONAME1     0.0010
     21 S1         18.5854    4.1646    0.1381 S.2     1  NONAME1    -0.0568
     22 C16        17.1106    3.4623   -0.2805 C.ar    1  NONAME1     0.0148
     23 C17        17.0386    2.1312   -0.9144 C.3     1  NONAME1    -0.0156
     24 C18        15.6599    1.4487   -0.7628 C.3     1  NONAME1    -0.0207
     25 C19        15.7690    0.1278    0.1378 C.3     1  NONAME1     0.0206
     26 C20        16.5177    0.3708    1.4840 C.3     1  NONAME1    -0.0548
     27 C21        16.6222   -0.9582   -0.6154 C.3     1  NONAME1     0.0522
     28 O3         16.3486   -0.9988   -2.0113 O.3     1  NONAME1    -0.3944
     29 C22        14.3780   -0.4696    0.5199 C.3     1  NONAME1     0.0630
     30 O4         13.8983   -1.3939   -0.4562 O.3     1  NONAME1    -0.3912
     31 C23        13.2669    0.5403    0.8018 C.3     1  NONAME1    -0.0257
     32 C24        13.6961    2.0071    0.7885 C.3     1  NONAME1    -0.0444
     33 C25        14.3948    2.4177   -0.5300 C.3     1  NONAME1    -0.0195
     34 C26        13.4066    2.1432   -1.7127 C.3     1  NONAME1    -0.0587
     35 H1          7.7325    9.3639   -2.3299 H       1  NONAME1     0.1228
     36 H2         12.1108    8.0175   -2.5454 H       1  NONAME1     0.0601
     37 H3         11.2859    6.5957   -3.1802 H       1  NONAME1     0.0601
     38 H4         11.2059    5.6787    0.7158 H       1  NONAME1     0.0429
     39 H5         10.4569    7.2255    0.3086 H       1  NONAME1     0.0429
     40 H6          9.9309    5.7278   -0.5173 H       1  NONAME1     0.0429
     41 H7         13.8284    5.5772    0.6676 H       1  NONAME1     0.0365
     42 H8         12.6731    4.3542    0.1227 H       1  NONAME1     0.0365
     43 H9         14.8333    4.1796   -1.7153 H       1  NONAME1     0.0374
     44 H10        17.8537    7.6718    0.5514 H       1  NONAME1     0.1541
     45 H11        19.3939    9.2955    0.0134 H       1  NONAME1     0.0636
     46 H12        21.7277    9.9994   -0.3016 H       1  NONAME1     0.0619
     47 H13        23.5746    8.3704   -0.0755 H       1  NONAME1     0.0654
     48 H14        24.0643    6.1746    0.2458 H       1  NONAME1     0.2921
     49 H15        20.7770    5.3165    0.9618 H       1  NONAME1     0.0673
     50 H16        17.8553    1.4993   -0.5528 H       1  NONAME1     0.0322
     51 H17        17.2449    2.2622   -1.9852 H       1  NONAME1     0.0322
     52 H18        15.4841    1.0614   -1.7736 H       1  NONAME1     0.0316
     53 H19        16.5079   -0.5394    2.1000 H       1  NONAME1     0.0237
     54 H20        17.5757    0.6111    1.3426 H       1  NONAME1     0.0237
     55 H21        16.0762    1.1694    2.0800 H       1  NONAME1     0.0237
     56 H22        16.4471   -1.9554   -0.1941 H       1  NONAME1     0.0563
     57 H23        17.6939   -0.7550   -0.5201 H       1  NONAME1     0.0563
     58 H24        16.7389   -1.8138   -2.3658 H       1  NONAME1     0.2094
     59 H25        14.5024   -1.0767    1.4272 H       1  NONAME1     0.0599
     60 H26        13.1857   -1.9146   -0.0456 H       1  NONAME1     0.2098
     61 H27        12.8208    0.3144    1.7785 H       1  NONAME1     0.0290
     62 H28        12.4414    0.3961    0.0915 H       1  NONAME1     0.0290
     63 H29        12.7815    2.5813    0.9567 H       1  NONAME1     0.0272
     64 H30        14.3366    2.2272    1.6466 H       1  NONAME1     0.0272
     65 H31        13.8195    2.5147   -2.6588 H       1  NONAME1     0.0235
     66 H32        12.4419    2.6352   -1.5535 H       1  NONAME1     0.0235
     67 H33        13.2201    1.0752   -1.8624 H       1  NONAME1     0.0235
@<TRIPOS>BOND
     1     1     2    3
     2     2     3    1
     3     3     4    1
     4     4     5    1
     5     4     6   am
     6     6     7    2
     7     6     8    1
     8     9     8    1
     9     9    10    1
    10    10    11   ar
    11    11    12   ar
    12    12    13    1
    13    13    14    1
    14    14    15   ar
    15    15    16   ar
    16    16    17   ar
    17    17    18   ar
    18    18    19    1
    19    18    20   ar
    20    14    20   ar
    21    12    21   ar
    22    21    22   ar
    23    10    22   ar
    24    22    23    1
    25    24    23    1
    26    24    25    1
    27    25    26    1
    28    25    27    1
    29    27    28    1
    30    25    29    1
    31    29    30    1
    32    29    31    1
    33    31    32    1
    34    33    32    1
    35    24    33    1
    36    33     9    1
    37    33    34    1
    38     1    35    1
    39     3    36    1
    40     3    37    1
    41     5    38    1
    42     5    39    1
    43     5    40    1
    44     8    41    1
    45     8    42    1
    46     9    43    1
    47    13    44    1
    48    15    45    1
    49    16    46    1
    50    17    47    1
    51    19    48    1
    52    20    49    1
    53    23    50    1
    54    23    51    1
    55    24    52    1
    56    26    53    1
    57    26    54    1
    58    26    55    1
    59    27    56    1
    60    27    57    1
    61    28    58    1
    62    29    59    1
    63    30    60    1
    64    31    61    1
    65    31    62    1
    66    32    63    1
    67    32    64    1
    68    34    65    1
    69    34    66    1
    70    34    67    1
