@<TRIPOS>MOLECULE
*****
 61 62 0 0 0
SMALL
USER_CHARGES

@<TRIPOS>ATOM
      1 C1         -0.8109  -16.1337    5.6237 C.3     1  NONAME1     0.0788
      2 O1         -0.3249  -14.6981    5.8970 O.3     1  NONAME1    -0.4951
      3 C2         -0.0155  -13.9032    4.7387 C.ar    1  NONAME1     0.1202
      4 C3          0.3228  -12.5472    4.8980 C.ar    1  NONAME1    -0.0181
      5 C4          0.6428  -11.6028    3.7761 C.ar    1  NONAME1    -0.0319
      6 C5          0.6703  -11.8852    2.3698 C.ar    1  NONAME1     0.1055
      7 S1          1.0020  -10.9476    1.1941 S.O2    1  NONAME1     0.0584
      8 O2         -0.1065  -11.4617    0.3773 O.2     1  NONAME1    -0.1531
      9 O3          0.7914   -9.7426    2.0087 O.2     1  NONAME1    -0.1531
     10 N1          1.3338  -10.0099    0.0183 N.3     1  NONAME1    -0.1894
     11 C6          2.8889   -9.5426   -0.1431 C.3     1  NONAME1     0.0275
     12 C7          4.1211  -10.5622    0.0977 C.3     1  NONAME1     0.0591
     13 C8          5.5484  -10.1237   -0.5079 C.2     1  NONAME1     0.3091
     14 O4          5.6142   -9.6351   -1.6385 O.2     1  NONAME1    -0.2508
     15 O5          6.7110  -10.2238    0.3163 O.3     1  NONAME1    -0.4521
     16 C9          8.0021   -9.2400    0.0000 C.3     1  NONAME1     0.1755
     17 C10         8.0021   -7.7000    0.0000 C.3     1  NONAME1    -0.0190
     18 C11         9.3358  -10.0100    0.0000 C.2     1  NONAME1     0.2536
     19 O6          9.3119  -11.2458    0.0150 O.2     1  NONAME1    -0.2718
     20 N2         10.5415   -9.3435   -0.0416 N.am    1  NONAME1    -0.3120
     21 C12        11.7664  -10.1407   -0.0165 C.3     1  NONAME1     0.0157
     22 C13        13.0569   -9.3246   -0.1378 C.3     1  NONAME1    -0.0121
     23 C14        14.3605  -10.1016   -0.0386 C.ar    1  NONAME1    -0.0458
     24 C15        15.5625   -9.3761    0.0516 C.ar    1  NONAME1    -0.0567
     25 C16        16.7922  -10.0266    0.2037 C.ar    1  NONAME1    -0.0351
     26 C17        16.8344  -11.4208    0.2512 C.ar    1  NONAME1     0.1050
     27 S2         18.3646  -12.2404    0.6008 S.O2    1  NONAME1     0.0559
     28 N3         19.0656  -12.3925   -0.9169 N.3     1  NONAME1    -0.2035
     29 O7         18.0957  -13.5875    1.0452 O.2     1  NONAME1    -0.1533
     30 O8         19.2218  -11.3420    1.3416 O.2     1  NONAME1    -0.1533
     31 C18        15.6584  -12.1625    0.1328 C.ar    1  NONAME1    -0.0351
     32 C19        14.4310  -11.5042   -0.0195 C.ar    1  NONAME1    -0.0567
     33 C20         0.3573  -13.2898    2.2693 C.ar    1  NONAME1    -0.0319
     34 C21         0.0152  -14.2564    3.3847 C.ar    1  NONAME1    -0.0181
     35 H1         -0.8152  -16.4016    6.6947 H       1  NONAME1     0.0660
     36 H2         -1.2968  -17.5692    5.3503 H       1  NONAME1     0.0660
     37 H3         -1.8340  -15.8140    5.3516 H       1  NONAME1     0.0660
     38 H4          0.3488  -12.1351    5.9080 H       1  NONAME1     0.0655
     39 H5          0.8723  -10.5859    4.1130 H       1  NONAME1     0.0638
     40 H6          0.9804  -10.3792   -0.8644 H       1  NONAME1     0.1480
     41 H7          3.0138   -8.6957    0.5433 H       1  NONAME1     0.0446
     42 H8          2.9551   -9.1460   -1.1630 H       1  NONAME1     0.0446
     43 H9          4.2410  -10.7318    1.1716 H       1  NONAME1     0.0391
     44 H10         3.8733  -11.5208   -0.3723 H       1  NONAME1     0.0391
     45 H11         6.6684   -8.4700    0.0000 H       1  NONAME1     0.0829
     46 H12         8.7366   -7.5907   -0.8222 H       1  NONAME1     0.0270
     47 H13         8.0021   -6.1600    0.0000 H       1  NONAME1     0.0270
     48 H14         8.5004   -7.6015    0.9868 H       1  NONAME1     0.0270
     49 H15        10.5986   -8.3648    0.2054 H       1  NONAME1     0.1488
     50 H16        11.7010  -10.8612   -0.8417 H       1  NONAME1     0.0465
     51 H17        11.7626  -10.7115    0.9204 H       1  NONAME1     0.0465
     52 H18        13.0556   -8.5709    0.6610 H       1  NONAME1     0.0328
     53 H19        13.0496   -8.7813   -1.0909 H       1  NONAME1     0.0328
     54 H20        15.5453   -8.2876    0.0285 H       1  NONAME1     0.0621
     55 H21        17.7033   -9.4415    0.3059 H       1  NONAME1     0.0637
     56 H22        19.1684  -13.3819   -1.1454 H       1  NONAME1     0.1442
     57 H23        19.9432  -11.8720   -0.9414 H       1  NONAME1     0.1442
     58 H24        15.6804  -13.2494    0.1797 H       1  NONAME1     0.0637
     59 H25        13.5362  -12.1183   -0.0991 H       1  NONAME1     0.0621
     60 H26         0.3165  -13.7325    1.2674 H       1  NONAME1     0.0638
     61 H27        -0.2236  -15.2750    3.0836 H       1  NONAME1     0.0655
@<TRIPOS>BOND
     1     1     2    1
     2     2     3    1
     3     3     4   ar
     4     4     5   ar
     5     5     6   ar
     6     6     7    1
     7     7     8    2
     8     7     9    2
     9     7    10    1
    10    10    11    1
    11    11    12    1
    12    12    13    1
    13    13    14    2
    14    13    15    1
    15    16    15    1
    16    16    17    1
    17    16    18    1
    18    18    19    2
    19    18    20   am
    20    20    21    1
    21    21    22    1
    22    22    23    1
    23    23    24   ar
    24    24    25   ar
    25    25    26   ar
    26    26    27    1
    27    27    28    1
    28    27    29    2
    29    27    30    2
    30    26    31   ar
    31    31    32   ar
    32    23    32   ar
    33     6    33   ar
    34    33    34   ar
    35     3    34   ar
    36     1    35    1
    37     1    36    1
    38     1    37    1
    39     4    38    1
    40     5    39    1
    41    10    40    1
    42    11    41    1
    43    11    42    1
    44    12    43    1
    45    12    44    1
    46    16    45    1
    47    17    46    1
    48    17    47    1
    49    17    48    1
    50    20    49    1
    51    21    50    1
    52    21    51    1
    53    22    52    1
    54    22    53    1
    55    24    54    1
    56    25    55    1
    57    28    56    1
    58    28    57    1
    59    31    58    1
    60    32    59    1
    61    33    60    1
    62    34    61    1
