REMARK  4 active torsions:
REMARK  status: ('A' for Active; 'I' for Inactive)
REMARK    1  A    between atoms: C5_6  and  C6_7 
REMARK    2  A    between atoms: C7_9  and  C6_7 
REMARK    3  A    between atoms: C7_9  and  C9_12 
REMARK    4  A    between atoms: C12_16  and  C13_17 
ROOT
ATOM      1  C7  NON d   1      -0.320  -1.303   0.000  0.00  0.00     0.226 C 
ATOM      2  C8  NON d   1      -0.513  -0.095  -0.919  0.00  0.00     0.079 C 
ATOM      3  N1  NON d   1      -0.777   0.807  -1.608  0.00  0.00    -0.196 NA
ENDROOT
BRANCH   1   4
ATOM      4  C6  NON d   1      -0.590  -2.621  -0.995  0.00  0.00     0.186 C 
ATOM      5  O2  NON d   1       0.264  -3.147  -1.706  0.00  0.00    -0.290 OA
BRANCH   4   6
ATOM      6  C5  NON d   1      -1.962  -3.185  -1.031  0.00  0.00     0.043 A 
ATOM      7  C4  NON d   1      -3.168  -2.552  -1.482  0.00  0.00     0.042 A 
ATOM      8  C3  NON d   1      -4.196  -3.427  -1.232  0.00  0.00     0.143 A 
ATOM      9  O1  NON d   1      -3.710  -4.581  -0.720  0.00  0.00    -0.326 OA
ATOM     10  C2  NON d   1      -2.354  -4.450  -0.621  0.00  0.00     0.062 A 
ATOM     11  C1  NON d   1      -1.652  -5.638  -0.092  0.00  0.00     0.077 C 
ENDBRANCH   4   6
ENDBRANCH   1   4
BRANCH   1  12
ATOM     12  C9  NON d   1       1.220  -1.303   0.000  0.00  0.00     0.101 C 
ATOM     13  N2  NON d   1       2.147  -0.322  -0.212  0.00  0.00    -0.243 NA
ATOM     14  C10 NON d   1       3.571  -0.716  -0.042  0.00  0.00     0.075 A 
ATOM     15  C11 NON d   1       4.879   0.019  -0.193  0.00  0.00     0.049 A 
ATOM     16  C16 NON d   1       3.689  -2.034   0.367  0.00  0.00     0.035 A 
ATOM     17  C12 NON d   1       6.258  -0.533   0.000  0.00  0.00     0.050 A 
ATOM     18  C14 NON d   1       6.206  -1.887   0.357  0.00  0.00     0.017 A 
ATOM     19  C15 NON d   1       4.980  -2.621   0.538  0.00  0.00     0.022 A 
ATOM     20  S1  NON d   1       2.103  -2.711   0.661  0.00  0.00    -0.071 SA
BRANCH  17  21
ATOM     21  C13 NON d   1       7.591   0.237   0.000  0.00  0.00     0.417 C 
ATOM     22  F1  NON d   1       8.925   1.007   0.000  0.00  0.00    -0.166 F 
ATOM     23  F2  NON d   1       8.146  -0.598  -1.019  0.00  0.00    -0.166 F 
ATOM     24  F3  NON d   1       7.051   1.331  -0.745  0.00  0.00    -0.166 F 
ENDBRANCH  17  21
ENDBRANCH   1  12
TORSDOF 4
