@<TRIPOS>MOLECULE
*****
 38 40 0 0 0
SMALL
USER_CHARGES

@<TRIPOS>ATOM
      1 C1          3.6397    2.4704    0.0932 C.3     1  NONAME1    -0.0255
      2 C2          2.4352    1.5534    0.1627 C.2     1  NONAME1     0.0193
      3 C3          2.5330    0.2129    0.3544 C.2     1  NONAME1     0.0614
      4 C4          3.8071   -0.3643    0.6516 C.1     1  NONAME1     0.0974
      5 N1          4.8502   -0.8075    0.8965 N.1     1  NONAME1    -0.1911
      6 C5          1.2988   -0.7133    0.3972 C.3     1  NONAME1     0.0894
      7 C6          1.4753   -2.1036   -0.1863 C.ar    1  NONAME1     0.1189
      8 C7          2.4624   -2.7558   -0.9010 C.ar    1  NONAME1    -0.0191
      9 C8          2.0817   -4.1201   -0.9743 C.ar    1  NONAME1    -0.0156
     10 C9          0.8537   -4.2257   -0.3572 C.ar    1  NONAME1     0.1352
     11 C10        -0.0773   -5.3270   -0.1317 C.ar    1  NONAME1     0.0173
     12 C11         0.3849   -6.6490   -0.0513 C.ar    1  NONAME1    -0.0511
     13 C12        -0.5086   -7.7132    0.1106 C.ar    1  NONAME1    -0.0611
     14 C13        -1.8784   -7.4687    0.1901 C.ar    1  NONAME1    -0.0617
     15 C14        -2.3521   -6.1618    0.1201 C.ar    1  NONAME1    -0.0611
     16 C15        -1.4568   -5.0991   -0.0341 C.ar    1  NONAME1    -0.0511
     17 O1          0.4937   -3.0046    0.1364 O.2     1  NONAME1    -0.4587
     18 C16         0.0000    0.0000    0.0000 C.2     1  NONAME1     0.0614
     19 C17        -1.3337   -0.7700    0.0000 C.1     1  NONAME1     0.0974
     20 N2         -2.6674   -1.5400    0.0000 N.1     1  NONAME1    -0.1911
     21 C18         0.0000    1.5400    0.0000 C.2     1  NONAME1     0.0193
     22 C19        -1.3337    2.3100    0.0000 C.3     1  NONAME1    -0.0255
     23 N3          1.2125    2.1867    0.0427 N.pl3   1  NONAME1    -0.3200
     24 H1          4.5201    1.9721   -0.3243 H       1  NONAME1     0.0290
     25 H2          3.8841    2.8531    1.0887 H       1  NONAME1     0.0290
     26 H3          3.4364    3.3262   -0.5611 H       1  NONAME1     0.0290
     27 H4          1.1672   -0.9124    1.4759 H       1  NONAME1     0.0492
     28 H5          3.3831   -2.3339   -1.2800 H       1  NONAME1     0.0652
     29 H6          2.6334   -4.9281   -1.4339 H       1  NONAME1     0.0655
     30 H7          1.4491   -6.8649   -0.1088 H       1  NONAME1     0.0625
     31 H8         -0.1359   -8.7321    0.1697 H       1  NONAME1     0.0618
     32 H9         -2.5750   -8.2948    0.3034 H       1  NONAME1     0.0618
     33 H10        -3.4190   -5.9609    0.1780 H       1  NONAME1     0.0618
     34 H11        -1.8541   -4.0890   -0.0989 H       1  NONAME1     0.0625
     35 H12        -0.8869    3.3190    0.1161 H       1  NONAME1     0.0290
     36 H13        -2.6674    3.0800    0.0000 H       1  NONAME1     0.0290
     37 H14        -1.6325    1.9691    1.0145 H       1  NONAME1     0.0290
     38 H15         1.2111    3.2033   -0.0283 H       1  NONAME1     0.1516
@<TRIPOS>BOND
     1     1     2    1
     2     2     3    2
     3     3     4    1
     4     4     5    3
     5     3     6    1
     6     6     7    1
     7     7     8   ar
     8     8     9   ar
     9     9    10   ar
    10    10    11    1
    11    11    12   ar
    12    12    13   ar
    13    13    14   ar
    14    14    15   ar
    15    15    16   ar
    16    11    16   ar
    17    10    17   ar
    18     7    17   ar
    19     6    18    1
    20    18    19    1
    21    19    20    3
    22    18    21    2
    23    21    22    1
    24    21    23    1
    25     2    23    1
    26     1    24    1
    27     1    25    1
    28     1    26    1
    29     6    27    1
    30     8    28    1
    31     9    29    1
    32    12    30    1
    33    13    31    1
    34    14    32    1
    35    15    33    1
    36    16    34    1
    37    22    35    1
    38    22    36    1
    39    22    37    1
    40    23    38    1
