REMARK  6 active torsions:
REMARK  status: ('A' for Active; 'I' for Inactive)
REMARK    1  A    between atoms: C2_2  and  N2_15 
REMARK    2  A    between atoms: C3_3  and  C4_4 
REMARK       I    between atoms: C4_4  and  N1_6 
REMARK    3  A    between atoms: N1_6  and  C5_7 
REMARK    4  A    between atoms: N2_15  and  N3_16 
REMARK       I    between atoms: N3_16  and  C12_17 
REMARK    5  A    between atoms: C12_17  and  C13_19 
REMARK       I    between atoms: C13_19  and  N4_21 
REMARK    6  A    between atoms: N4_21  and  C14_22 
ROOT
ATOM      1  N2  NON d   1       3.856  -6.987   0.029  0.00  0.00    -0.302 N 
ATOM      2  H12 NON d   1       3.780  -5.977  -0.111  0.00  0.00     0.186 HD
ENDROOT
BRANCH   1   3
ATOM      3  C2  NON d   1       2.667  -7.700   0.000  0.00  0.00     0.027 C 
ATOM      4  C1  NON d   1       2.667  -9.240   0.000  0.00  0.00     0.070 C 
ATOM      5  C3  NON d   1       1.384  -7.127  -0.042  0.00  0.00     0.100 C 
BRANCH   5   6
ATOM      6  C4  NON d   1      -0.046  -7.865  -0.195  0.00  0.00     0.247 C 
ATOM      7  O1  NON d   1      -0.016  -9.048  -0.535  0.00  0.00    -0.268 OA
ATOM      8  N1  NON d   1      -1.282  -7.136  -0.003  0.00  0.00    -0.323 N 
ATOM      9  H5  NON d   1      -1.210  -6.137   0.126  0.00  0.00     0.169 HD
BRANCH   8  10
ATOM     10  C5  NON d   1      -2.704  -7.702  -0.018  0.00  0.00     0.042 A 
ATOM     11  C6  NON d   1      -2.836  -9.099  -0.026  0.00  0.00     0.030 A 
ATOM     12  C7  NON d   1      -4.086  -9.733  -0.060  0.00  0.00     0.004 A 
ATOM     13  C8  NON d   1      -5.268  -8.999  -0.094  0.00  0.00     0.024 A 
ATOM     14  C9  NON d   1      -5.231  -7.608  -0.071  0.00  0.00     0.042 A 
ATOM     15 Cl1  NON d   1      -6.738  -6.764  -0.152  0.00  0.00    -0.084 Cl
ATOM     16  C10 NON d   1      -4.001  -6.930   0.000  0.00  0.00    -0.013 A 
ATOM     17  C11 NON d   1      -4.001  -5.390   0.000  0.00  0.00     0.052 C 
ENDBRANCH   8  10
ENDBRANCH   5   6
ENDBRANCH   1   3
BRANCH   1  18
ATOM     18  N3  NON d   1       5.064  -7.527  -0.435  0.00  0.00    -0.262 N 
ATOM     19  C12 NON d   1       6.250  -6.906  -0.094  0.00  0.00     0.328 C 
ATOM     20  O2  NON d   1       6.409  -5.745   0.254  0.00  0.00    -0.261 OA
ATOM     21  H13 NON d   1       5.109  -8.534  -0.588  0.00  0.00     0.190 HD
BRANCH  19  22
ATOM     22  C13 NON d   1       7.452  -7.869  -0.199  0.00  0.00     0.315 C 
ATOM     23  O3  NON d   1       7.225  -9.052  -0.419  0.00  0.00    -0.262 OA
ATOM     24  N4  NON d   1       8.667  -7.239  -0.029  0.00  0.00    -0.319 N 
ATOM     25  H14 NON d   1       8.609  -6.232   0.108  0.00  0.00     0.169 HD
BRANCH  24  26
ATOM     26  C14 NON d   1       9.944  -7.834  -0.023  0.00  0.00     0.036 A 
ATOM     27  C15 NON d   1      11.050  -6.985   0.082  0.00  0.00     0.030 A 
ATOM     28  C16 NON d   1      12.350  -7.503   0.100  0.00  0.00     0.011 A 
ATOM     29  C17 NON d   1      12.573  -8.884   0.027  0.00  0.00    -0.040 A 
ATOM     30  C18 NON d   1      13.980  -9.413   0.038  0.00  0.00     0.050 C 
ATOM     31  C19 NON d   1      11.460  -9.731  -0.080  0.00  0.00     0.042 A 
ATOM     32 Cl2  NON d   1      11.645 -11.448  -0.185  0.00  0.00    -0.084 Cl
ATOM     33  C20 NON d   1      10.160  -9.211  -0.104  0.00  0.00     0.053 A 
ENDBRANCH  24  26
ENDBRANCH  19  22
ENDBRANCH   1  18
TORSDOF 6
