@<TRIPOS>MOLECULE
*****
 67 69 0 0 0
SMALL
USER_CHARGES

@<TRIPOS>ATOM
      1 C1          0.0000   -9.2400    0.0000 C.3     1  NONAME1    -0.0307
      2 C2          0.0000   -7.7000    0.0000 C.3     1  NONAME1     0.0870
      3 O1         -1.2270   -6.8524    0.0341 O.3     1  NONAME1    -0.4886
      4 C3         -1.1037   -5.4182    0.0317 C.ar    1  NONAME1     0.1625
      5 C4         -2.3603   -4.6268    0.0292 C.ar    1  NONAME1    -0.0076
      6 C5         -2.4281   -3.1691    0.0253 C.ar    1  NONAME1    -0.0018
      7 C6         -3.7795   -2.2718    0.0199 C.2     1  NONAME1     0.0529
      8 N1         -3.8738   -0.9399    0.0128 N.2     1  NONAME1    -0.1873
      9 N2         -5.2230   -0.2710    0.0069 N.am    1  NONAME1    -0.1992
     10 C7         -5.4224    1.1860   -0.0006 C.2     1  NONAME1     0.3184
     11 O2         -4.5113    2.0122   -0.0005 O.2     1  NONAME1    -0.2634
     12 C8         -6.9800    1.7888   -0.0097 C.2     1  NONAME1     0.3048
     13 O3         -7.9132    0.9938   -0.0108 O.2     1  NONAME1    -0.2648
     14 N3         -7.1183    3.2379   -0.0150 N.am    1  NONAME1    -0.2777
     15 C9         -8.3142    4.1373   -0.0201 C.ar    1  NONAME1     0.0352
     16 C10        -9.6484    3.7459   -0.0306 C.ar    1  NONAME1    -0.0401
     17 C11       -10.7602    4.7156   -0.0285 C.ar    1  NONAME1    -0.0557
     18 C12       -10.6694    6.1600    0.0000 C.ar    1  NONAME1    -0.0320
     19 C13       -12.0031    6.9300    0.0000 C.3     1  NONAME1    -0.0383
     20 C14        -9.3175    6.5333   -0.0191 C.ar    1  NONAME1     0.0456
     21 Cl1        -8.8845    8.2103   -0.0507 Cl      1  NONAME1    -0.0832
     22 C15        -8.1862    5.5581   -0.0214 C.ar    1  NONAME1    -0.0219
     23 C16        -1.1849   -2.5364    0.0258 C.ar    1  NONAME1    -0.0494
     24 C17         0.0462   -3.2778    0.0312 C.ar    1  NONAME1    -0.0157
     25 C18         0.1197   -4.6949    0.0349 C.ar    1  NONAME1     0.1626
     26 O4          1.3138   -5.3838    0.0430 O.3     1  NONAME1    -0.4791
     27 C19         2.6037   -4.7526    0.0519 C.3     1  NONAME1     0.1656
     28 C20         3.8165   -5.7727    0.0539 C.2     1  NONAME1     0.2548
     29 O5          3.6337   -6.9876    0.0436 O.2     1  NONAME1    -0.2717
     30 N4          5.0819   -5.1602    0.0657 N.am    1  NONAME1    -0.2827
     31 C21         6.3861   -5.7646    0.0555 C.ar    1  NONAME1     0.0338
     32 C22         7.5012   -4.9255    0.0553 C.ar    1  NONAME1    -0.0402
     33 C23         8.8162   -5.4455    0.0455 C.ar    1  NONAME1    -0.0568
     34 C24         9.0882   -6.8295    0.0155 C.ar    1  NONAME1    -0.0474
     35 C25        10.5114   -7.3031    0.0556 C.3     1  NONAME1    -0.0395
     36 C26         8.0021   -7.7000    0.0000 C.ar    1  NONAME1    -0.0458
     37 C27         8.0021   -9.2400    0.0000 C.3     1  NONAME1    -0.0394
     38 C28         6.6588   -7.1369    0.0444 C.ar    1  NONAME1    -0.0373
     39 H1         -0.6760   -9.3339   -0.8730 H       1  NONAME1     0.0262
     40 H2          0.0000  -10.7800    0.0000 H       1  NONAME1     0.0262
     41 H3          1.0582   -9.3439   -0.3158 H       1  NONAME1     0.0262
     42 H4          0.5692   -7.4227    0.8945 H       1  NONAME1     0.0694
     43 H5          0.5370   -7.3889   -0.9054 H       1  NONAME1     0.0694
     44 H6         -3.2946   -5.1878    0.0301 H       1  NONAME1     0.0662
     45 H7         -4.7011   -2.8795    0.0227 H       1  NONAME1     0.0851
     46 H8         -6.0403   -0.8741    0.0071 H       1  NONAME1     0.1777
     47 H9         -6.2213    3.7201   -0.0109 H       1  NONAME1     0.1553
     48 H10        -9.9025    2.6866   -0.0417 H       1  NONAME1     0.0636
     49 H11       -11.7598    4.2693   -0.0435 H       1  NONAME1     0.0621
     50 H12       -11.5890    7.8384    0.4801 H       1  NONAME1     0.0278
     51 H13       -13.3368    7.7000    0.0000 H       1  NONAME1     0.0278
     52 H14       -12.4561    6.3364    0.8226 H       1  NONAME1     0.0278
     53 H15        -7.1813    5.9832   -0.0275 H       1  NONAME1     0.0651
     54 H16        -1.1391   -1.4472    0.0227 H       1  NONAME1     0.0625
     55 H17         0.9611   -2.6886    0.0324 H       1  NONAME1     0.0655
     56 H18         2.7073   -4.1313   -0.8448 H       1  NONAME1     0.0795
     57 H19         2.6977   -4.1373    0.9537 H       1  NONAME1     0.0795
     58 H20         5.0878   -4.1477    0.0724 H       1  NONAME1     0.1549
     59 H21         7.3830   -3.8450    0.0695 H       1  NONAME1     0.0636
     60 H22         9.6455   -4.7386    0.0631 H       1  NONAME1     0.0621
     61 H23        10.6924   -8.0890   -0.6833 H       1  NONAME1     0.0278
     62 H24        10.7529   -7.6793    1.0544 H       1  NONAME1     0.0278
     63 H25        11.2063   -6.4898   -0.1806 H       1  NONAME1     0.0278
     64 H26         7.2252   -9.3454   -0.7881 H       1  NONAME1     0.0278
     65 H27         8.0021  -10.7800    0.0000 H       1  NONAME1     0.0278
     66 H28         8.9632   -9.3460   -0.5378 H       1  NONAME1     0.0278
     67 H29         5.8206   -7.8335    0.0631 H       1  NONAME1     0.0639
@<TRIPOS>BOND
     1     1     2    1
     2     2     3    1
     3     3     4    1
     4     4     5   ar
     5     5     6   ar
     6     6     7    1
     7     7     8    2
     8     8     9    1
     9     9    10   am
    10    10    11    2
    11    10    12    1
    12    12    13    2
    13    12    14   am
    14    14    15    1
    15    15    16   ar
    16    16    17   ar
    17    17    18   ar
    18    18    19    1
    19    18    20   ar
    20    20    21    1
    21    20    22   ar
    22    15    22   ar
    23     6    23   ar
    24    23    24   ar
    25    24    25   ar
    26     4    25   ar
    27    25    26    1
    28    26    27    1
    29    27    28    1
    30    28    29    2
    31    28    30   am
    32    30    31    1
    33    31    32   ar
    34    32    33   ar
    35    33    34   ar
    36    34    35    1
    37    34    36   ar
    38    36    37    1
    39    36    38   ar
    40    31    38   ar
    41     1    39    1
    42     1    40    1
    43     1    41    1
    44     2    42    1
    45     2    43    1
    46     5    44    1
    47     7    45    1
    48     9    46    1
    49    14    47    1
    50    16    48    1
    51    17    49    1
    52    19    50    1
    53    19    51    1
    54    19    52    1
    55    22    53    1
    56    23    54    1
    57    24    55    1
    58    27    56    1
    59    27    57    1
    60    30    58    1
    61    32    59    1
    62    33    60    1
    63    35    61    1
    64    35    62    1
    65    35    63    1
    66    37    64    1
    67    37    65    1
    68    37    66    1
    69    38    67    1
