@<TRIPOS>MOLECULE
*****
 62 65 0 0 0
SMALL
USER_CHARGES

@<TRIPOS>ATOM
      1 C1         -2.6671  -10.6690    4.7286 C.3     1  NONAME1    -0.0397
      2 C2         -2.3337   -9.7342    3.5510 C.ar    1  NONAME1    -0.0504
      3 C3         -1.2169   -8.9603    3.6238 C.ar    1  NONAME1    -0.0584
      4 C4         -0.9411   -8.1566    2.5391 C.ar    1  NONAME1    -0.0526
      5 C5         -1.6868   -8.1061    1.2402 C.ar    1  NONAME1     0.0053
      6 C6         -1.3336   -6.9299    0.0183 C.3     1  NONAME1     0.0358
      7 N1          0.0987   -6.3330   -0.4787 N.4     1  NONAME1     0.2427
      8 C7          1.4140   -7.1777   -0.4147 C.3     1  NONAME1     0.0456
      9 C8          2.7132   -6.2807   -0.1256 C.2     1  NONAME1     0.2647
     10 O1          2.4916   -5.0680   -0.0392 O.2     1  NONAME1    -0.2694
     11 N2          4.0010   -6.9300    0.0000 N.am    1  NONAME1    -0.2694
     12 C9          4.0010   -8.4700    0.0000 C.3     1  NONAME1     0.0085
     13 C10         5.2917   -6.2757   -0.0479 C.ar    1  NONAME1     0.0482
     14 C11         5.3766   -4.8840   -0.2197 C.ar    1  NONAME1    -0.0395
     15 C12         6.6079   -4.2254   -0.3481 C.ar    1  NONAME1    -0.0600
     16 C13         7.7978   -4.9410   -0.3187 C.ar    1  NONAME1    -0.0609
     17 C14         7.7631   -6.3176   -0.1354 C.ar    1  NONAME1    -0.0478
     18 C15         6.5314   -6.9748    0.0089 C.ar    1  NONAME1     0.0580
     19 C16         6.6191   -8.4184    0.3424 C.2     1  NONAME1     0.2462
     20 O2          6.3916   -8.7665    1.4973 O.2     1  NONAME1    -0.2701
     21 N3          6.8162   -9.2786   -0.7055 N.am    1  NONAME1    -0.3042
     22 C17         6.5223  -10.6915   -0.5454 C.3     1  NONAME1     0.0700
     23 C18         7.7283  -11.5316   -0.4507 C.ar    1  NONAME1     0.1218
     24 C19         9.0746  -11.2986   -0.2765 C.ar    1  NONAME1    -0.0192
     25 C20         9.6874  -12.5728   -0.1805 C.ar    1  NONAME1    -0.0236
     26 C21         8.6807  -13.4990   -0.3037 C.ar    1  NONAME1     0.0921
     27 O3          7.4900  -12.8762   -0.4827 O.2     1  NONAME1    -0.4662
     28 C22        -2.3339   -6.7650   -1.1409 C.ar    1  NONAME1     0.0418
     29 C23        -2.1031   -6.5437   -2.4931 C.ar    1  NONAME1    -0.0458
     30 C24        -3.3025   -6.3453   -3.2398 C.ar    1  NONAME1    -0.0543
     31 C25        -4.4219   -6.4639   -2.4529 C.ar    1  NONAME1    -0.0239
     32 S1         -4.0179   -6.6179   -0.8038 S.2     1  NONAME1    -0.0956
     33 C26        -2.7503   -8.9972    1.1831 C.ar    1  NONAME1    -0.0526
     34 C27        -3.0729   -9.7765    2.3309 C.ar    1  NONAME1    -0.0584
     35 H1         -2.3422   -9.9625    5.5221 H       1  NONAME1     0.0278
     36 H2         -3.0004  -11.6038    5.9061 H       1  NONAME1     0.0278
     37 H3         -3.7667  -10.5369    4.6435 H       1  NONAME1     0.0278
     38 H4         -0.5787   -8.9509    4.5032 H       1  NONAME1     0.0620
     39 H5         -0.0606   -7.5385    2.7649 H       1  NONAME1     0.0622
     40 H6         -0.3334   -7.0948    1.1776 H       1  NONAME1     0.0962
     41 H7          0.2860   -5.5232    0.1385 H       1  NONAME1     0.2028
     42 H8          0.0188   -5.8756   -1.3897 H       1  NONAME1     0.2028
     43 H9          1.2988   -7.9241    0.3725 H       1  NONAME1     0.0913
     44 H10         1.4857   -7.6391   -1.4017 H       1  NONAME1     0.0913
     45 H11         3.2668   -8.5916   -0.8074 H       1  NONAME1     0.0433
     46 H12         4.0010  -10.0100    0.0000 H       1  NONAME1     0.0433
     47 H13         3.5331   -8.5479    0.9995 H       1  NONAME1     0.0433
     48 H14         4.5000   -4.2477   -0.2607 H       1  NONAME1     0.0636
     49 H15         6.6297   -3.1430   -0.4659 H       1  NONAME1     0.0618
     50 H16         8.7479   -4.4204   -0.4123 H       1  NONAME1     0.0618
     51 H17         8.6973   -6.8696   -0.0663 H       1  NONAME1     0.0626
     52 H18         6.9802   -8.9248   -1.6390 H       1  NONAME1     0.1495
     53 H19         5.9308  -10.8568    0.3617 H       1  NONAME1     0.0543
     54 H20         5.9185  -10.9903   -1.4088 H       1  NONAME1     0.0543
     55 H21         9.5486  -10.3330   -0.1922 H       1  NONAME1     0.0652
     56 H22        10.7341  -12.7901   -0.0216 H       1  NONAME1     0.0649
     57 H23         8.6456  -14.5794   -0.2766 H       1  NONAME1     0.1029
     58 H24        -1.1317   -6.4947   -2.9681 H       1  NONAME1     0.0628
     59 H25        -3.3441   -6.1436   -4.3050 H       1  NONAME1     0.0623
     60 H26        -5.4575   -6.4121   -2.7654 H       1  NONAME1     0.0693
     61 H27        -3.3766   -9.1140    0.3046 H       1  NONAME1     0.0622
     62 H28        -3.9369  -10.4418    2.2689 H       1  NONAME1     0.0620
@<TRIPOS>BOND
     1     1     2    1
     2     2     3   ar
     3     3     4   ar
     4     4     5   ar
     5     6     5    1
     6     6     7    1
     7     7     8    1
     8     8     9    1
     9     9    10    2
    10     9    11   am
    11    11    12    1
    12    11    13    1
    13    13    14   ar
    14    14    15   ar
    15    15    16   ar
    16    16    17   ar
    17    17    18   ar
    18    13    18   ar
    19    18    19    1
    20    19    20    2
    21    19    21   am
    22    21    22    1
    23    22    23    1
    24    23    24   ar
    25    24    25   ar
    26    25    26   ar
    27    26    27   ar
    28    23    27   ar
    29     6    28    1
    30    28    29   ar
    31    29    30   ar
    32    30    31   ar
    33    31    32   ar
    34    28    32   ar
    35     5    33   ar
    36    33    34   ar
    37     2    34   ar
    38     1    35    1
    39     1    36    1
    40     1    37    1
    41     3    38    1
    42     4    39    1
    43     6    40    1
    44     7    41    1
    45     7    42    1
    46     8    43    1
    47     8    44    1
    48    12    45    1
    49    12    46    1
    50    12    47    1
    51    14    48    1
    52    15    49    1
    53    16    50    1
    54    17    51    1
    55    21    52    1
    56    22    53    1
    57    22    54    1
    58    24    55    1
    59    25    56    1
    60    26    57    1
    61    29    58    1
    62    30    59    1
    63    31    60    1
    64    33    61    1
    65    34    62    1
