REMARK  9 active torsions:
REMARK  status: ('A' for Active; 'I' for Inactive)
REMARK    1  A    between atoms: C2_2  and  C3_3 
REMARK    2  A    between atoms: C6_6  and  O1_7 
REMARK    3  A    between atoms: O1_7  and  C7_8 
REMARK    4  A    between atoms: C7_8  and  C8_9 
REMARK    5  A    between atoms: C8_9  and  C9_10 
REMARK    6  A    between atoms: C9_10  and  O2_11 
REMARK    7  A    between atoms: O2_11  and  C10_12 
REMARK    8  A    between atoms: C14_16  and  C15_17 
REMARK    9  A    between atoms: C15_17  and  C16_18 
ROOT
ATOM      1  C10 NON d   1       3.869  -4.278   0.850  0.00  0.00     0.069 A 
ATOM      2  C11 NON d   1       4.891  -4.601  -0.047  0.00  0.00     0.037 A 
ATOM      3  C12 NON d   1       6.185  -4.128   0.171  0.00  0.00     0.004 A 
ATOM      4  C13 NON d   1       6.458  -3.320   1.276  0.00  0.00     0.011 A 
ATOM      5  C14 NON d   1       5.445  -2.967   2.182  0.00  0.00    -0.032 A 
ATOM      6  C19 NON d   1       4.150  -3.443   1.941  0.00  0.00     0.048 A 
ENDROOT
BRANCH   1   7
ATOM      7  O2  NON d   1       2.563  -4.686   0.749  0.00  0.00    -0.351 OA
BRANCH   7   8
ATOM      8  C9  NON d   1       2.297  -5.774  -0.129  0.00  0.00     0.178 C 
BRANCH   8   9
ATOM      9  C8  NON d   1       0.984  -6.468   0.244  0.00  0.00     0.053 C 
BRANCH   9  10
ATOM     10  C7  NON d   1      -0.283  -5.671  -0.083  0.00  0.00     0.178 C 
BRANCH  10  11
ATOM     11  O1  NON d   1      -0.596  -4.760   0.970  0.00  0.00    -0.351 OA
BRANCH  11  12
ATOM     12  C6  NON d   1      -1.833  -4.169   0.947  0.00  0.00     0.068 A 
ATOM     13  C5  NON d   1      -2.793  -4.315  -0.051  0.00  0.00     0.037 A 
ATOM     14  C4  NON d   1      -4.022  -3.646   0.050  0.00  0.00     0.010 A 
ATOM     15  C3  NON d   1      -4.320  -2.808   1.141  0.00  0.00    -0.058 A 
ATOM     16  C21 NON d   1      -3.354  -2.674   2.142  0.00  0.00     0.010 A 
ATOM     17  C20 NON d   1      -2.126  -3.345   2.040  0.00  0.00     0.037 A 
BRANCH  15  18
ATOM     18  C2  NON d   1      -5.660  -2.104   1.146  0.00  0.00     0.034 C 
ATOM     19  C1  NON d   1      -5.986  -1.128   2.291  0.00  0.00     0.010 C 
ENDBRANCH  15  18
ENDBRANCH  11  12
ENDBRANCH  10  11
ENDBRANCH   9  10
ENDBRANCH   8   9
ENDBRANCH   7   8
ENDBRANCH   1   7
BRANCH   5  20
ATOM     20  C15 NON d   1       5.785  -1.999   3.243  0.00  0.00     0.036 C 
BRANCH  20  21
ATOM     21  C16 NON d   1       5.301  -1.798   4.479  0.00  0.00     0.078 C 
ATOM     22  S1  NON d   1       5.868  -0.489   5.445  0.00  0.00    -0.053 SA
ATOM     23  C17 NON d   1       4.668  -0.817   6.669  0.00  0.00     0.169 C 
ATOM     24  S2  NON d   1       4.473   0.161   8.015  0.00  0.00    -0.050 SA
ATOM     25  N1  NON d   1       3.947  -1.904   6.409  0.00  0.00    -0.190 NA
ATOM     26  C18 NON d   1       4.276  -2.534   5.275  0.00  0.00     0.285 C 
ATOM     27  O3  NON d   1       3.822  -3.615   4.918  0.00  0.00    -0.265 OA
ENDBRANCH  20  21
ENDBRANCH   5  20
TORSDOF 9
