REMARK  8 active torsions:
REMARK  status: ('A' for Active; 'I' for Inactive)
REMARK       I    between atoms: C1_2  and  N1_3 
REMARK    1  A    between atoms: C1_2  and  C11_14 
REMARK    2  A    between atoms: N1_3  and  C2_4 
REMARK    3  A    between atoms: C2_4  and  C3_5 
REMARK    4  A    between atoms: C3_5  and  C4_6 
REMARK    5  A    between atoms: C4_6  and  O2_7 
REMARK    6  A    between atoms: O2_7  and  C5_8 
REMARK    7  A    between atoms: C12_15  and  O3_16 
REMARK    8  A    between atoms: C16_20  and  O4_21 
ROOT
ATOM      1  O1  NON d   1       1.491  -4.970  -0.280  0.00  0.00    -0.267 OA
ATOM      2  C1  NON d   1       1.538  -3.744  -0.188  0.00  0.00     0.257 C 
ATOM      3  N1  NON d   1       2.729  -3.055  -0.143  0.00  0.00    -0.357 N 
ATOM      4  H1  NON d   1       2.682  -2.052   0.026  0.00  0.00     0.162 HD
ENDROOT
BRANCH   2   5
ATOM      5  C11 NON d   1       0.261  -2.967  -0.110  0.00  0.00     0.098 A 
ATOM      6  C12 NON d   1      -0.957  -3.677  -0.096  0.00  0.00     0.084 A 
ATOM      7  C13 NON d   1      -2.183  -3.014  -0.035  0.00  0.00     0.038 A 
ATOM      8  C14 NON d   1      -2.219  -1.624   0.012  0.00  0.00     0.005 A 
ATOM      9  C15 NON d   1      -1.029  -0.897   0.003  0.00  0.00     0.038 A 
ATOM     10  C16 NON d   1       0.203  -1.563  -0.055  0.00  0.00     0.084 A 
BRANCH   6  11
ATOM     11  O3  NON d   1      -1.038  -5.047  -0.138  0.00  0.00    -0.360 OA
ATOM     12  H13 NON d   1      -0.121  -5.402  -0.196  0.00  0.00     0.217 HD
ENDBRANCH   6  11
BRANCH  10  13
ATOM     13  O4  NON d   1       1.349  -0.806  -0.052  0.00  0.00    -0.360 OA
ATOM     14  H17 NON d   1       1.103   0.136  -0.025  0.00  0.00     0.217 HD
ENDBRANCH  10  13
ENDBRANCH   2   5
BRANCH   3  15
ATOM     15  C2  NON d   1       3.994  -3.754  -0.141  0.00  0.00     0.125 C 
BRANCH  15  16
ATOM     16  C3  NON d   1       5.201  -2.832  -0.099  0.00  0.00     0.046 C 
BRANCH  16  17
ATOM     17  C4  NON d   1       5.351  -1.985  -1.359  0.00  0.00     0.177 C 
BRANCH  17  18
ATOM     18  O2  NON d   1       6.603  -1.303  -1.267  0.00  0.00    -0.351 OA
BRANCH  18  19
ATOM     19  C5  NON d   1       6.949  -0.483  -2.305  0.00  0.00     0.068 A 
ATOM     20  C6  NON d   1       8.203   0.120  -2.179  0.00  0.00     0.037 A 
ATOM     21  C7  NON d   1       8.676   0.993  -3.160  0.00  0.00     0.003 A 
ATOM     22  C8  NON d   1       7.893   1.267  -4.279  0.00  0.00     0.000 A 
ATOM     23  C9  NON d   1       6.643   0.664  -4.415  0.00  0.00     0.003 A 
ATOM     24  C10 NON d   1       6.171  -0.211  -3.431  0.00  0.00     0.037 A 
ENDBRANCH  18  19
ENDBRANCH  17  18
ENDBRANCH  16  17
ENDBRANCH  15  16
ENDBRANCH   3  15
TORSDOF 8
