REMARK  9 active torsions:
REMARK  status: ('A' for Active; 'I' for Inactive)
REMARK       I    between atoms: C1_2  and  N1_3 
REMARK    1  A    between atoms: C1_2  and  C16_25 
REMARK    2  A    between atoms: N1_3  and  N2_4 
REMARK    3  A    between atoms: C2_5  and  C3_6 
REMARK    4  A    between atoms: N3_9  and  N4_10 
REMARK    5  A    between atoms: N4_10  and  C6_11 
REMARK    6  A    between atoms: C10_15  and  C11_16 
REMARK    7  A    between atoms: C16_25  and  O3_26 
REMARK    8  A    between atoms: C16_25  and  C17_27 
REMARK    9  A    between atoms: C16_25  and  C23_33 
ROOT
ATOM      1  N2  NON d   1      -7.647  -1.123   0.144  0.00  0.00    -0.184 NA
ATOM      2  C2  NON d   1      -6.499  -1.799   0.152  0.00  0.00     0.154 C 
ENDROOT
BRANCH   2   3
ATOM      3  C3  NON d   1      -6.225  -3.465   0.148  0.00  0.00     0.035 A 
ATOM      4  C4  NON d   1      -5.027  -4.164   0.111  0.00  0.00     0.050 A 
ATOM      5  C5  NON d   1      -4.792  -5.800   0.126  0.00  0.00     0.078 A 
ATOM      6  N3  NON d   1      -3.622  -6.454   0.074  0.00  0.00    -0.175 NA
ATOM      7  C13 NON d   1      -6.106  -6.484   0.234  0.00  0.00     0.037 A 
ATOM      8  C14 NON d   1      -7.266  -5.821   0.267  0.00  0.00     0.058 A 
ATOM      9  C15 NON d   1      -7.433  -4.345   0.213  0.00  0.00     0.183 A 
ATOM     10  O2  NON d   1      -8.579  -3.910   0.245  0.00  0.00    -0.288 OA
BRANCH   6  11
ATOM     11  N4  NON d   1      -3.564  -7.964   0.086  0.00  0.00    -0.278 N 
ATOM     12  H4  NON d   1      -4.265  -8.423  -0.495  0.00  0.00     0.189 HD
BRANCH  11  13
ATOM     13  C6  NON d   1      -2.309  -8.768   0.040  0.00  0.00     0.051 A 
ATOM     14  C7  NON d   1      -1.067  -8.176   0.200  0.00  0.00     0.031 A 
ATOM     15  C8  NON d   1       0.116  -8.967   0.231  0.00  0.00     0.003 A 
ATOM     16  C9  NON d   1       0.140 -10.391   0.138  0.00  0.00     0.016 A 
ATOM     17  C10 NON d   1      -1.032 -11.137   0.000  0.00  0.00     0.050 A 
ATOM     18  C12 NON d   1      -2.265 -10.254  -0.020  0.00  0.00     0.047 A 
BRANCH  17  19
ATOM     19  C11 NON d   1      -1.032 -12.677   0.000  0.00  0.00     0.417 C 
ATOM     20  F1  NON d   1      -1.032 -14.217   0.000  0.00  0.00    -0.166 F 
ATOM     21  F2  NON d   1      -0.072 -12.748  -1.061  0.00  0.00    -0.166 F 
ATOM     22  F3  NON d   1      -2.278 -12.756  -0.702  0.00  0.00    -0.166 F 
ENDBRANCH  17  19
ENDBRANCH  11  13
ENDBRANCH   6  11
ENDBRANCH   2   3
BRANCH   1  23
ATOM     23  N1  NON d   1      -7.735   0.399   0.182  0.00  0.00    -0.244 N 
ATOM     24  C1  NON d   1      -9.034   1.183   0.000  0.00  0.00     0.282 C 
ATOM     25  O1  NON d   1      -9.991   0.420  -0.226  0.00  0.00    -0.268 OA
ATOM     26  H1  NON d   1      -6.874   0.928   0.090  0.00  0.00     0.192 HD
BRANCH  24  27
ATOM     27  C16 NON d   1      -9.034   2.723   0.000  0.00  0.00     0.195 C 
BRANCH  27  28
ATOM     28  O3  NON d   1      -7.494   2.723   0.000  0.00  0.00    -0.371 OA
ATOM     29  H11 NON d   1      -7.261   3.106   0.867  0.00  0.00     0.212 HD
ENDBRANCH  27  28
BRANCH  27  30
ATOM     30  C17 NON d   1      -9.034   4.263   0.000  0.00  0.00    -0.010 A 
ATOM     31  C18 NON d   1      -9.244   5.019   1.174  0.00  0.00     0.011 A 
ATOM     32  C19 NON d   1      -9.168   6.413   1.152  0.00  0.00     0.001 A 
ATOM     33  C20 NON d   1      -8.832   7.077  -0.025  0.00  0.00     0.000 A 
ATOM     34  C21 NON d   1      -8.574   6.352  -1.186  0.00  0.00     0.001 A 
ATOM     35  C22 NON d   1      -8.676   4.960  -1.176  0.00  0.00     0.011 A 
ENDBRANCH  27  30
BRANCH  27  36
ATOM     36  C23 NON d   1     -10.574   2.723   0.000  0.00  0.00    -0.010 A 
ATOM     37  C24 NON d   1     -11.313   2.536   1.197  0.00  0.00     0.011 A 
ATOM     38  C25 NON d   1     -12.709   2.544   1.188  0.00  0.00     0.001 A 
ATOM     39  C26 NON d   1     -13.400   2.754  -0.003  0.00  0.00     0.000 A 
ATOM     40  C27 NON d   1     -12.701   2.944  -1.193  0.00  0.00     0.001 A 
ATOM     41  C28 NON d   1     -11.305   2.918  -1.198  0.00  0.00     0.011 A 
ENDBRANCH  27  36
ENDBRANCH  24  27
ENDBRANCH   1  23
TORSDOF 9
