REMARK  8 active torsions:
REMARK  status: ('A' for Active; 'I' for Inactive)
REMARK    1  A    between atoms: O1_2  and  C2_3 
REMARK    2  A    between atoms: C8_9  and  C7_8 
REMARK    3  A    between atoms: C12_13  and  O2_14 
REMARK    4  A    between atoms: N2_21  and  C17_22 
REMARK    5  A    between atoms: C17_22  and  C18_23 
REMARK    6  A    between atoms: C18_23  and  C19_24 
REMARK    7  A    between atoms: C19_24  and  O4_25 
REMARK    8  A    between atoms: C20_26  and  N3_27 
ROOT
ATOM      1  C8  NON d   1       4.111   2.359  -0.397  0.00  0.00     0.098 C 
ATOM      2  C9  NON d   1       5.124   1.321   0.095  0.00  0.00    -0.011 C 
ATOM      3  C10 NON d   1       6.138   1.453   1.041  0.00  0.00     0.014 C 
ATOM      4  C11 NON d   1       7.123   0.463   1.159  0.00  0.00     0.037 C 
ATOM      5  C12 NON d   1       7.044  -0.702   0.405  0.00  0.00     0.068 C 
ATOM      6  C13 NON d   1       5.941  -0.945  -0.397  0.00  0.00     0.074 C 
ATOM      7  C14 NON d   1       4.977   0.054  -0.510  0.00  0.00     0.087 C 
ATOM      8  O3  NON d   1       3.821  -0.241  -1.210  0.00  0.00    -0.291 OA
ATOM      9  C15 NON d   1       2.682   0.380  -0.722  0.00  0.00     0.182 C 
ATOM     10  N1  NON d   1       1.584  -0.383  -0.745  0.00  0.00    -0.219 NA
ATOM     11  C16 NON d   1       0.472   0.195  -0.278  0.00  0.00     0.214 C 
ATOM     12  N2  NON d   1       0.385   1.444   0.213  0.00  0.00    -0.327 N 
ATOM     13  C20 NON d   1       1.551   2.146   0.396  0.00  0.00     0.113 C 
ATOM     14  C21 NON d   1       2.730   1.683  -0.216  0.00  0.00     0.052 C 
ENDROOT
BRANCH   1  15
ATOM     15  C7  NON d   1       4.300   3.896  -0.277  0.00  0.00    -0.011 C 
ATOM     16  C6  NON d   1       3.235   4.729  -0.695  0.00  0.00     0.011 C 
ATOM     17  C5  NON d   1       3.274   6.122  -0.590  0.00  0.00     0.001 C 
ATOM     18  C4  NON d   1       4.419   6.741  -0.124  0.00  0.00     0.003 C 
ATOM     19  C3  NON d   1       5.548   5.973   0.136  0.00  0.00     0.037 C 
ATOM     20  C2  NON d   1       5.515   4.577  -0.012  0.00  0.00     0.075 C 
BRANCH  20  21
ATOM     21  O1  NON d   1       6.668   3.850   0.000  0.00  0.00    -0.355 OA
ATOM     22  C1  NON d   1       8.002   4.620   0.000  0.00  0.00     0.210 C 
ENDBRANCH  20  21
ENDBRANCH   1  15
BRANCH  13  23
ATOM     23  N3  NON d   1       1.518   3.348   1.096  0.00  0.00    -0.385 N 
ATOM     24  H21 NON d   1       2.372   3.561   1.615  0.00  0.00     0.157 HD
ATOM     25  H22 NON d   1       0.703   3.631   1.621  0.00  0.00     0.157 HD
ENDBRANCH  13  23
BRANCH  12  26
ATOM     26  C17 NON d   1      -0.932   2.123   0.425  0.00  0.00     0.133 C 
BRANCH  26  27
ATOM     27  C18 NON d   1      -2.206   1.387   0.008  0.00  0.00     0.046 C 
BRANCH  27  28
ATOM     28  C19 NON d   1      -2.810   0.589   1.157  0.00  0.00     0.165 C 
BRANCH  28  29
ATOM     29  O4  NON d   1      -1.819  -0.271   1.691  0.00  0.00    -0.401 OA
ATOM     30  H20 NON d   1      -2.260  -0.816   2.376  0.00  0.00     0.209 HD
ENDBRANCH  28  29
ENDBRANCH  27  28
ENDBRANCH  26  27
ENDBRANCH  12  26
BRANCH   5  31
ATOM     31  O2  NON d   1       8.063  -1.601   0.507  0.00  0.00    -0.361 OA
ATOM     32  H11 NON d   1       7.975  -2.260  -0.201  0.00  0.00     0.217 HD
ENDBRANCH   5  31
TORSDOF 8
