@<TRIPOS>MOLECULE
*****
 36 38 0 0 0
SMALL
USER_CHARGES

@<TRIPOS>ATOM
      1 N1         -8.1428   12.3389   -0.1542 N.pl3   1  NONAME1    -0.3557
      2 C1         -6.8469   11.7895   -0.0227 C.ar    1  NONAME1     0.0618
      3 C2         -5.7042   12.5993   -0.1255 C.ar    1  NONAME1     0.0647
      4 Cl1        -5.8572   14.3246   -0.1975 Cl      1  NONAME1    -0.0815
      5 C3         -4.4126   12.0516   -0.1393 C.ar    1  NONAME1    -0.0202
      6 C4         -4.2217   10.6699   -0.0810 C.ar    1  NONAME1     0.0366
      7 N2         -2.9496   10.0381   -0.0781 N.am    1  NONAME1    -0.2814
      8 C5         -1.7150   10.6676   -0.1572 C.2     1  NONAME1     0.2497
      9 O1         -1.5393   11.8789   -0.2563 O.2     1  NONAME1    -0.2698
     10 C6         -0.5002    9.8132   -0.0906 C.ar    1  NONAME1     0.0552
     11 C7          0.6983   10.3871    0.3343 C.ar    1  NONAME1    -0.0449
     12 C8          1.8548    9.6105    0.4046 C.ar    1  NONAME1    -0.0212
     13 C9          1.8116    8.2716    0.0202 C.ar    1  NONAME1     0.1189
     14 N3          2.9906    7.5037    0.1718 N.pl3   1  NONAME1    -0.3262
     15 C10         3.0143    6.1305   -0.3435 C.3     1  NONAME1     0.0221
     16 C11         3.8590    5.0896    0.4127 C.3     1  NONAME1    -0.0329
     17 C12         2.3400    5.0245    0.3175 C.3     1  NONAME1    -0.0329
     18 N4          0.6603    7.7029   -0.4016 N.ar    1  NONAME1    -0.2398
     19 C13        -0.4586    8.4769   -0.4546 C.ar    1  NONAME1     0.0418
     20 C14        -5.3518    9.8476   -0.0196 C.ar    1  NONAME1    -0.0202
     21 C15        -6.6418   10.3991   -0.0142 C.ar    1  NONAME1     0.0647
     22 Cl2        -7.9888    9.3119    0.0367 Cl      1  NONAME1    -0.0815
     23 H1         -8.2007   13.3122    0.1398 H       1  NONAME1     0.1424
     24 H2         -8.8775   11.7523    0.2339 H       1  NONAME1     0.1424
     25 H3         -3.5749   12.7390   -0.1949 H       1  NONAME1     0.0651
     26 H4         -2.9649    9.0353    0.0469 H       1  NONAME1     0.1551
     27 H5          0.7382   11.4366    0.6180 H       1  NONAME1     0.0627
     28 H6          2.7786   10.0555    0.7604 H       1  NONAME1     0.0652
     29 H7          3.7956    8.0627   -0.0956 H       1  NONAME1     0.1477
     30 H8          3.0548    6.1042   -1.4309 H       1  NONAME1     0.0498
     31 H9          4.7903    5.2235   -0.1757 H       1  NONAME1     0.0284
     32 H10         4.0938    4.0113    0.2541 H       1  NONAME1     0.0284
     33 H11         1.8903    4.2675   -0.3163 H       1  NONAME1     0.0284
     34 H12         1.7705    5.2260    1.2170 H       1  NONAME1     0.0284
     35 H13        -1.3281    7.9481   -0.8307 H       1  NONAME1     0.0838
     36 H14        -5.2450    8.7653    0.0093 H       1  NONAME1     0.0651
@<TRIPOS>BOND
     1     1     2    1
     2     2     3   ar
     3     3     4    1
     4     3     5   ar
     5     5     6   ar
     6     6     7    1
     7     7     8   am
     8     8     9    2
     9     8    10    1
    10    10    11   ar
    11    11    12   ar
    12    12    13   ar
    13    13    14    1
    14    14    15    1
    15    15    16    1
    16    16    17    1
    17    15    17    1
    18    13    18   ar
    19    18    19   ar
    20    10    19   ar
    21     6    20   ar
    22    20    21   ar
    23     2    21   ar
    24    21    22    1
    25     1    23    1
    26     1    24    1
    27     5    25    1
    28     7    26    1
    29    11    27    1
    30    12    28    1
    31    14    29    1
    32    15    30    1
    33    16    31    1
    34    16    32    1
    35    17    33    1
    36    17    34    1
    37    19    35    1
    38    20    36    1
