@<TRIPOS>MOLECULE
*****
 48 50 0 0 0
SMALL
USER_CHARGES

@<TRIPOS>ATOM
      1 C1         -0.6289   -6.5546    0.4581 C.3     1  NONAME1    -0.0552
      2 C2         -0.3166   -5.2854    1.4683 C.3     1  NONAME1     0.0024
      3 C3         -1.7390   -4.7716    1.1776 C.3     1  NONAME1    -0.0552
      4 C4          1.1058   -5.7991    1.7591 C.3     1  NONAME1    -0.0552
      5 C5          0.4113   -3.9918    0.5593 C.3     1  NONAME1    -0.0261
      6 N1          1.2469   -4.2903   -0.6737 N.4     1  NONAME1     0.2519
      7 C6          2.6831   -4.7101   -0.7865 C.3     1  NONAME1     0.1174
      8 O1          2.7835   -6.1169   -0.7552 O.3     1  NONAME1    -0.3496
      9 C7          3.7588   -4.0219    0.0950 C.3     1  NONAME1     0.1858
     10 O2          4.9851   -4.7862   -0.0654 O.2     1  NONAME1    -0.3851
     11 N2          6.1102   -3.9459    0.0361 N.2     1  NONAME1    -0.0884
     12 C8          7.2486   -4.5937    0.0384 C.2     1  NONAME1     0.0921
     13 C9          8.5941   -3.7870    0.0863 C.3     1  NONAME1     0.0192
     14 C10         9.5923   -4.9029    0.0468 C.ar    1  NONAME1    -0.0331
     15 C11        10.9839   -4.8137    0.0615 C.ar    1  NONAME1    -0.0576
     16 C12        11.6974   -6.0261    0.0249 C.ar    1  NONAME1    -0.0609
     17 C13        11.0456   -7.2711   -0.0248 C.ar    1  NONAME1    -0.0540
     18 C14         9.6415   -7.3290   -0.0379 C.ar    1  NONAME1    -0.0170
     19 C15         8.8675   -8.4942   -0.0807 C.ar    1  NONAME1    -0.0540
     20 C16         7.4671   -8.4013   -0.0749 C.ar    1  NONAME1    -0.0606
     21 C17         6.7996   -7.1639   -0.0304 C.ar    1  NONAME1    -0.0522
     22 C18         7.5768   -6.0053   -0.0050 C.ar    1  NONAME1     0.0077
     23 C19         8.9613   -6.1325   -0.0025 C.ar    1  NONAME1    -0.0054
     24 H1          0.2016   -6.8394   -0.1965 H       1  NONAME1     0.0237
     25 H2         -0.8932   -7.4279    1.0691 H       1  NONAME1     0.0237
     26 H3         -1.4573   -6.3861   -0.2461 H       1  NONAME1     0.0237
     27 H4         -2.2532   -5.5050    1.8425 H       1  NONAME1     0.0237
     28 H5         -3.1614   -4.2578    0.8868 H       1  NONAME1     0.0237
     29 H6         -1.6576   -3.8686    1.8256 H       1  NONAME1     0.0237
     30 H7          1.7833   -5.0384    2.1628 H       1  NONAME1     0.0237
     31 H8          1.6338   -6.4227    1.0484 H       1  NONAME1     0.0237
     32 H9          0.9907   -6.4628    2.6315 H       1  NONAME1     0.0237
     33 H10         1.0075   -3.3457    1.2194 H       1  NONAME1     0.0820
     34 H11        -0.3710   -3.3338    0.1583 H       1  NONAME1     0.0820
     35 H12         0.7579   -5.0223   -1.2014 H       1  NONAME1     0.2042
     36 H13         1.1776   -3.4539   -1.2651 H       1  NONAME1     0.2042
     37 H14         2.9453   -4.4557   -1.8209 H       1  NONAME1     0.1220
     38 H15         3.7351   -6.3233   -0.6592 H       1  NONAME1     0.2155
     39 H16         3.5057   -4.0406    1.1563 H       1  NONAME1     0.0809
     40 H17         3.9007   -2.9823   -0.2247 H       1  NONAME1     0.0809
     41 H18         8.6720   -3.2204    1.0173 H       1  NONAME1     0.0378
     42 H19         8.6890   -3.1444   -0.7922 H       1  NONAME1     0.0378
     43 H20        11.4982   -3.8597    0.1012 H       1  NONAME1     0.0621
     44 H21        12.7872   -6.0036    0.0377 H       1  NONAME1     0.0618
     45 H22        11.6369   -8.1839   -0.0485 H       1  NONAME1     0.0624
     46 H23         9.3418   -9.4718   -0.1080 H       1  NONAME1     0.0624
     47 H24         6.8829   -9.3203   -0.0941 H       1  NONAME1     0.0618
     48 H25         5.7213   -7.1284   -0.0028 H       1  NONAME1     0.0624
@<TRIPOS>BOND
     1     1     2    1
     2     2     3    1
     3     2     4    1
     4     2     5    1
     5     5     6    1
     6     7     6    1
     7     7     8    1
     8     7     9    1
     9     9    10    1
    10    11    10    1
    11    11    12    2
    12    12    13    1
    13    13    14    1
    14    14    15   ar
    15    15    16   ar
    16    16    17   ar
    17    17    18   ar
    18    18    19   ar
    19    19    20   ar
    20    20    21   ar
    21    21    22   ar
    22    12    22    1
    23    22    23   ar
    24    14    23   ar
    25    18    23   ar
    26     1    24    1
    27     1    25    1
    28     1    26    1
    29     3    27    1
    30     3    28    1
    31     3    29    1
    32     4    30    1
    33     4    31    1
    34     4    32    1
    35     5    33    1
    36     5    34    1
    37     6    35    1
    38     6    36    1
    39     7    37    1
    40     8    38    1
    41     9    39    1
    42     9    40    1
    43    13    41    1
    44    13    42    1
    45    15    43    1
    46    16    44    1
    47    17    45    1
    48    19    46    1
    49    20    47    1
    50    21    48    1
