REMARK  7 active torsions:
REMARK  status: ('A' for Active; 'I' for Inactive)
REMARK    1  A    between atoms: C6_6  and  N1_7 
REMARK       I    between atoms: N1_7  and  C7_8 
REMARK    2  A    between atoms: C7_8  and  C8_10 
REMARK    3  A    between atoms: C8_10  and  N2_11 
REMARK       I    between atoms: N2_11  and  C9_12 
REMARK       I    between atoms: C9_12  and  N3_14 
REMARK    4  A    between atoms: N3_14  and  C10_15 
REMARK    5  A    between atoms: C10_15  and  C11_16 
REMARK    6  A    between atoms: C11_16  and  C12_17 
REMARK    7  A    between atoms: C12_17  and  C13_18 
ROOT
ATOM      1  N2  NON d   1      16.904  -9.607  -0.031  0.00  0.00    -0.334 N 
ATOM      2  C9  NON d   1      18.117  -9.046   0.316  0.00  0.00     0.316 C 
ATOM      3  O2  NON d   1      18.207  -7.934   0.824  0.00  0.00    -0.247 OA
ATOM      4  N3  NON d   1      19.222  -9.861   0.066  0.00  0.00    -0.343 N 
ATOM      5  H11 NON d   1      16.886 -10.440  -0.602  0.00  0.00     0.164 HD
ATOM      6  H12 NON d   1      19.090 -10.551  -0.658  0.00  0.00     0.164 HD
ENDROOT
BRANCH   1   7
ATOM      7  C8  NON d   1      15.618  -8.865   0.101  0.00  0.00     0.227 C 
BRANCH   7   8
ATOM      8  C7  NON d   1      14.368  -9.625  -0.459  0.00  0.00     0.239 C 
ATOM      9  N1  NON d   1      13.107  -9.200   0.013  0.00  0.00    -0.325 N 
ATOM     10  H8  NON d   1      13.042  -8.233   0.304  0.00  0.00     0.169 HD
ATOM     11  O1  NON d   1      14.544 -10.494  -1.317  0.00  0.00    -0.271 OA
BRANCH   9  12
ATOM     12  C6  NON d   1      11.833  -9.925  -0.032  0.00  0.00     0.046 A 
ATOM     13  C4  NON d   1      10.528  -9.106   0.000  0.00  0.00    -0.034 A 
ATOM     14  C3  NON d   1       9.359  -9.859   0.071  0.00  0.00     0.015 A 
ATOM     15  C5  NON d   1      10.528  -7.566   0.000  0.00  0.00     0.050 C 
ATOM     16  C2  NON d   1       9.396 -11.282   0.105  0.00  0.00    -0.061 A 
ATOM     17  C1  NON d   1       8.087 -12.031   0.130  0.00  0.00     0.048 C 
ATOM     18  C22 NON d   1      10.610 -12.032   0.064  0.00  0.00     0.015 A 
ATOM     19  C20 NON d   1      11.862 -11.416   0.000  0.00  0.00    -0.034 A 
ATOM     20  C21 NON d   1      13.195 -12.186   0.000  0.00  0.00     0.050 C 
ENDBRANCH   9  12
ENDBRANCH   7   8
ENDBRANCH   1   7
BRANCH   4  21
ATOM     21  C10 NON d   1      20.575  -9.290   0.187  0.00  0.00     0.125 C 
BRANCH  21  22
ATOM     22  C11 NON d   1      21.785 -10.231  -0.070  0.00  0.00     0.027 C 
BRANCH  22  23
ATOM     23  C12 NON d   1      22.310 -10.953   1.182  0.00  0.00     0.080 C 
BRANCH  23  24
ATOM     24  C13 NON d   1      23.660 -11.627   1.030  0.00  0.00     0.105 A 
ATOM     25  N4  NON d   1      24.132 -12.479   2.007  0.00  0.00    -0.343 N 
ATOM     26  C14 NON d   1      25.401 -12.887   1.677  0.00  0.00     0.062 A 
ATOM     27  H19 NON d   1      23.641 -12.736   2.850  0.00  0.00     0.167 HD
ATOM     28  C15 NON d   1      26.328 -13.718   2.322  0.00  0.00     0.032 A 
ATOM     29  C19 NON d   1      25.657 -12.253   0.465  0.00  0.00     0.085 A 
ATOM     30  C16 NON d   1      27.558 -13.915   1.689  0.00  0.00     0.002 A 
ATOM     31  C17 NON d   1      27.850 -13.293   0.472  0.00  0.00     0.002 A 
ATOM     32  C18 NON d   1      26.904 -12.457  -0.151  0.00  0.00     0.034 A 
ATOM     33  N5  NON d   1      24.567 -11.487   0.080  0.00  0.00    -0.233 NA
ENDBRANCH  23  24
ENDBRANCH  22  23
ENDBRANCH  21  22
ENDBRANCH   4  21
TORSDOF 7
