@<TRIPOS>MOLECULE
*****
 34 36 0 0 0
SMALL
USER_CHARGES

@<TRIPOS>ATOM
      1 O1          5.1522    0.1239   -0.1315 O.2     1  NONAME1    -0.2680
      2 C1          5.1051   -1.1022   -0.0805 C.2     1  NONAME1     0.2687
      3 N1          6.2240   -1.9031    0.0369 N.am    1  NONAME1    -0.1902
      4 O2          7.4007   -1.2069    0.4223 O.3     1  NONAME1    -0.2749
      5 C2          8.5590   -1.9728    0.0795 C.3     1  NONAME1     0.0983
      6 C3          9.0093   -2.8959    1.1927 C.ar    1  NONAME1    -0.0197
      7 C4          8.2710   -3.0801    2.3715 C.ar    1  NONAME1    -0.0563
      8 C5          8.7196   -3.9501    3.3675 C.ar    1  NONAME1    -0.0614
      9 C6          9.9201   -4.6366    3.2061 C.ar    1  NONAME1    -0.0617
     10 C7         10.6722   -4.4557    2.0478 C.ar    1  NONAME1    -0.0614
     11 C8         10.2181   -3.5954    1.0457 C.ar    1  NONAME1    -0.0563
     12 C9          3.8307   -1.8328   -0.0908 C.ar    1  NONAME1     0.0636
     13 C10         3.6436   -3.2078   -0.1221 C.ar    1  NONAME1     0.0149
     14 N2          2.2969   -3.4667   -0.1114 N.ar    1  NONAME1    -0.3599
     15 C11         1.5852   -2.2929   -0.0768 C.ar    1  NONAME1     0.0472
     16 C12         0.2009   -2.0802   -0.0543 C.ar    1  NONAME1    -0.0378
     17 C13        -0.2530   -0.7595   -0.0188 C.ar    1  NONAME1    -0.0598
     18 C14         0.6440    0.3052   -0.0097 C.ar    1  NONAME1    -0.0611
     19 C15         2.0243    0.0737   -0.0297 C.ar    1  NONAME1    -0.0519
     20 C16         2.5138   -1.2511   -0.0663 C.ar    1  NONAME1     0.0118
     21 H1          6.1436   -2.8585    0.3567 H       1  NONAME1     0.1828
     22 H2          8.3850   -2.5458   -0.8403 H       1  NONAME1     0.0634
     23 H3          9.3596   -1.2522   -0.1218 H       1  NONAME1     0.0634
     24 H4          7.3447   -2.5351    2.5397 H       1  NONAME1     0.0621
     25 H5          8.1351   -4.0807    4.2747 H       1  NONAME1     0.0618
     26 H6         10.2744   -5.3040    3.9874 H       1  NONAME1     0.0618
     27 H7         11.6167   -4.9803    1.9273 H       1  NONAME1     0.0618
     28 H8         10.8230   -3.4634    0.1505 H       1  NONAME1     0.0621
     29 H9          4.3401   -4.0339   -0.1573 H       1  NONAME1     0.0815
     30 H10         1.8775   -4.3860   -0.1280 H       1  NONAME1     0.1654
     31 H11        -0.5019   -2.9070   -0.0640 H       1  NONAME1     0.0638
     32 H12        -1.3226   -0.5591   -0.0031 H       1  NONAME1     0.0618
     33 H13         0.2748    1.3278    0.0190 H       1  NONAME1     0.0618
     34 H14         2.7148    0.9130   -0.0195 H       1  NONAME1     0.0624
@<TRIPOS>BOND
     1     1     2    2
     2     2     3   am
     3     3     4    1
     4     4     5    1
     5     5     6    1
     6     6     7   ar
     7     7     8   ar
     8     8     9   ar
     9     9    10   ar
    10    10    11   ar
    11     6    11   ar
    12     2    12    1
    13    12    13   ar
    14    13    14   ar
    15    14    15   ar
    16    15    16   ar
    17    16    17   ar
    18    17    18   ar
    19    18    19   ar
    20    19    20   ar
    21    12    20   ar
    22    15    20   ar
    23     3    21    1
    24     5    22    1
    25     5    23    1
    26     7    24    1
    27     8    25    1
    28     9    26    1
    29    10    27    1
    30    11    28    1
    31    13    29    1
    32    14    30    1
    33    16    31    1
    34    17    32    1
    35    18    33    1
    36    19    34    1
