REMARK  5 active torsions:
REMARK  status: ('A' for Active; 'I' for Inactive)
REMARK    1  A    between atoms: C2_2  and  C3_4 
REMARK    2  A    between atoms: C6_7  and  N1_8 
REMARK       I    between atoms: N2_11  and  C9_12 
REMARK    3  A    between atoms: C9_12  and  C10_14 
REMARK    4  A    between atoms: C12_17  and  N3_18 
REMARK       I    between atoms: N3_18  and  C13_19 
REMARK       I    between atoms: C13_19  and  N4_21 
REMARK    5  A    between atoms: N4_21  and  C14_22 
ROOT
ATOM      1  C10 NON d   1       5.638  -4.642  -0.089  0.00  0.00     0.134 A 
ATOM      2  C11 NON d   1       6.553  -5.599   0.305  0.00  0.00     0.090 A 
ATOM      3  S1  NON d   1       5.882  -7.173   0.294  0.00  0.00    -0.059 SA
ATOM      4  C12 NON d   1       4.345  -6.513  -0.122  0.00  0.00     0.198 A 
ATOM      5  N5  NON d   1       4.365  -5.214  -0.329  0.00  0.00    -0.217 NA
ENDROOT
BRANCH   1   6
ATOM      6  C9  NON d   1       5.806  -3.161  -0.202  0.00  0.00     0.273 C 
ATOM      7  N2  NON d   1       7.076  -2.506  -0.165  0.00  0.00    -0.344 N 
ATOM      8  C8  NON d   1       8.363  -3.143   0.071  0.00  0.00     0.146 C 
ATOM      9  C21 NON d   1       7.034  -1.086   0.198  0.00  0.00     0.146 C 
ATOM     10  C7  NON d   1       9.614  -2.300  -0.273  0.00  0.00     0.143 C 
ATOM     11  N1  NON d   1       9.544  -0.891   0.199  0.00  0.00    -0.378 N 
ATOM     12  C22 NON d   1       8.267  -0.257  -0.218  0.00  0.00     0.143 C 
ATOM     13  O2  NON d   1       4.808  -2.439  -0.320  0.00  0.00    -0.266 OA
BRANCH  11  14
ATOM     14  C6  NON d   1      10.727  -0.117   0.127  0.00  0.00     0.030 A 
ATOM     15  C5  NON d   1      12.007  -0.702   0.102  0.00  0.00     0.030 A 
ATOM     16  C4  NON d   1      13.195   0.056   0.063  0.00  0.00     0.017 A 
ATOM     17  C3  NON d   1      13.166   1.453   0.067  0.00  0.00     0.009 A 
ATOM     18  C24 NON d   1      11.921   2.071   0.121  0.00  0.00     0.017 A 
ATOM     19  C23 NON d   1      10.733   1.295   0.158  0.00  0.00     0.030 A 
BRANCH  17  20
ATOM     20  C2  NON d   1      14.471   2.195   0.000  0.00  0.00     0.155 C 
ATOM     21  C1  NON d   1      14.471   3.735   0.000  0.00  0.00     0.096 C 
ATOM     22  O1  NON d   1      15.519   1.553  -0.085  0.00  0.00    -0.293 OA
ENDBRANCH  17  20
ENDBRANCH  11  14
ENDBRANCH   1   6
BRANCH   4  23
ATOM     23  N3  NON d   1       3.339  -7.414  -0.218  0.00  0.00    -0.167 NA
ATOM     24  C13 NON d   1       2.056  -7.055  -0.162  0.00  0.00     0.348 C 
ATOM     25  O3  NON d   1       1.562  -5.936  -0.080  0.00  0.00    -0.245 OA
ATOM     26  N4  NON d   1       1.302  -8.213  -0.169  0.00  0.00    -0.307 N 
ATOM     27  H11 NON d   1       1.898  -9.026  -0.196  0.00  0.00     0.170 HD
BRANCH  26  28
ATOM     28  C14 NON d   1      -0.091  -8.407  -0.123  0.00  0.00     0.036 A 
ATOM     29  C15 NON d   1      -0.555  -9.729  -0.091  0.00  0.00     0.029 A 
ATOM     30  C16 NON d   1      -1.924 -10.010  -0.045  0.00  0.00     0.003 A 
ATOM     31  C17 NON d   1      -2.849  -8.967  -0.038  0.00  0.00     0.007 A 
ATOM     32  C18 NON d   1      -2.408  -7.641  -0.087  0.00  0.00    -0.060 A 
ATOM     33  C19 NON d   1      -3.393  -6.511  -0.051  0.00  0.00     0.048 C 
ATOM     34  C20 NON d   1      -1.027  -7.370  -0.113  0.00  0.00     0.036 A 
ENDBRANCH  26  28
ENDBRANCH   4  23
TORSDOF 5
