REMARK  8 active torsions:
REMARK  status: ('A' for Active; 'I' for Inactive)
REMARK    1  A    between atoms: C7_7  and  N1_8 
REMARK    2  A    between atoms: C9_12  and  S1_13 
REMARK    3  A    between atoms: S1_13  and  C10_14 
REMARK    4  A    between atoms: C10_14  and  C11_15 
REMARK       I    between atoms: C11_15  and  N4_17 
REMARK    5  A    between atoms: C12_18  and  N4_17 
REMARK    6  A    between atoms: C12_18  and  C13_19 
REMARK    7  A    between atoms: C12_18  and  C22_29 
REMARK    8  A    between atoms: C13_19  and  C14_20 
ROOT
ATOM      1  C11 NON d   1       0.786  -8.280   0.696  0.00  0.00     0.207 C 
ATOM      2  O1  NON d   1       1.151  -8.954   1.661  0.00  0.00    -0.279 OA
ATOM      3  N4  NON d   1       1.568  -7.282   0.118  0.00  0.00    -0.247 NA
ATOM      4  H16 NON d   1       1.422  -7.166  -0.875  0.00  0.00     0.131 HD
ENDROOT
BRANCH   1   5
ATOM      5  C10 NON d   1      -0.633  -8.423   0.116  0.00  0.00     0.173 C 
BRANCH   5   6
ATOM      6  S1  NON d   1      -0.922 -10.142  -0.428  0.00  0.00    -0.124 SA
BRANCH   6   7
ATOM      7  C9  NON d   1      -2.700 -10.399  -0.150  0.00  0.00     0.214 C 
ATOM      8  N3  NON d   1      -3.432  -9.691  -1.244  0.00  0.00    -0.232 NA
ATOM      9  N2  NON d   1      -4.707  -9.223  -0.635  0.00  0.00    -0.246 NA
ATOM     10  H12 NON d   1      -2.853  -8.874  -1.445  0.00  0.00     0.143 HD
ATOM     11  C8  NON d   1      -4.658  -9.748   0.748  0.00  0.00     0.203 C 
ATOM     12  H11 NON d   1      -5.500  -9.662  -1.109  0.00  0.00     0.142 HD
ATOM     13  N1  NON d   1      -3.314 -10.125   1.168  0.00  0.00    -0.242 NA
BRANCH  13  14
ATOM     14  C7  NON d   1      -3.093 -10.960   2.273  0.00  0.00     0.020 A 
ATOM     15  C5  NON d   1      -4.064 -11.512   3.158  0.00  0.00    -0.041 A 
ATOM     16  C4  NON d   1      -3.655 -12.347   4.237  0.00  0.00     0.009 A 
ATOM     17  C6  NON d   1      -5.559 -11.321   3.089  0.00  0.00     0.050 C 
ATOM     18  C3  NON d   1      -2.321 -12.620   4.501  0.00  0.00     0.007 A 
ATOM     19  C2  NON d   1      -1.350 -12.051   3.698  0.00  0.00    -0.060 A 
ATOM     20  C1  NON d   1       0.110 -12.234   3.991  0.00  0.00     0.048 C 
ATOM     21  C23 NON d   1      -1.751 -11.225   2.632  0.00  0.00     0.031 A 
ENDBRANCH  13  14
ENDBRANCH   6   7
ENDBRANCH   5   6
ENDBRANCH   1   5
BRANCH   3  22
ATOM     22  C12 NON d   1       3.023  -7.202   0.449  0.00  0.00     0.168 C 
BRANCH  22  23
ATOM     23  C13 NON d   1       3.654  -5.798   0.354  0.00  0.00     0.071 C 
BRANCH  23  24
ATOM     24  C14 NON d   1       3.620  -4.996  -0.930  0.00  0.00    -0.028 A 
ATOM     25  C15 NON d   1       4.316  -3.743  -1.131  0.00  0.00    -0.002 A 
ATOM     26  C16 NON d   1       5.187  -2.970  -0.332  0.00  0.00     0.014 A 
ATOM     27  C20 NON d   1       4.013  -3.278  -2.411  0.00  0.00     0.042 A 
ATOM     28  C17 NON d   1       5.703  -1.765  -0.830  0.00  0.00     0.001 A 
ATOM     29  C18 NON d   1       5.354  -1.316  -2.101  0.00  0.00     0.002 A 
ATOM     30  C19 NON d   1       4.502  -2.063  -2.918  0.00  0.00     0.030 A 
ATOM     31  N5  NON d   1       3.212  -4.230  -2.994  0.00  0.00    -0.365 N 
ATOM     32  C21 NON d   1       2.991  -5.269  -2.128  0.00  0.00     0.096 A 
ATOM     33  H24 NON d   1       2.867  -4.191  -3.941  0.00  0.00     0.165 HD
ENDBRANCH  23  24
ENDBRANCH  22  23
BRANCH  22  34
ATOM     34  C22 NON d   1       3.937  -8.160  -0.362  0.00  0.00     0.192 C 
ATOM     35  O2  NON d   1       3.473  -8.500  -1.496  0.00  0.00    -0.647 OA
ATOM     36  O3  NON d   1       5.032  -8.481   0.190  0.00  0.00    -0.647 OA
ENDBRANCH  22  34
ENDBRANCH   3  22
TORSDOF 8
