@<TRIPOS>MOLECULE
*****
 61 62 0 0 0
SMALL
USER_CHARGES

@<TRIPOS>ATOM
      1 C1        -10.5244   15.5308   -0.0584 C.2     1  NONAME1    -0.0965
      2 C2         -9.3358   16.1700    0.0000 C.2     1  NONAME1    -0.0429
      3 C3         -9.3358   17.7100    0.0000 C.3     1  NONAME1    -0.0409
      4 C4         -8.0674   15.2712    0.0064 C.3     1  NONAME1     0.1102
      5 O1         -6.7724   15.8974    0.0037 O.3     1  NONAME1    -0.4877
      6 C5         -5.6733   15.0414    0.0110 C.ar    1  NONAME1     0.1211
      7 C6         -4.4125   15.6469    0.0028 C.ar    1  NONAME1    -0.0182
      8 C7         -3.2166   14.8794   -0.0005 C.ar    1  NONAME1    -0.0370
      9 C8         -3.2379   13.4753    0.0104 C.ar    1  NONAME1     0.0337
     10 N1         -1.9864   12.7762   -0.0008 N.am    1  NONAME1    -0.2842
     11 C9         -1.7547   11.3911    0.0541 C.2     1  NONAME1     0.2343
     12 O2         -2.6220   10.5290    0.1750 O.2     1  NONAME1    -0.2738
     13 C10        -0.2318   11.0067    0.0138 C.3     1  NONAME1     0.0861
     14 N2          0.0009    9.5470   -0.1211 N.pl3   1  NONAME1    -0.3353
     15 C11         1.2763    8.9715   -0.0258 C.ar    1  NONAME1     0.0293
     16 C12         2.4501    9.7201   -0.1038 C.ar    1  NONAME1    -0.0407
     17 C13         3.7077    9.1061   -0.1003 C.ar    1  NONAME1    -0.0583
     18 C14         3.8307    7.7143   -0.0490 C.ar    1  NONAME1    -0.0404
     19 C15         2.7003    6.9107    0.0007 C.ar    1  NONAME1     0.0351
     20 N3          2.7170    5.4935    0.0482 N.am    1  NONAME1    -0.2854
     21 C16         3.6928    4.5214    0.0581 C.2     1  NONAME1     0.2172
     22 O3          3.3169    3.3467    0.1363 O.2     1  NONAME1    -0.2755
     23 C17         5.1694    4.8661   -0.0213 C.3     1  NONAME1     0.0243
     24 C18         6.1640    3.7025    0.1475 C.3     1  NONAME1    -0.0448
     25 C19         6.5782    2.9732   -1.1408 C.3     1  NONAME1    -0.0529
     26 C20         5.7938    1.6857   -1.3944 C.3     1  NONAME1    -0.0559
     27 C21         6.3865    0.8839   -2.5473 C.3     1  NONAME1    -0.0653
     28 C22         1.4308    7.5599    0.0046 C.ar    1  NONAME1    -0.0196
     29 C23        -4.4942   12.8701    0.0239 C.ar    1  NONAME1    -0.0370
     30 C24        -5.6932   13.6406    0.0224 C.ar    1  NONAME1    -0.0182
     31 H1        -11.4668   16.0705   -0.0904 H       1  NONAME1     0.0535
     32 H2        -10.5873   14.4461   -0.0757 H       1  NONAME1     0.0535
     33 H3         -8.4559   17.8019    0.6710 H       1  NONAME1     0.0275
     34 H4         -9.3358   19.2500    0.0000 H       1  NONAME1     0.0275
     35 H5        -10.2290   17.8273    0.6519 H       1  NONAME1     0.0275
     36 H6         -8.1351   14.6435    0.9051 H       1  NONAME1     0.0744
     37 H7         -8.1302   14.6347   -0.8868 H       1  NONAME1     0.0744
     38 H8         -4.3420   16.7321   -0.0016 H       1  NONAME1     0.0655
     39 H9         -2.2706   15.4167   -0.0091 H       1  NONAME1     0.0637
     40 H10        -1.1658   13.3660   -0.0482 H       1  NONAME1     0.1549
     41 H11         0.2199   11.5230   -0.8399 H       1  NONAME1     0.0557
     42 H12         0.2200   11.3693    0.9446 H       1  NONAME1     0.0557
     43 H13        -0.7570    8.9888    0.2729 H       1  NONAME1     0.1466
     44 H14         2.4224   10.8024   -0.1742 H       1  NONAME1     0.0636
     45 H15         4.6065    9.7159   -0.1504 H       1  NONAME1     0.0619
     46 H16         4.8365    7.3239   -0.0631 H       1  NONAME1     0.0636
     47 H17         1.8052    5.0520    0.1020 H       1  NONAME1     0.1548
     48 H18         5.3637    5.3835   -0.9653 H       1  NONAME1     0.0358
     49 H19         5.3694    5.5389    0.8195 H       1  NONAME1     0.0358
     50 H20         7.0864    4.1484    0.5470 H       1  NONAME1     0.0270
     51 H21         5.8225    2.9908    0.9076 H       1  NONAME1     0.0270
     52 H22         6.5162    3.6379   -2.0098 H       1  NONAME1     0.0265
     53 H23         7.6383    2.7011   -1.0391 H       1  NONAME1     0.0265
     54 H24         5.8095    1.0600   -0.4944 H       1  NONAME1     0.0263
     55 H25         4.7480    1.9170   -1.6174 H       1  NONAME1     0.0263
     56 H26         5.8811   -0.0834   -2.6357 H       1  NONAME1     0.0230
     57 H27         6.2714    1.4157   -3.4968 H       1  NONAME1     0.0230
     58 H28         7.4531    0.6897   -2.3904 H       1  NONAME1     0.0230
     59 H29         0.5302    6.9486    0.0202 H       1  NONAME1     0.0655
     60 H30        -4.5882   11.7872    0.0280 H       1  NONAME1     0.0637
     61 H31        -6.6272   13.0875    0.0276 H       1  NONAME1     0.0655
@<TRIPOS>BOND
     1     1     2    2
     2     2     3    1
     3     2     4    1
     4     4     5    1
     5     5     6    1
     6     6     7   ar
     7     7     8   ar
     8     8     9   ar
     9     9    10    1
    10    10    11   am
    11    11    12    2
    12    11    13    1
    13    13    14    1
    14    14    15    1
    15    15    16   ar
    16    16    17   ar
    17    17    18   ar
    18    18    19   ar
    19    19    20    1
    20    20    21   am
    21    21    22    2
    22    21    23    1
    23    23    24    1
    24    24    25    1
    25    25    26    1
    26    26    27    1
    27    19    28   ar
    28    15    28   ar
    29     9    29   ar
    30    29    30   ar
    31     6    30   ar
    32     1    31    1
    33     1    32    1
    34     3    33    1
    35     3    34    1
    36     3    35    1
    37     4    36    1
    38     4    37    1
    39     7    38    1
    40     8    39    1
    41    10    40    1
    42    13    41    1
    43    13    42    1
    44    14    43    1
    45    16    44    1
    46    17    45    1
    47    18    46    1
    48    20    47    1
    49    23    48    1
    50    23    49    1
    51    24    50    1
    52    24    51    1
    53    25    52    1
    54    25    53    1
    55    26    54    1
    56    26    55    1
    57    27    56    1
    58    27    57    1
    59    27    58    1
    60    28    59    1
    61    29    60    1
    62    30    61    1
