REMARK  2 active torsions:
REMARK  status: ('A' for Active; 'I' for Inactive)
REMARK    1  A    between atoms: C5_6  and  C6_7 
REMARK    2  A    between atoms: C9_10  and  C10_11 
ROOT
ATOM      1  C1  NON d   1       3.640   2.470   0.093  0.00  0.00     0.069 C 
ATOM      2  C2  NON d   1       2.435   1.553   0.163  0.00  0.00     0.023 C 
ATOM      3  C3  NON d   1       2.533   0.213   0.354  0.00  0.00     0.060 C 
ATOM      4  C4  NON d   1       3.807  -0.364   0.652  0.00  0.00     0.098 C 
ATOM      5  N1  NON d   1       4.850  -0.807   0.896  0.00  0.00    -0.192 NA
ATOM      6  C5  NON d   1       1.299  -0.713   0.397  0.00  0.00     0.133 C 
ATOM      7  C16 NON d   1       0.000   0.000   0.000  0.00  0.00     0.046 C 
ATOM      8  C17 NON d   1      -1.334  -0.770   0.000  0.00  0.00     0.018 C 
ATOM      9  N2  NON d   1      -2.667  -1.540   0.000  0.00  0.00    -0.096 N 
ATOM     10  C18 NON d   1       0.000   1.540   0.000  0.00  0.00     0.022 C 
ATOM     11  C19 NON d   1      -1.334   2.310   0.000  0.00  0.00     0.069 C 
ATOM     12  N3  NON d   1       1.212   2.187   0.043  0.00  0.00    -0.361 N 
ATOM     13  H15 NON d   1       1.211   3.203  -0.028  0.00  0.00     0.165 HD
ENDROOT
BRANCH   6  14
ATOM     14  C6  NON d   1       1.475  -2.104  -0.186  0.00  0.00     0.068 A 
ATOM     15  C7  NON d   1       2.462  -2.756  -0.901  0.00  0.00     0.036 A 
ATOM     16  C8  NON d   1       2.082  -4.120  -0.974  0.00  0.00     0.040 A 
ATOM     17  C9  NON d   1       0.854  -4.226  -0.357  0.00  0.00     0.086 A 
ATOM     18  O1  NON d   1       0.494  -3.005   0.136  0.00  0.00    -0.313 OA
BRANCH  17  19
ATOM     19  C10 NON d   1      -0.077  -5.327  -0.132  0.00  0.00    -0.002 A 
ATOM     20  C11 NON d   1       0.385  -6.649  -0.051  0.00  0.00     0.014 A 
ATOM     21  C12 NON d   1      -0.509  -7.713   0.111  0.00  0.00     0.001 A 
ATOM     22  C13 NON d   1      -1.878  -7.469   0.190  0.00  0.00     0.000 A 
ATOM     23  C14 NON d   1      -2.352  -6.162   0.120  0.00  0.00     0.001 A 
ATOM     24  C15 NON d   1      -1.457  -5.099  -0.034  0.00  0.00     0.014 A 
ENDBRANCH  17  19
ENDBRANCH   6  14
TORSDOF 2
