@<TRIPOS>MOLECULE
*****
 56 58 0 0 0
SMALL
USER_CHARGES

@<TRIPOS>ATOM
      1 C1          8.0868  -12.0313    0.1299 C.3     1  NONAME1    -0.0397
      2 C2          9.3965  -11.2817    0.1055 C.ar    1  NONAME1    -0.0498
      3 C3          9.3589   -9.8586    0.0708 C.ar    1  NONAME1    -0.0541
      4 C4         10.5281   -9.1057    0.0000 C.ar    1  NONAME1    -0.0287
      5 C5         10.5281   -7.5657    0.0000 C.3     1  NONAME1    -0.0379
      6 C6         11.8326   -9.9253   -0.0318 C.ar    1  NONAME1     0.0393
      7 N1         13.1069   -9.1999    0.0125 N.am    1  NONAME1    -0.2837
      8 C7         14.3678   -9.6251   -0.4586 C.2     1  NONAME1     0.2344
      9 O1         14.5443  -10.4936   -1.3170 O.2     1  NONAME1    -0.2737
     10 C8         15.6178   -8.8654    0.1005 C.3     1  NONAME1     0.0899
     11 N2         16.9044   -9.6070   -0.0314 N.am    1  NONAME1    -0.2908
     12 C9         18.1173   -9.0462    0.3163 C.2     1  NONAME1     0.3000
     13 O2         18.2066   -7.9338    0.8238 O.2     1  NONAME1    -0.2529
     14 N3         19.2218   -9.8613    0.0664 N.am    1  NONAME1    -0.2994
     15 C10        20.5754   -9.2900    0.1873 C.3     1  NONAME1     0.0134
     16 C11        21.7850  -10.2310   -0.0697 C.3     1  NONAME1    -0.0305
     17 C12        22.3102  -10.9533    1.1820 C.3     1  NONAME1     0.0068
     18 C13        23.6597  -11.6275    1.0301 C.ar    1  NONAME1     0.1082
     19 N4         24.1323  -12.4786    2.0075 N.ar    1  NONAME1    -0.3418
     20 C14        25.4009  -12.8869    1.6771 C.ar    1  NONAME1     0.0662
     21 C15        26.3277  -13.7180    2.3216 C.ar    1  NONAME1    -0.0363
     22 C16        27.5584  -13.9155    1.6894 C.ar    1  NONAME1    -0.0597
     23 C17        27.8502  -13.2934    0.4723 C.ar    1  NONAME1    -0.0596
     24 C18        26.9042  -12.4572   -0.1506 C.ar    1  NONAME1    -0.0342
     25 C19        25.6570  -12.2531    0.4651 C.ar    1  NONAME1     0.0891
     26 N5         24.5666  -11.4866    0.0802 N.ar    1  NONAME1    -0.2325
     27 C20        11.8617  -11.4157    0.0000 C.ar    1  NONAME1    -0.0287
     28 C21        13.1954  -12.1857    0.0000 C.3     1  NONAME1    -0.0379
     29 C22        10.6101  -12.0319    0.0640 C.ar    1  NONAME1    -0.0541
     30 H1          7.3372  -11.4850    0.7119 H       1  NONAME1     0.0278
     31 H2          7.7175  -12.1650   -0.8916 H       1  NONAME1     0.0278
     32 H3          8.2048  -13.0152    0.5957 H       1  NONAME1     0.0278
     33 H4          8.3921   -9.3586    0.1007 H       1  NONAME1     0.0623
     34 H5         11.2047   -7.4792   -0.8757 H       1  NONAME1     0.0278
     35 H6         10.5281   -6.0257    0.0000 H       1  NONAME1     0.0278
     36 H7          9.5000   -7.4595   -0.4039 H       1  NONAME1     0.0278
     37 H8         13.0417   -8.2334    0.3039 H       1  NONAME1     0.1549
     38 H9         15.7211   -7.9288   -0.4580 H       1  NONAME1     0.0558
     39 H10        15.4734   -8.6352    1.1591 H       1  NONAME1     0.0558
     40 H11        16.8857  -10.4396   -0.6020 H       1  NONAME1     0.1507
     41 H12        19.0903  -10.5512   -0.6581 H       1  NONAME1     0.1502
     42 H13        20.6193   -8.4856   -0.5583 H       1  NONAME1     0.0462
     43 H14        20.6655   -8.8102    1.1690 H       1  NONAME1     0.0462
     44 H15        21.5573  -10.9535   -0.8616 H       1  NONAME1     0.0284
     45 H16        22.6023   -9.6015   -0.4501 H       1  NONAME1     0.0284
     46 H17        22.4092  -10.2303    2.0014 H       1  NONAME1     0.0344
     47 H18        21.5761  -11.7034    1.4959 H       1  NONAME1     0.0344
     48 H19        23.6409  -12.7361    2.8497 H       1  NONAME1     0.1671
     49 H20        26.1028  -14.2040    3.2689 H       1  NONAME1     0.0639
     50 H21        28.3058  -14.5601    2.1551 H       1  NONAME1     0.0618
     51 H22        28.8210  -13.4575    0.0031 H       1  NONAME1     0.0618
     52 H23        27.1393  -11.9707   -1.0923 H       1  NONAME1     0.0639
     53 H24        12.7640  -13.1495   -0.3352 H       1  NONAME1     0.0278
     54 H25        14.5291  -12.9557    0.0000 H       1  NONAME1     0.0278
     55 H26        13.2815  -12.1886    1.1062 H       1  NONAME1     0.0278
     56 H27        10.5527  -13.1194    0.0861 H       1  NONAME1     0.0623
@<TRIPOS>BOND
     1     1     2    1
     2     2     3   ar
     3     3     4   ar
     4     4     5    1
     5     4     6   ar
     6     6     7    1
     7     7     8   am
     8     8     9    2
     9     8    10    1
    10    10    11    1
    11    11    12   am
    12    12    13    2
    13    12    14   am
    14    14    15    1
    15    15    16    1
    16    16    17    1
    17    17    18    1
    18    18    19   ar
    19    19    20   ar
    20    20    21   ar
    21    21    22   ar
    22    22    23   ar
    23    23    24   ar
    24    24    25   ar
    25    20    25   ar
    26    25    26   ar
    27    18    26   ar
    28     6    27   ar
    29    27    28    1
    30    27    29   ar
    31     2    29   ar
    32     1    30    1
    33     1    31    1
    34     1    32    1
    35     3    33    1
    36     5    34    1
    37     5    35    1
    38     5    36    1
    39     7    37    1
    40    10    38    1
    41    10    39    1
    42    11    40    1
    43    14    41    1
    44    15    42    1
    45    15    43    1
    46    16    44    1
    47    16    45    1
    48    17    46    1
    49    17    47    1
    50    19    48    1
    51    21    49    1
    52    22    50    1
    53    23    51    1
    54    24    52    1
    55    28    53    1
    56    28    54    1
    57    28    55    1
    58    29    56    1
