REMARK  6 active torsions:
REMARK  status: ('A' for Active; 'I' for Inactive)
REMARK    1  A    between atoms: C2_2  and  N1_3 
REMARK       I    between atoms: N1_3  and  C3_4 
REMARK       I    between atoms: C3_4  and  N2_6 
REMARK       I    between atoms: N2_6  and  C4_7 
REMARK    2  A    between atoms: C5_9  and  C4_7 
REMARK    3  A    between atoms: C5_9  and  S1_10 
REMARK    4  A    between atoms: C5_9  and  C16_26 
REMARK    5  A    between atoms: S1_10  and  C6_11 
REMARK    6  A    between atoms: C9_16  and  C10_17 
ROOT
ATOM      1  C5  NON d   1      12.003 -10.010   0.000  0.00  0.00     0.174 C 
ENDROOT
BRANCH   1   2
ATOM      2  C4  NON d   1      10.517  -9.634   0.330  0.00  0.00     0.224 C 
ATOM      3  N2  NON d   1       9.482 -10.005  -0.476  0.00  0.00    -0.178 NA
ATOM      4  C3  NON d   1       8.373  -9.202  -0.463  0.00  0.00     0.300 C 
ATOM      5  H7  NON d   1       9.247 -10.976  -0.348  0.00  0.00     0.141 HD
ATOM      6  N1  NON d   1       7.209  -9.891  -0.151  0.00  0.00    -0.348 N 
ATOM      7  O1  NON d   1       8.394  -8.033  -0.820  0.00  0.00    -0.254 OA
ATOM      8  H6  NON d   1       7.336 -10.610   0.550  0.00  0.00     0.163 HD
ATOM      9  O2  NON d   1      10.287  -9.148   1.454  0.00  0.00    -0.278 OA
BRANCH   6  10
ATOM     10  C2  NON d   1       5.969  -9.149  -0.041  0.00  0.00     0.119 C 
ATOM     11  C1  NON d   1       4.758 -10.064   0.012  0.00  0.00     0.026 C 
ENDBRANCH   6  10
ENDBRANCH   1   2
BRANCH   1  12
ATOM     12  S1  NON d   1      12.905  -9.643  -1.617  0.00  0.00    -0.073 SA
BRANCH  12  13
ATOM     13  C6  NON d   1      14.494 -10.374  -1.239  0.00  0.00     0.172 A 
ATOM     14  N3  NON d   1      15.454  -9.604  -0.634  0.00  0.00    -0.329 N 
ATOM     15  C7  NON d   1      16.671 -10.155  -0.386  0.00  0.00     0.092 A 
ATOM     16  H9  NON d   1      15.283  -8.616  -0.487  0.00  0.00     0.168 HD
ATOM     17  S2  NON d   1      18.014  -9.323   0.225  0.00  0.00    -0.082 SA
ATOM     18  C14 NON d   1      16.934 -11.485  -0.662  0.00  0.00     0.080 A 
ATOM     19  C8  NON d   1      18.984 -10.735   0.167  0.00  0.00     0.065 A 
ATOM     20  C9  NON d   1      18.282 -11.856  -0.249  0.00  0.00     0.006 A 
ATOM     21  C15 NON d   1      15.879 -12.251  -1.351  0.00  0.00     0.283 A 
ATOM     22  O3  NON d   1      16.070 -13.387  -1.762  0.00  0.00    -0.265 OA
ATOM     23  N4  NON d   1      14.674 -11.605  -1.593  0.00  0.00    -0.185 NA
BRANCH  20  24
ATOM     24  C10 NON d   1      18.949 -13.227  -0.209  0.00  0.00     0.016 A 
ATOM     25  C11 NON d   1      20.321 -13.444  -0.205  0.00  0.00     0.020 A 
ATOM     26  C12 NON d   1      20.670 -14.828  -0.126  0.00  0.00     0.008 A 
ATOM     27  C13 NON d   1      19.551 -15.630  -0.037  0.00  0.00     0.050 A 
ATOM     28  S3  NON d   1      18.113 -14.712  -0.043  0.00  0.00    -0.101 SA
ENDBRANCH  20  24
ENDBRANCH  12  13
ENDBRANCH   1  12
BRANCH   1  29
ATOM     29  C16 NON d   1      12.003 -11.550   0.000  0.00  0.00    -0.035 A 
ATOM     30  C17 NON d   1      12.807 -12.210   0.945  0.00  0.00     0.009 A 
ATOM     31  C18 NON d   1      12.842 -13.607   0.999  0.00  0.00     0.001 A 
ATOM     32  C19 NON d   1      12.033 -14.364   0.154  0.00  0.00     0.000 A 
ATOM     33  C20 NON d   1      11.229 -13.731  -0.787  0.00  0.00     0.001 A 
ATOM     34  C21 NON d   1      11.249 -12.341  -0.893  0.00  0.00     0.009 A 
ENDBRANCH   1  29
TORSDOF 6
