@<TRIPOS>MOLECULE
*****
 69 73 0 0 0
SMALL
USER_CHARGES

@<TRIPOS>ATOM
      1 C1          6.5615    3.0959    1.2448 C.3     1  NONAME1     0.0122
      2 C2          5.4421    3.0198    0.2421 C.2     1  NONAME1     0.2104
      3 O1          5.4918    3.5584   -0.8596 O.2     1  NONAME1    -0.2761
      4 N1          4.3598    2.3123    0.6946 N.am    1  NONAME1    -0.3043
      5 C3          3.1269    2.1572   -0.1041 C.3     1  NONAME1     0.1138
      6 C4          2.4336    0.8031    0.2422 C.3     1  NONAME1     0.2231
      7 O2          2.7549   -0.2189   -0.7440 O.3     1  NONAME1    -0.4616
      8 C5          4.0230   -0.7401   -0.5782 C.ar    1  NONAME1     0.1242
      9 C6          4.2285   -1.8876    0.1795 C.ar    1  NONAME1    -0.0195
     10 C7          5.5381   -2.3496    0.4189 C.ar    1  NONAME1    -0.0546
     11 C8          6.6653   -1.6703   -0.0902 C.ar    1  NONAME1    -0.0406
     12 C9          6.4442   -0.5917   -0.9569 C.ar    1  NONAME1    -0.0404
     13 C10         5.1211   -0.1565   -1.2131 C.ar    1  NONAME1    -0.0164
     14 C11         7.5727    0.2024   -1.5651 C.3     1  NONAME1    -0.0270
     15 C12         8.9861   -0.3123   -1.2802 C.3     1  NONAME1    -0.0454
     16 C13         9.1091   -0.9062    0.1180 C.3     1  NONAME1    -0.0302
     17 C14        10.5239   -1.3489    0.5221 C.3     1  NONAME1    -0.0252
     18 C15        11.7371   -0.4809    0.1958 C.3     1  NONAME1    -0.0424
     19 C16        12.8958   -1.2976    0.8000 C.3     1  NONAME1     0.0067
     20 C17        12.3145   -2.7099    0.8606 C.2     1  NONAME1     0.1395
     21 O3         12.8707   -3.6591    1.3946 O.2     1  NONAME1    -0.2968
     22 C18        10.9795   -2.7729    0.1287 C.3     1  NONAME1     0.0293
     23 C19        11.3672   -3.0634   -1.3333 C.3     1  NONAME1    -0.0526
     24 C20         9.9280   -3.7705    0.6007 C.3     1  NONAME1    -0.0401
     25 C21         8.5566   -3.4342   -0.0274 C.3     1  NONAME1    -0.0450
     26 C22         8.0656   -2.0326    0.3979 C.3     1  NONAME1    -0.0124
     27 O4          1.0178    0.9369    0.4717 O.3     1  NONAME1    -0.3318
     28 C23         0.3197    1.7974   -0.4402 C.3     1  NONAME1     0.1140
     29 C24        -1.1952    1.7106   -0.1474 C.3     1  NONAME1     0.0731
     30 O5         -1.7827    0.5748   -0.7837 O.3     1  NONAME1    -0.3924
     31 C25         0.7899    3.2651   -0.3075 C.3     1  NONAME1     0.1113
     32 O6          0.0021    4.0123    0.6396 O.3     1  NONAME1    -0.3865
     33 C26         2.2710    3.4252    0.0423 C.3     1  NONAME1     0.1076
     34 O7          2.3884    3.9883    1.3720 O.3     1  NONAME1    -0.3871
     35 H1          6.5280    2.2483    1.9374 H       1  NONAME1     0.0322
     36 H2          7.5177    3.0637    0.7177 H       1  NONAME1     0.0322
     37 H3          6.4772    4.0271    1.8102 H       1  NONAME1     0.0322
     38 H4          4.2689    2.1612    1.6911 H       1  NONAME1     0.1493
     39 H5          3.4159    2.1127   -1.1606 H       1  NONAME1     0.0587
     40 H6          2.8006    0.4459    1.2145 H       1  NONAME1     0.1076
     41 H7          3.3840   -2.4213    0.6078 H       1  NONAME1     0.0654
     42 H8          5.6730   -3.2295    1.0468 H       1  NONAME1     0.0622
     43 H9          4.9670    0.6896   -1.8786 H       1  NONAME1     0.0657
     44 H10         7.4960    1.2282   -1.1836 H       1  NONAME1     0.0313
     45 H11         7.4340    0.2527   -2.6515 H       1  NONAME1     0.0313
     46 H12         9.6705    0.5404   -1.3804 H       1  NONAME1     0.0271
     47 H13         9.2786   -1.0410   -2.0400 H       1  NONAME1     0.0271
     48 H14         8.8531   -0.0808    0.8015 H       1  NONAME1     0.0310
     49 H15        10.4650   -1.3400    1.6275 H       1  NONAME1     0.0313
     50 H16        11.6769    0.5202    0.6318 H       1  NONAME1     0.0272
     51 H17        11.8744   -0.3623   -0.8856 H       1  NONAME1     0.0272
     52 H18        13.1345   -0.9531    1.8094 H       1  NONAME1     0.0342
     53 H19        13.7809   -1.2721    0.1592 H       1  NONAME1     0.0342
     54 H20        11.7372   -4.0967   -1.4144 H       1  NONAME1     0.0239
     55 H21        12.1877   -2.4353   -1.6962 H       1  NONAME1     0.0239
     56 H22        10.5341   -2.9590   -2.0275 H       1  NONAME1     0.0239
     57 H23        10.2196   -4.7947    0.3377 H       1  NONAME1     0.0275
     58 H24         9.8436   -3.7544    1.6951 H       1  NONAME1     0.0275
     59 H25         7.8388   -4.2007    0.2853 H       1  NONAME1     0.0271
     60 H26         8.6063   -3.5004   -1.1211 H       1  NONAME1     0.0271
     61 H27         7.9792   -2.0739    1.4952 H       1  NONAME1     0.0352
     62 H28         0.5207    1.4326   -1.4548 H       1  NONAME1     0.0647
     63 H29        -1.3776    1.6169    0.9295 H       1  NONAME1     0.0584
     64 H30        -1.7270    2.5902   -0.5269 H       1  NONAME1     0.0584
     65 H31        -2.7197    0.5703   -0.5204 H       1  NONAME1     0.2095
     66 H32         0.5930    3.7403   -1.2739 H       1  NONAME1     0.0646
     67 H33         0.6369    4.3212    1.3217 H       1  NONAME1     0.2100
     68 H34         2.6791    4.1894   -0.6345 H       1  NONAME1     0.0641
     69 H35         3.0627    4.6908    1.2937 H       1  NONAME1     0.2100
@<TRIPOS>BOND
     1     1     2    1
     2     2     3    2
     3     2     4   am
     4     5     4    1
     5     5     6    1
     6     6     7    1
     7     7     8    1
     8     8     9   ar
     9     9    10   ar
    10    10    11   ar
    11    11    12   ar
    12    12    13   ar
    13     8    13   ar
    14    12    14    1
    15    14    15    1
    16    16    15    1
    17    16    17    1
    18    17    18    1
    19    18    19    1
    20    19    20    1
    21    20    21    2
    22    22    20    1
    23    17    22    1
    24    22    23    1
    25    22    24    1
    26    24    25    1
    27    26    25    1
    28    26    11    1
    29    16    26    1
    30     6    27    1
    31    28    27    1
    32    28    29    1
    33    29    30    1
    34    31    28    1
    35    31    32    1
    36    33    31    1
    37     5    33    1
    38    33    34    1
    39     1    35    1
    40     1    36    1
    41     1    37    1
    42     4    38    1
    43     5    39    1
    44     6    40    1
    45     9    41    1
    46    10    42    1
    47    13    43    1
    48    14    44    1
    49    14    45    1
    50    15    46    1
    51    15    47    1
    52    16    48    1
    53    17    49    1
    54    18    50    1
    55    18    51    1
    56    19    52    1
    57    19    53    1
    58    23    54    1
    59    23    55    1
    60    23    56    1
    61    24    57    1
    62    24    58    1
    63    25    59    1
    64    25    60    1
    65    26    61    1
    66    28    62    1
    67    29    63    1
    68    29    64    1
    69    30    65    1
    70    31    66    1
    71    32    67    1
    72    33    68    1
    73    34    69    1
