REMARK  7 active torsions:
REMARK  status: ('A' for Active; 'I' for Inactive)
REMARK    1  A    between atoms: C6_6  and  N1_7 
REMARK       I    between atoms: N1_7  and  C7_8 
REMARK    2  A    between atoms: C7_8  and  C8_10 
REMARK    3  A    between atoms: C8_10  and  S1_11 
REMARK    4  A    between atoms: S1_11  and  C9_12 
REMARK    5  A    between atoms: C10_15  and  C11_16 
REMARK    6  A    between atoms: C13_18  and  C14_19 
REMARK    7  A    between atoms: N6_28  and  N7_29 
ROOT
ATOM      1  C9  NON d   1      -1.297  -5.871   0.199  0.00  0.00     0.206 A 
ATOM      2  N2  NON d   1      -0.168  -6.537   0.133  0.00  0.00    -0.121 NA
ATOM      3  N3  NON d   1      -0.489  -7.881   0.006  0.00  0.00    -0.125 NA
ATOM      4  C10 NON d   1      -1.806  -7.997  -0.011  0.00  0.00     0.197 A 
ATOM      5  N6  NON d   1      -2.358  -6.737   0.082  0.00  0.00    -0.234 N 
ENDROOT
BRANCH   1   6
ATOM      6  S1  NON d   1      -1.530  -4.183   0.470  0.00  0.00    -0.080 SA
BRANCH   6   7
ATOM      7  C8  NON d   1       0.066  -3.456  -0.025  0.00  0.00     0.185 C 
BRANCH   7   8
ATOM      8  C7  NON d   1      -0.100  -1.940  -0.206  0.00  0.00     0.231 C 
ATOM      9  N1  NON d   1       1.059  -1.217   0.051  0.00  0.00    -0.327 N 
ATOM     10  H7  NON d   1       1.921  -1.735   0.171  0.00  0.00     0.169 HD
ATOM     11  O1  NON d   1      -1.160  -1.450  -0.591  0.00  0.00    -0.272 OA
BRANCH   9  12
ATOM     12  C6  NON d   1       1.183   0.197   0.051  0.00  0.00     0.035 A 
ATOM     13  C5  NON d   1       2.472   0.739   0.112  0.00  0.00     0.029 A 
ATOM     14  C4  NON d   1       2.664   2.125   0.121  0.00  0.00     0.003 A 
ATOM     15  C3  NON d   1       1.569   2.986   0.082  0.00  0.00     0.007 A 
ATOM     16  C2  NON d   1       0.273   2.467   0.024  0.00  0.00    -0.060 A 
ATOM     17  C1  NON d   1      -0.917   3.381   0.033  0.00  0.00     0.048 C 
ATOM     18  C20 NON d   1       0.093   1.072   0.021  0.00  0.00     0.036 A 
ENDBRANCH   9  12
ENDBRANCH   7   8
ENDBRANCH   6   7
ENDBRANCH   1   6
BRANCH   5  19
ATOM     19  N7  NON d   1      -3.775  -6.413   0.093  0.00  0.00    -0.239 NA
ATOM     20  H16 NON d   1      -3.913  -5.525  -0.399  0.00  0.00     0.143 HD
ATOM     21  H17 NON d   1      -4.064  -6.205   1.051  0.00  0.00     0.143 HD
ENDBRANCH   5  19
BRANCH   4  22
ATOM     22  C11 NON d   1      -2.527  -9.227  -0.075  0.00  0.00     0.101 A 
ATOM     23  C12 NON d   1      -2.097 -10.534  -0.016  0.00  0.00     0.069 A 
ATOM     24  C13 NON d   1      -3.269 -11.345  -0.087  0.00  0.00     0.089 A 
ATOM     25  N4  NON d   1      -4.360 -10.566  -0.194  0.00  0.00    -0.174 NA
ATOM     26  N5  NON d   1      -3.884  -9.312  -0.201  0.00  0.00    -0.274 N 
ATOM     27  H15 NON d   1      -4.542  -8.541  -0.281  0.00  0.00     0.189 HD
BRANCH  24  28
ATOM     28  C14 NON d   1      -3.371 -12.812  -0.051  0.00  0.00    -0.006 A 
ATOM     29  C15 NON d   1      -2.223 -13.620  -0.031  0.00  0.00     0.015 A 
ATOM     30  C16 NON d   1      -2.328 -15.015  -0.004  0.00  0.00     0.024 A 
ATOM     31  C17 NON d   1      -3.582 -15.619   0.004  0.00  0.00     0.034 A 
ATOM     32 Cl1  NON d   1      -3.707 -17.334   0.030  0.00  0.00    -0.084 Cl
ATOM     33  C18 NON d   1      -4.735 -14.838  -0.013  0.00  0.00     0.024 A 
ATOM     34  C19 NON d   1      -4.627 -13.443  -0.040  0.00  0.00     0.015 A 
ENDBRANCH  24  28
ENDBRANCH   4  22
TORSDOF 7
