@<TRIPOS>MOLECULE
*****
 51 52 0 0 0
SMALL
USER_CHARGES

@<TRIPOS>ATOM
      1 C1         13.3949   -3.2272   -2.5171 C.3     1  NONAME1    -0.0653
      2 C2         14.0206   -4.0486   -1.3978 C.3     1  NONAME1    -0.0559
      3 C3         13.3542   -5.4197   -1.2635 C.3     1  NONAME1    -0.0532
      4 C4         13.7626   -6.2157   -0.0156 C.3     1  NONAME1    -0.0500
      5 C5         15.0761   -7.0043   -0.1099 C.3     1  NONAME1    -0.0186
      6 C6         16.3233   -6.1325   -0.0200 C.3     1  NONAME1     0.0896
      7 O1         17.4925   -6.9476    0.1159 O.3     1  NONAME1    -0.4912
      8 C7         18.7086   -6.3022    0.0810 C.ar    1  NONAME1     0.1326
      9 C8         18.8097   -4.8972    0.1085 C.ar    1  NONAME1    -0.0192
     10 C9         20.0455   -4.2540    0.0684 C.ar    1  NONAME1    -0.0583
     11 C10        21.2065   -5.0044    0.0006 C.ar    1  NONAME1    -0.0608
     12 C11        21.1318   -6.3988   -0.0225 C.ar    1  NONAME1    -0.0460
     13 C12        19.8920   -7.0753    0.0261 C.ar    1  NONAME1     0.0797
     14 C13        19.8542   -8.5877    0.0032 C.2     1  NONAME1     0.2637
     15 O2         18.8132   -9.2365   -0.0779 O.2     1  NONAME1    -0.2685
     16 N1         21.0726   -9.2492    0.0776 N.am    1  NONAME1    -0.2300
     17 N2         21.0870  -10.6500    0.0467 N.am    1  NONAME1    -0.2301
     18 C14        22.3210  -11.2704    0.0546 C.2     1  NONAME1     0.2602
     19 O3         23.3663  -10.6198    0.0867 O.2     1  NONAME1    -0.2687
     20 C15        22.3673  -12.7639    0.0276 C.ar    1  NONAME1     0.0383
     21 C16        23.6344  -13.3753    0.0181 C.ar    1  NONAME1    -0.0474
     22 C17        23.7629  -14.7681    0.0048 C.ar    1  NONAME1    -0.0308
     23 C18        22.6124  -15.5631   -0.0005 C.ar    1  NONAME1     0.1262
     24 N3         22.7353  -17.0273   -0.0086 N.pl3   1  NONAME1     0.0564
     25 O4         23.8764  -17.5109    0.0008 O.2     1  NONAME1    -0.1261
     26 O5         21.6893  -17.6922   -0.0288 O.2     1  NONAME1    -0.1261
     27 C19        21.3420  -14.9704    0.0073 C.ar    1  NONAME1    -0.0308
     28 C20        21.2223  -13.5738    0.0208 C.ar    1  NONAME1    -0.0474
     29 H1         13.8569   -2.2355   -2.5610 H       1  NONAME1     0.0230
     30 H2         13.5421   -3.7121   -3.4875 H       1  NONAME1     0.0230
     31 H3         12.3205   -3.0930   -2.3574 H       1  NONAME1     0.0230
     32 H4         15.0843   -4.1522   -1.6188 H       1  NONAME1     0.0263
     33 H5         13.9336   -3.4945   -0.4566 H       1  NONAME1     0.0263
     34 H6         12.2694   -5.2586   -1.2029 H       1  NONAME1     0.0265
     35 H7         13.5279   -6.0160   -2.1668 H       1  NONAME1     0.0265
     36 H8         13.7764   -5.5596    0.8632 H       1  NONAME1     0.0266
     37 H9         12.9664   -6.9493    0.1685 H       1  NONAME1     0.0266
     38 H10        15.1016   -7.5999   -1.0303 H       1  NONAME1     0.0298
     39 H11        15.1031   -7.7323    0.7113 H       1  NONAME1     0.0298
     40 H12        16.2337   -5.4770    0.8542 H       1  NONAME1     0.0696
     41 H13        16.4120   -5.5476   -0.9378 H       1  NONAME1     0.0696
     42 H14        17.9334   -4.2586    0.1648 H       1  NONAME1     0.0654
     43 H15        20.0942   -3.1681    0.0876 H       1  NONAME1     0.0619
     44 H16        22.1739   -4.5090   -0.0360 H       1  NONAME1     0.0618
     45 H17        22.0783   -6.9228   -0.0912 H       1  NONAME1     0.0626
     46 H18        21.9881   -8.8203    0.1670 H       1  NONAME1     0.1731
     47 H19        20.1746  -11.0953   -0.0009 H       1  NONAME1     0.1731
     48 H20        24.5364  -12.7627    0.0234 H       1  NONAME1     0.0626
     49 H21        24.7580  -15.2096   -0.0007 H       1  NONAME1     0.0640
     50 H22        20.4375  -15.5776    0.0032 H       1  NONAME1     0.0640
     51 H23        20.2219  -13.1524    0.0300 H       1  NONAME1     0.0626
@<TRIPOS>BOND
     1     1     2    1
     2     2     3    1
     3     3     4    1
     4     4     5    1
     5     5     6    1
     6     6     7    1
     7     7     8    1
     8     8     9   ar
     9     9    10   ar
    10    10    11   ar
    11    11    12   ar
    12    12    13   ar
    13     8    13   ar
    14    13    14    1
    15    14    15    2
    16    14    16   am
    17    16    17    1
    18    17    18   am
    19    18    19    2
    20    18    20    1
    21    20    21   ar
    22    21    22   ar
    23    22    23   ar
    24    23    24    1
    25    24    25    2
    26    24    26    1
    27    23    27   ar
    28    27    28   ar
    29    20    28   ar
    30     1    29    1
    31     1    30    1
    32     1    31    1
    33     2    32    1
    34     2    33    1
    35     3    34    1
    36     3    35    1
    37     4    36    1
    38     4    37    1
    39     5    38    1
    40     5    39    1
    41     6    40    1
    42     6    41    1
    43     9    42    1
    44    10    43    1
    45    11    44    1
    46    12    45    1
    47    16    46    1
    48    17    47    1
    49    21    48    1
    50    22    49    1
    51    27    50    1
    52    28    51    1
