@<TRIPOS>MOLECULE
*****
 50 52 0 0 0
SMALL
USER_CHARGES

@<TRIPOS>ATOM
      1 C1          1.3337   -5.3900    0.0000 C.3     1  NONAME1     0.0004
      2 N1          1.3337   -6.9300    0.0000 N.am    1  NONAME1    -0.3144
      3 C2          2.5021   -7.7068    0.1193 C.2     1  NONAME1     0.2438
      4 O1          3.6021   -7.1604    0.2118 O.2     1  NONAME1    -0.2702
      5 C3          2.4680   -9.2534    0.1592 C.ar    1  NONAME1     0.0367
      6 C4          3.5747   -9.9292    0.7193 C.ar    1  NONAME1    -0.0493
      7 C5          3.6862  -11.3578    0.7739 C.ar    1  NONAME1    -0.0564
      8 C6          2.7318  -12.2119    0.1992 C.ar    1  NONAME1    -0.0301
      9 C7          2.7639  -13.7866    0.2914 C.3     1  NONAME1     0.0397
     10 N2          4.0010  -14.6300    0.0000 N.am    1  NONAME1    -0.2962
     11 C8          5.3347  -13.8600    0.0000 C.3     1  NONAME1     0.0038
     12 C9          3.9329  -16.0195    0.2706 C.2     1  NONAME1     0.2500
     13 O2          2.8568  -16.5987    0.4081 O.2     1  NONAME1    -0.2699
     14 C10         5.1925  -16.8392    0.3892 C.ar    1  NONAME1     0.0768
     15 C11         6.3374  -16.3227    1.0243 C.ar    1  NONAME1    -0.0449
     16 C12         7.5602  -16.9766    0.9331 C.ar    1  NONAME1    -0.0427
     17 C13         7.5883  -18.1743    0.2638 C.ar    1  NONAME1     0.0297
     18 N3          6.4798  -18.7708   -0.2109 N.ar    1  NONAME1    -0.2394
     19 C14         5.2703  -18.1569   -0.0960 C.ar    1  NONAME1     0.1351
     20 N4          4.1137  -18.9027   -0.4220 N.pl3   1  NONAME1    -0.2966
     21 C15         3.9053  -20.3052   -0.2983 C.ar    1  NONAME1     0.0681
     22 C16         4.9339  -21.2517   -0.1789 C.ar    1  NONAME1    -0.0377
     23 C17         4.6648  -22.6228   -0.0606 C.ar    1  NONAME1    -0.0598
     24 C18         3.3536  -23.0839   -0.0852 C.ar    1  NONAME1    -0.0589
     25 C19         2.3126  -22.1725   -0.2392 C.ar    1  NONAME1    -0.0246
     26 C20         2.5949  -20.8084   -0.3530 C.ar    1  NONAME1     0.1445
     27 F1          1.5681  -19.9550   -0.4892 F       1  NONAME1    -0.2035
     28 C21         1.6064  -11.5289   -0.3367 C.ar    1  NONAME1    -0.0564
     29 C22         1.4711  -10.0880   -0.3555 C.ar    1  NONAME1    -0.0493
     30 H1          1.9857   -5.3072    0.8899 H       1  NONAME1     0.0426
     31 H2          1.3337   -3.8500    0.0000 H       1  NONAME1     0.0426
     32 H3          0.2817   -5.3221    0.3344 H       1  NONAME1     0.0426
     33 H4          0.4412   -7.4036   -0.0225 H       1  NONAME1     0.1487
     34 H5          4.3898   -9.3389    1.1417 H       1  NONAME1     0.0625
     35 H6          4.5530  -11.7647    1.2890 H       1  NONAME1     0.0621
     36 H7          1.9829  -14.1832   -0.3692 H       1  NONAME1     0.0514
     37 H8          2.4630  -14.0356    1.3175 H       1  NONAME1     0.0514
     38 H9          5.8555  -14.5765   -0.6644 H       1  NONAME1     0.0429
     39 H10         6.6684  -13.0900    0.0000 H       1  NONAME1     0.0429
     40 H11         4.9934  -13.0959   -0.7243 H       1  NONAME1     0.0429
     41 H12         6.2970  -15.3932    1.5825 H       1  NONAME1     0.0627
     42 H13         8.4645  -16.5539    1.3549 H       1  NONAME1     0.0633
     43 H14         8.5126  -18.7235    0.1114 H       1  NONAME1     0.0830
     44 H15         3.2547  -18.3816   -0.2141 H       1  NONAME1     0.1537
     45 H16         5.9772  -20.9570   -0.1612 H       1  NONAME1     0.0637
     46 H17         5.4901  -23.3238    0.0500 H       1  NONAME1     0.0618
     47 H18         3.1460  -24.1463    0.0100 H       1  NONAME1     0.0618
     48 H19         1.2830  -22.5103   -0.2661 H       1  NONAME1     0.0647
     49 H20         0.7840  -12.1150   -0.7507 H       1  NONAME1     0.0621
     50 H21         0.5791   -9.6601   -0.8060 H       1  NONAME1     0.0625
@<TRIPOS>BOND
     1     1     2    1
     2     2     3   am
     3     3     4    2
     4     3     5    1
     5     5     6   ar
     6     6     7   ar
     7     7     8   ar
     8     8     9    1
     9     9    10    1
    10    10    11    1
    11    10    12   am
    12    12    13    2
    13    12    14    1
    14    14    15   ar
    15    15    16   ar
    16    16    17   ar
    17    17    18   ar
    18    18    19   ar
    19    14    19   ar
    20    19    20    1
    21    20    21    1
    22    21    22   ar
    23    22    23   ar
    24    23    24   ar
    25    24    25   ar
    26    25    26   ar
    27    21    26   ar
    28    26    27    1
    29     8    28   ar
    30    28    29   ar
    31     5    29   ar
    32     1    30    1
    33     1    31    1
    34     1    32    1
    35     2    33    1
    36     6    34    1
    37     7    35    1
    38     9    36    1
    39     9    37    1
    40    11    38    1
    41    11    39    1
    42    11    40    1
    43    15    41    1
    44    16    42    1
    45    17    43    1
    46    20    44    1
    47    22    45    1
    48    23    46    1
    49    24    47    1
    50    25    48    1
    51    28    49    1
    52    29    50    1
