@<TRIPOS>MOLECULE
*****
 61 63 0 0 0
SMALL
USER_CHARGES

@<TRIPOS>ATOM
      1 C1         -6.4381  -10.9304   -0.9412 C.3     1  NONAME1    -0.0648
      2 C2         -5.8862  -11.7957    0.1875 C.3     1  NONAME1    -0.0476
      3 C3         -4.5049  -12.4089   -0.1085 C.3     1  NONAME1     0.0240
      4 C4         -3.3472  -11.4156    0.0446 C.2     1  NONAME1     0.2172
      5 O1         -3.5709  -10.2256    0.2474 O.2     1  NONAME1    -0.2755
      6 N1         -2.0820  -12.0033   -0.0677 N.am    1  NONAME1    -0.2854
      7 C5         -0.8205  -11.3273   -0.0435 C.ar    1  NONAME1     0.0351
      8 C6         -0.7318   -9.9376   -0.0606 C.ar    1  NONAME1    -0.0404
      9 C7          0.5125   -9.3068   -0.0137 C.ar    1  NONAME1    -0.0583
     10 C8          1.6935  -10.0562    0.0378 C.ar    1  NONAME1    -0.0407
     11 C9          1.6798  -11.4533    0.0059 C.ar    1  NONAME1     0.0293
     12 N2          2.8548  -12.2231    0.1357 N.pl3   1  NONAME1    -0.3353
     13 C10         4.2208  -11.6330    0.0024 C.3     1  NONAME1     0.0861
     14 C11         5.3887  -12.7008   -0.0210 C.2     1  NONAME1     0.2343
     15 O2          5.1461  -13.9028   -0.1204 O.2     1  NONAME1    -0.2738
     16 N3          6.6815  -12.1416    0.0315 N.am    1  NONAME1    -0.2842
     17 C12         7.9618  -12.8034    0.0177 C.ar    1  NONAME1     0.0335
     18 C13         9.1300  -12.0222    0.0402 C.ar    1  NONAME1    -0.0387
     19 C14        10.4433  -12.5941    0.0339 C.ar    1  NONAME1    -0.0387
     20 C15        10.6555  -13.9791    0.0083 C.ar    1  NONAME1     0.0338
     21 N4         11.9522  -14.6453    0.0072 N.am    1  NONAME1    -0.2815
     22 C16        13.2194  -14.0362    0.0396 C.2     1  NONAME1     0.2483
     23 O3         13.3546  -12.8119    0.0737 O.2     1  NONAME1    -0.2699
     24 C17        14.5289  -14.8728    0.0331 C.ar    1  NONAME1     0.0373
     25 C18        15.7302  -14.1396    0.0410 C.ar    1  NONAME1    -0.0496
     26 C19        16.9995  -14.7584    0.0449 C.ar    1  NONAME1    -0.0608
     27 C20        17.1419  -16.1496    0.0319 C.ar    1  NONAME1    -0.0588
     28 C21        16.0041  -16.9400    0.0000 C.ar    1  NONAME1    -0.0497
     29 C22        16.0041  -18.4800    0.0000 C.3     1  NONAME1    -0.0397
     30 C23        14.6916  -16.2767    0.0224 C.ar    1  NONAME1    -0.0467
     31 C24         9.4777  -14.7576   -0.0160 C.ar    1  NONAME1    -0.0387
     32 C25         8.1647  -14.1811   -0.0121 C.ar    1  NONAME1    -0.0387
     33 C26         0.3933  -12.0720   -0.0111 C.ar    1  NONAME1    -0.0196
     34 H1         -7.3026  -10.3565   -0.5872 H       1  NONAME1     0.0230
     35 H2         -6.7763  -11.5502   -1.7780 H       1  NONAME1     0.0230
     36 H3         -5.6980  -10.2198   -1.3182 H       1  NONAME1     0.0230
     37 H4         -6.6070  -12.6027    0.3717 H       1  NONAME1     0.0267
     38 H5         -5.8447  -11.1988    1.1064 H       1  NONAME1     0.0267
     39 H6         -4.4880  -12.8254   -1.1215 H       1  NONAME1     0.0358
     40 H7         -4.3381  -13.2264    0.6026 H       1  NONAME1     0.0358
     41 H8         -2.0462  -13.0138   -0.1116 H       1  NONAME1     0.1548
     42 H9         -1.6101   -9.3022   -0.1085 H       1  NONAME1     0.0636
     43 H10         0.5495   -8.2217   -0.0056 H       1  NONAME1     0.0619
     44 H11         2.6242   -9.5048    0.1022 H       1  NONAME1     0.0636
     45 H12         2.7991  -13.1645   -0.2450 H       1  NONAME1     0.1466
     46 H13         4.2852  -11.0657   -0.9341 H       1  NONAME1     0.0557
     47 H14         4.4017  -10.9600    0.8493 H       1  NONAME1     0.0557
     48 H15         6.7292  -11.1297    0.0769 H       1  NONAME1     0.1549
     49 H16         9.0624  -10.9356    0.0571 H       1  NONAME1     0.0637
     50 H17        11.2811  -11.9041    0.0445 H       1  NONAME1     0.0637
     51 H18        11.9184  -15.6533   -0.0177 H       1  NONAME1     0.1551
     52 H19        15.6996  -13.0493    0.0483 H       1  NONAME1     0.0625
     53 H20        17.8891  -14.1309    0.0589 H       1  NONAME1     0.0618
     54 H21        18.1346  -16.5908    0.0407 H       1  NONAME1     0.0620
     55 H22        15.2226  -18.5768   -0.7834 H       1  NONAME1     0.0278
     56 H23        16.0041  -20.0200    0.0000 H       1  NONAME1     0.0278
     57 H24        16.9758  -18.5774   -0.5280 H       1  NONAME1     0.0278
     58 H25        13.8044  -16.9067    0.0252 H       1  NONAME1     0.0628
     59 H26         9.5459  -15.8409   -0.0354 H       1  NONAME1     0.0637
     60 H27         7.3129  -14.8617   -0.0271 H       1  NONAME1     0.0637
     61 H28         0.3445  -13.1574    0.0202 H       1  NONAME1     0.0655
@<TRIPOS>BOND
     1     1     2    1
     2     2     3    1
     3     3     4    1
     4     4     5    2
     5     4     6   am
     6     6     7    1
     7     7     8   ar
     8     8     9   ar
     9     9    10   ar
    10    10    11   ar
    11    11    12    1
    12    12    13    1
    13    13    14    1
    14    14    15    2
    15    14    16   am
    16    16    17    1
    17    17    18   ar
    18    18    19   ar
    19    19    20   ar
    20    20    21    1
    21    21    22   am
    22    22    23    2
    23    22    24    1
    24    24    25   ar
    25    25    26   ar
    26    26    27   ar
    27    27    28   ar
    28    28    29    1
    29    28    30   ar
    30    24    30   ar
    31    20    31   ar
    32    31    32   ar
    33    17    32   ar
    34    11    33   ar
    35     7    33   ar
    36     1    34    1
    37     1    35    1
    38     1    36    1
    39     2    37    1
    40     2    38    1
    41     3    39    1
    42     3    40    1
    43     6    41    1
    44     8    42    1
    45     9    43    1
    46    10    44    1
    47    12    45    1
    48    13    46    1
    49    13    47    1
    50    16    48    1
    51    18    49    1
    52    19    50    1
    53    21    51    1
    54    25    52    1
    55    26    53    1
    56    27    54    1
    57    29    55    1
    58    29    56    1
    59    29    57    1
    60    30    58    1
    61    31    59    1
    62    32    60    1
    63    33    61    1
