@<TRIPOS>MOLECULE
*****
 26 27 0 0 0
SMALL
USER_CHARGES

@<TRIPOS>ATOM
      1 O1          0.2514   -2.9123    0.0000 O.2     1  NONAME1    -0.2698
      2 C1          1.3735   -2.4055    0.0000 C.2     1  NONAME1     0.2507
      3 N1          2.5279   -3.1669    0.0001 N.am    1  NONAME1    -0.2676
      4 C2          2.5943   -4.5414    0.0001 C.ar    1  NONAME1     0.1116
      5 C3          3.7794   -5.1622    0.0001 C.ar    1  NONAME1     0.0412
      6 C4          3.8159   -6.6372    0.0001 C.ar    1  NONAME1     0.2558
      7 O2          4.8855   -7.2356    0.0001 O.2     1  NONAME1    -0.2677
      8 N2          2.6088   -7.2703    0.0001 N.ar    1  NONAME1    -0.2750
      9 C5          1.3976   -6.6404    0.0001 C.ar    1  NONAME1     0.3281
     10 O3          0.3441   -7.2678    0.0001 O.2     1  NONAME1    -0.2466
     11 N3          1.4464   -5.2770    0.0001 N.ar    1  NONAME1    -0.2956
     12 C6          1.4924   -0.9067    0.0000 C.ar    1  NONAME1     0.0567
     13 C7          0.2670   -0.2052    0.0000 C.ar    1  NONAME1    -0.0298
     14 C8          0.2316    1.1893   -0.0000 C.ar    1  NONAME1     0.0418
     15 Cl1        -1.2797    2.0089   -0.0000 Cl      1  NONAME1    -0.0835
     16 C9          1.4116    1.9211   -0.0000 C.ar    1  NONAME1    -0.0420
     17 C10         2.6330    1.2481   -0.0000 C.ar    1  NONAME1    -0.0413
     18 C11         2.6817   -0.1564    0.0000 C.ar    1  NONAME1     0.0532
     19 Cl2         4.2717   -0.8377    0.0000 Cl      1  NONAME1    -0.0828
     20 H1          3.4139   -2.6735    0.0001 H       1  NONAME1     0.1565
     21 H2          4.7344   -4.6551    0.0001 H       1  NONAME1     0.0706
     22 H3          2.6034   -8.2780    0.0001 H       1  NONAME1     0.1734
     23 H4          0.5576   -4.7770    0.0001 H       1  NONAME1     0.1716
     24 H5         -0.6764   -0.7514    0.0000 H       1  NONAME1     0.0640
     25 H6          1.3894    3.0090   -0.0000 H       1  NONAME1     0.0633
     26 H7          3.5532    1.8303   -0.0000 H       1  NONAME1     0.0633
@<TRIPOS>BOND
     1     1     2    2
     2     2     3   am
     3     3     4    1
     4     4     5   ar
     5     5     6   ar
     6     6     7    2
     7     6     8   ar
     8     8     9   ar
     9     9    10    2
    10     9    11   ar
    11     4    11   ar
    12     2    12    1
    13    12    13   ar
    14    13    14   ar
    15    14    15    1
    16    14    16   ar
    17    16    17   ar
    18    17    18   ar
    19    12    18   ar
    20    18    19    1
    21     3    20    1
    22     5    21    1
    23     8    22    1
    24    11    23    1
    25    13    24    1
    26    16    25    1
    27    17    26    1
