@<TRIPOS>MOLECULE
*****
 52 55 0 0 0
SMALL
USER_CHARGES

@<TRIPOS>ATOM
      1 C1          5.3347    1.5400    0.0000 C.3     1  NONAME1    -0.0206
      2 C2          5.3347    0.0000    0.0000 C.ar    1  NONAME1     0.0607
      3 C3          6.4697   -0.7864   -0.0894 C.ar    1  NONAME1    -0.0356
      4 C4          6.3462   -2.1969   -0.1398 C.ar    1  NONAME1    -0.0170
      5 C5          5.1036   -2.8362   -0.0645 C.ar    1  NONAME1     0.1574
      6 N1          5.0507   -4.2483   -0.2723 N.pl3   1  NONAME1    -0.2458
      7 N2          3.8033   -4.9182    0.0086 N.am    1  NONAME1    -0.2191
      8 C6          3.8349   -6.3182   -0.1549 C.2     1  NONAME1     0.3162
      9 O1          4.8829   -6.9382   -0.3357 O.2     1  NONAME1    -0.2513
     10 N3          2.5849   -6.9159   -0.0449 N.am    1  NONAME1    -0.2948
     11 C7          2.3079   -8.3113   -0.3554 C.3     1  NONAME1     0.0321
     12 C8          3.0727   -9.4343    0.2868 C.3     1  NONAME1    -0.0254
     13 C9          1.6192   -9.2507    0.6389 C.3     1  NONAME1     0.0043
     14 C10         0.5842  -10.3062    0.2313 C.ar    1  NONAME1    -0.0422
     15 C11         0.8282  -11.6949    0.3045 C.ar    1  NONAME1    -0.0548
     16 C12        -0.1784  -12.6609    0.0706 C.ar    1  NONAME1    -0.0197
     17 C13        -1.4753  -12.2623   -0.2338 C.ar    1  NONAME1     0.1210
     18 O2         -2.5590  -13.0743   -0.4406 O.3     1  NONAME1    -0.4874
     19 C14        -2.4475  -14.4596   -0.0895 C.3     1  NONAME1     0.1146
     20 C15        -3.7997  -15.1654   -0.1109 C.ar    1  NONAME1    -0.0104
     21 C16        -3.8481  -16.5708   -0.1070 C.ar    1  NONAME1    -0.0554
     22 C17        -5.0723  -17.2491   -0.0803 C.ar    1  NONAME1    -0.0614
     23 C18        -6.2667  -16.5352   -0.0520 C.ar    1  NONAME1    -0.0617
     24 C19        -6.2362  -15.1429   -0.0452 C.ar    1  NONAME1    -0.0614
     25 C20        -5.0128  -14.4634   -0.0688 C.ar    1  NONAME1    -0.0554
     26 C21        -1.7320  -10.8943   -0.3457 C.ar    1  NONAME1    -0.0197
     27 C22        -0.7244   -9.9377   -0.1165 C.ar    1  NONAME1    -0.0548
     28 N4          4.0192   -2.0518    0.0469 N.ar    1  NONAME1    -0.1327
     29 N5          4.1380   -0.6319    0.0931 N.ar    1  NONAME1    -0.1527
     30 H1          6.1186    1.6311   -0.7807 H       1  NONAME1     0.0293
     31 H2          5.3347    3.0800    0.0000 H       1  NONAME1     0.0293
     32 H3          4.3574    1.6345   -0.5181 H       1  NONAME1     0.0293
     33 H4          7.4539   -0.3339   -0.1576 H       1  NONAME1     0.0637
     34 H5          7.2473   -2.7918   -0.2651 H       1  NONAME1     0.0653
     35 H6          5.8178   -4.7341    0.1955 H       1  NONAME1     0.1716
     36 H7          2.9962   -4.4114   -0.3431 H       1  NONAME1     0.1743
     37 H8          1.8052   -6.3270    0.2119 H       1  NONAME1     0.1506
     38 H9          2.0681   -8.4462   -1.4084 H       1  NONAME1     0.0505
     39 H10         3.8093   -9.1937    1.0453 H       1  NONAME1     0.0290
     40 H11         3.3723  -10.2543   -0.3563 H       1  NONAME1     0.0290
     41 H12         1.4380   -8.8371    1.6301 H       1  NONAME1     0.0367
     42 H13         1.8210  -12.0497    0.5778 H       1  NONAME1     0.0622
     43 H14         0.0885  -13.7105    0.1480 H       1  NONAME1     0.0654
     44 H15        -1.7886  -14.9516   -0.8154 H       1  NONAME1     0.0748
     45 H16        -2.0400  -14.5647    0.9237 H       1  NONAME1     0.0748
     46 H17        -2.9289  -17.1526   -0.1202 H       1  NONAME1     0.0621
     47 H18        -5.0927  -18.3368   -0.0778 H       1  NONAME1     0.0618
     48 H19        -7.2185  -17.0602   -0.0297 H       1  NONAME1     0.0618
     49 H20        -7.1667  -14.5809   -0.0155 H       1  NONAME1     0.0618
     50 H21        -5.0168  -13.3759   -0.0518 H       1  NONAME1     0.0621
     51 H22        -2.7391  -10.5610   -0.5878 H       1  NONAME1     0.0654
     52 H23        -0.9853   -8.8837   -0.1766 H       1  NONAME1     0.0622
@<TRIPOS>BOND
     1     1     2    1
     2     2     3   ar
     3     3     4   ar
     4     4     5   ar
     5     5     6    1
     6     6     7    1
     7     7     8   am
     8     8     9    2
     9     8    10   am
    10    11    10    1
    11    11    12    1
    12    13    12    1
    13    11    13    1
    14    13    14    1
    15    14    15   ar
    16    15    16   ar
    17    16    17   ar
    18    17    18    1
    19    18    19    1
    20    19    20    1
    21    20    21   ar
    22    21    22   ar
    23    22    23   ar
    24    23    24   ar
    25    24    25   ar
    26    20    25   ar
    27    17    26   ar
    28    26    27   ar
    29    14    27   ar
    30     5    28   ar
    31    28    29   ar
    32     2    29   ar
    33     1    30    1
    34     1    31    1
    35     1    32    1
    36     3    33    1
    37     4    34    1
    38     6    35    1
    39     7    36    1
    40    10    37    1
    41    11    38    1
    42    12    39    1
    43    12    40    1
    44    13    41    1
    45    15    42    1
    46    16    43    1
    47    19    44    1
    48    19    45    1
    49    21    46    1
    50    22    47    1
    51    23    48    1
    52    24    49    1
    53    25    50    1
    54    26    51    1
    55    27    52    1
