REMARK  10 active torsions:
REMARK  status: ('A' for Active; 'I' for Inactive)
REMARK    1  A    between atoms: C2_2  and  C3_3 
REMARK    2  A    between atoms: C3_3  and  C4_4 
REMARK    3  A    between atoms: C4_4  and  C5_5 
REMARK    4  A    between atoms: C5_5  and  C6_6 
REMARK    5  A    between atoms: C7_9  and  N3_10 
REMARK       I    between atoms: N3_10  and  C8_11 
REMARK    6  A    between atoms: C8_11  and  C9_13 
REMARK       I    between atoms: C9_13  and  N4_15 
REMARK    7  A    between atoms: N4_15  and  C10_16 
REMARK    8  A    between atoms: C10_16  and  C11_17 
REMARK    9  A    between atoms: C14_20  and  O3_21 
REMARK   10  A    between atoms: O3_21  and  C15_22 
ROOT
ATOM      1  C9  NON d   1       7.073  -6.650  -0.457  0.00  0.00     0.311 C 
ATOM      2  O2  NON d   1       7.191  -5.811  -1.339  0.00  0.00    -0.262 OA
ATOM      3  N4  NON d   1       8.140  -7.342   0.104  0.00  0.00    -0.349 N 
ATOM      4  H12 NON d   1       7.851  -7.915   0.892  0.00  0.00     0.163 HD
ENDROOT
BRANCH   1   5
ATOM      5  C8  NON d   1       5.718  -7.104   0.167  0.00  0.00     0.337 C 
ATOM      6  N3  NON d   1       4.620  -6.602  -0.398  0.00  0.00    -0.177 NA
ATOM      7  O1  NON d   1       5.772  -7.988   1.026  0.00  0.00    -0.260 OA
BRANCH   6   8
ATOM      8  C7  NON d   1       4.340  -5.307  -0.102  0.00  0.00     0.218 A 
ATOM      9  N2  NON d   1       4.937  -4.493   0.751  0.00  0.00    -0.121 NA
ATOM     10  N1  NON d   1       4.343  -3.237   0.807  0.00  0.00    -0.145 NA
ATOM     11  C6  NON d   1       3.323  -3.136  -0.023  0.00  0.00     0.101 A 
ATOM     12  S1  NON d   1       3.003  -4.577  -0.907  0.00  0.00    -0.031 SA
BRANCH  11  13
ATOM     13  C5  NON d   1       2.411  -1.956  -0.174  0.00  0.00     0.069 C 
BRANCH  13  14
ATOM     14  C4  NON d   1       3.061  -0.567  -0.070  0.00  0.00     0.007 C 
BRANCH  14  15
ATOM     15  C3  NON d   1       3.783  -0.066  -1.340  0.00  0.00     0.000 C 
BRANCH  15  16
ATOM     16  C2  NON d   1       5.141  -0.722  -1.482  0.00  0.00    -0.005 C 
ATOM     17  C1  NON d   1       6.059  -0.273  -2.635  0.00  0.00     0.005 C 
ENDBRANCH  15  16
ENDBRANCH  14  15
ENDBRANCH  13  14
ENDBRANCH  11  13
ENDBRANCH   6   8
ENDBRANCH   1   5
BRANCH   3  18
ATOM     18  C10 NON d   1       9.447  -6.746   0.075  0.00  0.00     0.161 C 
BRANCH  18  19
ATOM     19  C11 NON d   1      10.622  -7.696   0.007  0.00  0.00    -0.040 A 
ATOM     20  C12 NON d   1      11.912  -7.134  -0.009  0.00  0.00     0.011 A 
ATOM     21  C13 NON d   1      13.045  -7.927  -0.197  0.00  0.00     0.037 A 
ATOM     22  C14 NON d   1      12.908  -9.303  -0.343  0.00  0.00     0.074 A 
ATOM     23  C16 NON d   1      11.641  -9.886  -0.304  0.00  0.00     0.037 A 
ATOM     24  C17 NON d   1      10.502  -9.086  -0.126  0.00  0.00     0.011 A 
BRANCH  22  25
ATOM     25  O3  NON d   1      14.023 -10.011  -0.695  0.00  0.00    -0.290 OA
BRANCH  25  26
ATOM     26  C15 NON d   1      14.390 -10.987   0.271  0.00  0.00     0.505 C 
ATOM     27  F1  NON d   1      15.545 -11.555  -0.165  0.00  0.00    -0.184 F 
ATOM     28  F2  NON d   1      13.469 -11.980   0.306  0.00  0.00    -0.184 F 
ENDBRANCH  25  26
ENDBRANCH  22  25
ENDBRANCH  18  19
ENDBRANCH   3  18
TORSDOF 10
