REMARK  7 active torsions:
REMARK  status: ('A' for Active; 'I' for Inactive)
REMARK    1  A    between atoms: C2_2  and  C3_3 
REMARK    2  A    between atoms: C3_3  and  O1_4 
REMARK    3  A    between atoms: O1_4  and  C4_5 
REMARK    4  A    between atoms: C4_5  and  C5_7 
REMARK    5  A    between atoms: C8_10  and  N1_11 
REMARK    6  A    between atoms: N1_11  and  C9_12 
REMARK    7  A    between atoms: C9_12  and  N2_14 
REMARK       I    between atoms: N2_14  and  C10_15 
ROOT
ATOM      1  C5  NON d   1      -2.280   2.537   0.074  0.00  0.00     0.039 A 
ATOM      2  C6  NON d   1      -2.116   3.940   0.116  0.00  0.00     0.020 A 
ATOM      3  C7  NON d   1      -0.832   4.568   0.117  0.00  0.00     0.030 A 
ATOM      4  C8  NON d   1       0.365   3.831   0.100  0.00  0.00     0.034 A 
ATOM      5  C12 NON d   1       0.189   2.437   0.004  0.00  0.00     0.030 A 
ATOM      6  C13 NON d   1      -1.099   1.798  -0.000  0.00  0.00     0.020 A 
ENDROOT
BRANCH   4   7
ATOM      7  N1  NON d   1       1.649   4.548   0.131  0.00  0.00    -0.333 N 
ATOM      8  H10 NON d   1       1.557   5.543  -0.029  0.00  0.00     0.168 HD
BRANCH   7   9
ATOM      9  C9  NON d   1       2.938   4.107   0.543  0.00  0.00     0.178 C 
ATOM     10  S1  NON d   1       3.204   2.680   1.402  0.00  0.00    -0.040 SA
BRANCH   9  11
ATOM     11  N2  NON d   1       4.020   5.021   0.215  0.00  0.00    -0.304 N 
ATOM     12  C10 NON d   1       5.335   4.620   0.000  0.00  0.00     0.219 C 
ATOM     13  C11 NON d   1       6.668   5.390   0.000  0.00  0.00     0.117 C 
ATOM     14  O3  NON d   1       5.498   3.467  -0.455  0.00  0.00    -0.274 OA
ATOM     15  H11 NON d   1       3.805   5.998   0.108  0.00  0.00     0.171 HD
ENDBRANCH   9  11
ENDBRANCH   7   9
ENDBRANCH   4   7
BRANCH   1  16
ATOM     16  C4  NON d   1      -3.684   1.930   0.102  0.00  0.00     0.293 C 
ATOM     17  O2  NON d   1      -4.666   2.662   0.152  0.00  0.00    -0.259 OA
BRANCH  16  18
ATOM     18  O1  NON d   1      -3.768   0.542   0.079  0.00  0.00    -0.318 OA
BRANCH  18  19
ATOM     19  C3  NON d   1      -5.144   0.023   0.132  0.00  0.00     0.178 C 
BRANCH  19  20
ATOM     20  C2  NON d   1      -5.335  -1.540   0.000  0.00  0.00     0.022 C 
ATOM     21  C1  NON d   1      -4.684  -2.310   1.164  0.00  0.00     0.007 C 
ENDBRANCH  19  20
ENDBRANCH  18  19
ENDBRANCH  16  18
ENDBRANCH   1  16
TORSDOF 7
