@<TRIPOS>MOLECULE
*****
 47 49 0 0 0
SMALL
USER_CHARGES

@<TRIPOS>ATOM
      1 C1         -1.3337   -5.3900    0.0000 C.3     1  NONAME1    -0.0463
      2 C2         -1.3337   -6.9300    0.0000 C.3     1  NONAME1     0.0627
      3 S1          0.1870   -7.6765    0.7891 S.3     1  NONAME1    -0.1405
      4 C3          0.1602   -9.4462    0.2830 C.3     1  NONAME1     0.0712
      5 C4         -0.2913   -9.8127   -1.1411 C.2     1  NONAME1     0.2272
      6 O1         -0.2495   -9.0319   -2.0841 O.2     1  NONAME1    -0.2746
      7 N1         -0.6581  -11.1600   -1.2226 N.am    1  NONAME1    -0.2803
      8 C5         -1.2209  -11.8594   -2.3259 C.ar    1  NONAME1     0.1046
      9 C6         -1.1810  -13.2611   -2.2617 C.ar    1  NONAME1     0.1473
     10 F1         -0.6135  -13.8496   -1.1952 F       1  NONAME1    -0.2034
     11 C7         -1.7136  -14.0778   -3.2612 C.ar    1  NONAME1    -0.0244
     12 C8         -2.3224  -13.4932   -4.3664 C.ar    1  NONAME1    -0.0562
     13 C9         -2.3996  -12.1028   -4.4456 C.ar    1  NONAME1    -0.0244
     14 C10        -1.8591  -11.2957   -3.4329 C.ar    1  NONAME1     0.1473
     15 F2         -2.0593   -9.9784   -3.5346 F       1  NONAME1    -0.2034
     16 C11        -2.6643   -7.6590    0.2916 C.ar    1  NONAME1     0.1487
     17 N2         -2.5744   -8.9865    0.4311 N.ar    1  NONAME1    -0.1985
     18 C12        -3.6976   -9.6666    0.4586 C.ar    1  NONAME1     0.2172
     19 N3         -3.6242  -11.0497    0.4659 N.pl3   1  NONAME1    -0.3274
     20 N4         -4.8856   -9.1313    0.3633 N.ar    1  NONAME1    -0.1810
     21 C13        -4.9350   -7.8142    0.2131 C.ar    1  NONAME1     0.2241
     22 N5         -6.1903   -7.2106    0.0708 N.pl3   1  NONAME1    -0.2835
     23 C14        -7.4923   -7.7466   -0.0046 C.ar    1  NONAME1     0.0336
     24 C15        -7.7791   -9.1209   -0.0245 C.ar    1  NONAME1    -0.0405
     25 C16        -9.0926   -9.6060   -0.0477 C.ar    1  NONAME1    -0.0600
     26 C17       -10.1596   -8.7189   -0.0499 C.ar    1  NONAME1    -0.0616
     27 C18        -9.9087   -7.3503   -0.0304 C.ar    1  NONAME1    -0.0600
     28 C19        -8.5903   -6.8716   -0.0068 C.ar    1  NONAME1    -0.0405
     29 N6         -3.8437   -7.0296    0.1641 N.ar    1  NONAME1    -0.1981
     30 H1         -0.2352   -5.2517   -0.0388 H       1  NONAME1     0.0244
     31 H2         -1.3337   -3.8500    0.0000 H       1  NONAME1     0.0244
     32 H3         -1.6947   -5.2823    1.0438 H       1  NONAME1     0.0244
     33 H4         -1.1903   -7.1386   -1.0656 H       1  NONAME1     0.0489
     34 H5          1.1884   -9.8122    0.3786 H       1  NONAME1     0.0471
     35 H6         -0.4274  -10.0035    1.0202 H       1  NONAME1     0.0471
     36 H7         -0.3427  -11.7583   -0.4641 H       1  NONAME1     0.1550
     37 H8         -1.6535  -15.1582   -3.1670 H       1  NONAME1     0.0647
     38 H9         -2.7467  -14.1139   -5.1531 H       1  NONAME1     0.0619
     39 H10        -2.8985  -11.6298   -5.2879 H       1  NONAME1     0.0647
     40 H11        -4.5033  -11.4082    0.1120 H       1  NONAME1     0.1452
     41 H12        -2.8067  -11.3287   -0.0573 H       1  NONAME1     0.1452
     42 H13        -6.0929   -6.2153   -0.0570 H       1  NONAME1     0.1550
     43 H14        -6.9910   -9.8642   -0.0250 H       1  NONAME1     0.0636
     44 H15        -9.2721  -10.6789   -0.0579 H       1  NONAME1     0.0618
     45 H16       -11.1798   -9.0932   -0.0618 H       1  NONAME1     0.0618
     46 H17       -10.7414   -6.6516   -0.0267 H       1  NONAME1     0.0618
     47 H18        -8.4332   -5.7970    0.0200 H       1  NONAME1     0.0636
@<TRIPOS>BOND
     1     2     1    1
     2     2     3    1
     3     3     4    1
     4     4     5    1
     5     5     6    2
     6     5     7   am
     7     7     8    1
     8     8     9   ar
     9     9    10    1
    10     9    11   ar
    11    11    12   ar
    12    12    13   ar
    13    13    14   ar
    14     8    14   ar
    15    14    15    1
    16     2    16    1
    17    16    17   ar
    18    17    18   ar
    19    18    19    1
    20    18    20   ar
    21    20    21   ar
    22    21    22    1
    23    22    23    1
    24    23    24   ar
    25    24    25   ar
    26    25    26   ar
    27    26    27   ar
    28    27    28   ar
    29    23    28   ar
    30    21    29   ar
    31    16    29   ar
    32     1    30    1
    33     1    31    1
    34     1    32    1
    35     2    33    1
    36     4    34    1
    37     4    35    1
    38     7    36    1
    39    11    37    1
    40    12    38    1
    41    13    39    1
    42    19    40    1
    43    19    41    1
    44    22    42    1
    45    24    43    1
    46    25    44    1
    47    26    45    1
    48    27    46    1
    49    28    47    1
