@<TRIPOS>MOLECULE
*****
 56 59 0 0 0
SMALL
USER_CHARGES

@<TRIPOS>ATOM
      1 C1         -0.3196   -1.3028    0.0000 C.3     1  NONAME1    -0.0242
      2 C2          1.2204   -1.3028    0.0000 C.ar    1  NONAME1     0.0168
      3 N1          2.1498   -0.2673   -0.0010 N.ar    1  NONAME1    -0.3579
      4 C3          3.4694   -0.7535   -0.0035 C.ar    1  NONAME1     0.0470
      5 C4          4.7396   -0.1200   -0.0059 C.ar    1  NONAME1    -0.0371
      6 C5          5.9465   -0.9094   -0.0099 C.ar    1  NONAME1    -0.0476
      7 C6          5.9196   -2.3076   -0.0138 C.ar    1  NONAME1     0.0377
      8 C7          7.1338   -3.2772   -0.0348 C.2     1  NONAME1     0.2483
      9 O1          6.8547   -4.4754   -0.1069 O.2     1  NONAME1    -0.2699
     10 N2          8.4734   -2.8262    0.0320 N.am    1  NONAME1    -0.2815
     11 C8          9.6860   -3.6570    0.0188 C.ar    1  NONAME1     0.0352
     12 C9         10.9551   -3.0603    0.0940 C.ar    1  NONAME1    -0.0386
     13 C10        12.1774   -3.8274    0.0810 C.ar    1  NONAME1    -0.0373
     14 C11        12.2126   -5.2403    0.0061 C.ar    1  NONAME1     0.0522
     15 N3         13.5357   -5.8856   -0.0107 N.am    1  NONAME1    -0.2803
     16 C12        13.8963   -7.2052    0.3628 C.2     1  NONAME1     0.2483
     17 O2         13.1406   -7.9870    0.9327 O.2     1  NONAME1    -0.2699
     18 C13        15.3474   -7.7180    0.1572 C.ar    1  NONAME1     0.0388
     19 C14        16.4470   -6.8906   -0.0247 C.ar    1  NONAME1    -0.0495
     20 C15        17.7307   -7.4560   -0.1901 C.ar    1  NONAME1    -0.0592
     21 C16        17.9612   -8.8558   -0.1953 C.ar    1  NONAME1    -0.0369
     22 C17        16.9270   -9.7728    0.0000 C.ar    1  NONAME1     0.0886
     23 S1         16.9270  -11.3128    0.0000 S.O2    1  NONAME1    -0.0059
     24 C18        16.9270  -12.8528    0.0000 C.3     1  NONAME1     0.0596
     25 O3         16.5091  -11.3345   -1.4172 O.2     1  NONAME1    -0.1696
     26 O4         18.3729  -11.3665    0.3100 O.2     1  NONAME1    -0.1696
     27 C19        15.6255   -9.1322    0.1948 C.ar    1  NONAME1    -0.0248
     28 C20        10.9378   -5.8322   -0.1138 C.ar    1  NONAME1     0.0639
     29 Cl1        10.7113   -7.5024   -0.5140 Cl      1  NONAME1    -0.0816
     30 C21         9.7168   -5.0546   -0.0919 C.ar    1  NONAME1    -0.0203
     31 C22         4.6219   -2.8939   -0.0143 C.ar    1  NONAME1    -0.0402
     32 C23         3.3991   -2.1396   -0.0075 C.ar    1  NONAME1     0.0035
     33 C24         2.0008   -2.4785   -0.0061 C.ar    1  NONAME1    -0.0225
     34 C25         1.4827   -3.8800   -0.0184 C.3     1  NONAME1    -0.0375
     35 H1         -0.4090   -0.2004    0.1048 H       1  NONAME1     0.0292
     36 H2         -1.8596   -1.3028    0.0000 H       1  NONAME1     0.0292
     37 H3         -0.4038   -1.7426    1.0176 H       1  NONAME1     0.0292
     38 H4          1.9134    0.7157   -0.0020 H       1  NONAME1     0.1656
     39 H5          4.8081    0.9657   -0.0062 H       1  NONAME1     0.0638
     40 H6          6.8933   -0.3761   -0.0177 H       1  NONAME1     0.0626
     41 H7          8.6266   -1.8316    0.1140 H       1  NONAME1     0.1551
     42 H8         11.0412   -1.9768    0.1640 H       1  NONAME1     0.0637
     43 H9         13.1109   -3.2682    0.1463 H       1  NONAME1     0.0637
     44 H10        14.2997   -5.2536   -0.2028 H       1  NONAME1     0.1552
     45 H11        16.3579   -5.8099   -0.0233 H       1  NONAME1     0.0625
     46 H12        18.5863   -6.7931   -0.3247 H       1  NONAME1     0.0618
     47 H13        18.9816   -9.2030   -0.3604 H       1  NONAME1     0.0636
     48 H14        15.8161  -12.9679   -0.0111 H       1  NONAME1     0.0468
     49 H15        16.9270  -14.3928    0.0000 H       1  NONAME1     0.0468
     50 H16        17.1955  -12.9880    1.0770 H       1  NONAME1     0.0468
     51 H17        14.7497   -9.7770    0.3323 H       1  NONAME1     0.0644
     52 H18         8.7846   -5.6040   -0.2014 H       1  NONAME1     0.0651
     53 H19         4.5382   -3.9802   -0.0219 H       1  NONAME1     0.0632
     54 H20         0.5169   -3.9561    0.4892 H       1  NONAME1     0.0278
     55 H21         1.3631   -4.2262   -1.0493 H       1  NONAME1     0.0278
     56 H22         2.1733   -4.5577    0.4941 H       1  NONAME1     0.0278
@<TRIPOS>BOND
     1     1     2    1
     2     2     3   ar
     3     3     4   ar
     4     4     5   ar
     5     5     6   ar
     6     6     7   ar
     7     7     8    1
     8     8     9    2
     9     8    10   am
    10    10    11    1
    11    11    12   ar
    12    12    13   ar
    13    13    14   ar
    14    14    15    1
    15    15    16   am
    16    16    17    2
    17    16    18    1
    18    18    19   ar
    19    19    20   ar
    20    20    21   ar
    21    21    22   ar
    22    22    23    1
    23    23    24    1
    24    23    25    2
    25    23    26    2
    26    22    27   ar
    27    18    27   ar
    28    14    28   ar
    29    28    29    1
    30    28    30   ar
    31    11    30   ar
    32     7    31   ar
    33    31    32   ar
    34     4    32   ar
    35    32    33   ar
    36     2    33   ar
    37    33    34    1
    38     1    35    1
    39     1    36    1
    40     1    37    1
    41     3    38    1
    42     5    39    1
    43     6    40    1
    44    10    41    1
    45    12    42    1
    46    13    43    1
    47    15    44    1
    48    19    45    1
    49    20    46    1
    50    21    47    1
    51    24    48    1
    52    24    49    1
    53    24    50    1
    54    27    51    1
    55    30    52    1
    56    31    53    1
    57    34    54    1
    58    34    55    1
    59    34    56    1
