REMARK  5 active torsions:
REMARK  status: ('A' for Active; 'I' for Inactive)
REMARK    1  A    between atoms: C3_4  and  N2_5 
REMARK    2  A    between atoms: C6_9  and  N4_10 
REMARK    3  A    between atoms: N4_10  and  C7_11 
REMARK    4  A    between atoms: C7_11  and  C8_12 
REMARK    5  A    between atoms: C8_12  and  C9_13 
ROOT
ATOM      1  N4  NON d   1      -3.174  -0.048   0.429  0.00  0.00    -0.373 N 
ATOM      2  H11 NON d   1      -3.476   0.900   0.196  0.00  0.00     0.161 HD
ENDROOT
BRANCH   1   3
ATOM      3  C6  NON d   1      -4.272  -0.896   0.238  0.00  0.00     0.150 A 
ATOM      4  N3  NON d   1      -5.469  -0.195   0.139  0.00  0.00    -0.047 NA
ATOM      5  C3  NON d   1      -6.685  -0.845   0.031  0.00  0.00     0.703 A 
ATOM      6  N1  NON d   1      -6.573  -2.278  -0.058  0.00  0.00    -0.193 N 
ATOM      7  C2  NON d   1      -5.335  -3.080   0.000  0.00  0.00     0.032 A 
ATOM      8  H4  NON d   1      -7.450  -2.771  -0.172  0.00  0.00     0.184 HD
ATOM      9  C1  NON d   1      -5.335  -4.620   0.000  0.00  0.00     0.069 C 
ATOM     10  C17 NON d   1      -4.173  -2.319   0.228  0.00  0.00     0.007 A 
ATOM     11  C18 NON d   1      -2.890  -3.079   0.466  0.00  0.00     0.054 C 
BRANCH   5  12
ATOM     12  N2  NON d   1      -8.002   0.000   0.000  0.00  0.00    -0.225 N 
ATOM     13  C4  NON d   1      -9.225  -0.730   0.257  0.00  0.00     0.168 C 
ATOM     14  C5  NON d   1      -8.002   1.540   0.000  0.00  0.00     0.168 C 
ENDBRANCH   5  12
ENDBRANCH   1   3
BRANCH   1  15
ATOM     15  C7  NON d   1      -1.792  -0.384   0.046  0.00  0.00     0.129 C 
BRANCH  15  16
ATOM     16  C8  NON d   1      -0.889   0.825  -0.170  0.00  0.00     0.098 C 
BRANCH  16  17
ATOM     17  C9  NON d   1      -0.290   1.458   1.075  0.00  0.00     0.108 A 
ATOM     18  N5  NON d   1       0.917   1.925   1.034  0.00  0.00    -0.234 NA
ATOM     19  C10 NON d   1       1.411   2.606   2.163  0.00  0.00     0.074 A 
ATOM     20  C11 NON d   1       2.691   3.163   2.117  0.00  0.00     0.032 A 
ATOM     21  C15 NON d   1       0.651   2.779   3.321  0.00  0.00     0.061 A 
ATOM     22  C12 NON d   1       3.193   3.893   3.202  0.00  0.00     0.002 A 
ATOM     23  C13 NON d   1       2.417   4.067   4.349  0.00  0.00     0.001 A 
ATOM     24  C14 NON d   1       1.141   3.500   4.416  0.00  0.00     0.019 A 
ATOM     25  C16 NON d   1      -0.697   2.187   3.333  0.00  0.00     0.259 A 
ATOM     26  O1  NON d   1      -1.428   2.237   4.316  0.00  0.00    -0.267 OA
ATOM     27  N6  NON d   1      -1.095   1.574   2.172  0.00  0.00    -0.311 N 
ATOM     28  H20 NON d   1      -2.022   1.171   2.187  0.00  0.00     0.170 HD
ENDBRANCH  16  17
ENDBRANCH  15  16
ENDBRANCH   1  15
TORSDOF 5
