@<TRIPOS>MOLECULE
*****
 56 58 0 0 0
SMALL
USER_CHARGES

@<TRIPOS>ATOM
      1 C1          6.6684   -6.9300    0.0000 C.3     1  NONAME1    -0.0495
      2 C2          8.0021   -6.1600    0.0000 C.3     1  NONAME1     0.0102
      3 N1          9.2298   -6.9445   -0.0022 N.am    1  NONAME1    -0.2994
      4 C3         10.4041   -6.2237    0.2109 C.2     1  NONAME1     0.3039
      5 O1         10.3704   -5.0521    0.5728 O.2     1  NONAME1    -0.2525
      6 N2         11.5459   -6.9661   -0.0367 N.am    1  NONAME1    -0.2694
      7 C4         12.8846   -6.4767    0.0114 C.ar    1  NONAME1     0.0365
      8 C5         13.1753   -5.1087    0.1060 C.ar    1  NONAME1    -0.0403
      9 C6         14.4866   -4.6600    0.2436 C.ar    1  NONAME1    -0.0583
     10 C7         15.5285   -5.5783    0.2808 C.ar    1  NONAME1    -0.0404
     11 C8         15.2805   -6.9497    0.1229 C.ar    1  NONAME1     0.0354
     12 N3         16.4243   -7.7785    0.1605 N.am    1  NONAME1    -0.2814
     13 C9         16.5941   -9.0733   -0.3166 C.2     1  NONAME1     0.2489
     14 O2         15.7487   -9.7675   -0.8625 O.2     1  NONAME1    -0.2698
     15 C10        18.0182   -9.5565   -0.2021 C.ar    1  NONAME1     0.0478
     16 C11        19.0382   -8.6397   -0.5523 C.ar    1  NONAME1    -0.0489
     17 C12        20.3844   -8.9473   -0.3595 C.ar    1  NONAME1    -0.0610
     18 C13        20.7328  -10.1701    0.1953 C.ar    1  NONAME1    -0.0610
     19 C14        19.7378  -11.0992    0.5138 C.ar    1  NONAME1    -0.0502
     20 C15        18.3785  -10.8400    0.2570 C.ar    1  NONAME1     0.0343
     21 C16        17.3648  -11.8532    0.6460 C.2     1  NONAME1     0.1939
     22 O3         16.4702  -11.4694    1.3994 O.2     1  NONAME1    -0.2866
     23 C17        17.4095  -13.3155    0.2684 C.ar    1  NONAME1     0.0225
     24 C18        18.5509  -14.0322   -0.0996 C.ar    1  NONAME1    -0.0507
     25 C19        18.5204  -15.4375   -0.2035 C.ar    1  NONAME1    -0.0579
     26 C20        17.3378  -16.1700    0.0000 C.ar    1  NONAME1    -0.0475
     27 C21        17.3378  -17.7100    0.0000 C.3     1  NONAME1    -0.0395
     28 C22        16.1499  -15.4405    0.2123 C.ar    1  NONAME1    -0.0469
     29 C23        14.7968  -16.1000    0.2177 C.3     1  NONAME1    -0.0394
     30 C24        16.2071  -14.0341    0.3659 C.ar    1  NONAME1    -0.0478
     31 C25        13.9579   -7.3953   -0.0260 C.ar    1  NONAME1    -0.0192
     32 H1          6.0365   -6.0319   -0.1576 H       1  NONAME1     0.0245
     33 H2          5.3347   -7.7000    0.0000 H       1  NONAME1     0.0245
     34 H3          6.8397   -7.4298   -0.9756 H       1  NONAME1     0.0245
     35 H4          8.0158   -5.5293    0.8977 H       1  NONAME1     0.0460
     36 H5          8.0529   -5.4991   -0.8757 H       1  NONAME1     0.0460
     37 H6          9.3052   -7.6681   -0.7015 H       1  NONAME1     0.1502
     38 H7         11.4363   -7.9689   -0.0673 H       1  NONAME1     0.1564
     39 H8         12.3979   -4.3522    0.0831 H       1  NONAME1     0.0636
     40 H9         14.6867   -3.5942    0.3277 H       1  NONAME1     0.0619
     41 H10        16.5406   -5.1990    0.3963 H       1  NONAME1     0.0636
     42 H11        17.2483   -7.3263    0.5339 H       1  NONAME1     0.1551
     43 H12        18.7903   -7.6686   -0.9786 H       1  NONAME1     0.0625
     44 H13        21.1544   -8.2222   -0.6141 H       1  NONAME1     0.0618
     45 H14        21.7780  -10.4009    0.3917 H       1  NONAME1     0.0618
     46 H15        20.0463  -12.0108    1.0176 H       1  NONAME1     0.0625
     47 H16        19.5053  -13.5558   -0.2814 H       1  NONAME1     0.0625
     48 H17        19.4514  -15.9561   -0.4290 H       1  NONAME1     0.0620
     49 H18        16.9944  -17.7957    1.0530 H       1  NONAME1     0.0278
     50 H19        17.3378  -19.2500    0.0000 H       1  NONAME1     0.0278
     51 H20        18.4400  -17.8282    0.0255 H       1  NONAME1     0.0278
     52 H21        14.0585  -15.4822    0.7404 H       1  NONAME1     0.0278
     53 H22        14.4563  -16.2389   -0.8142 H       1  NONAME1     0.0278
     54 H23        14.8152  -17.0694    0.7217 H       1  NONAME1     0.0278
     55 H24        15.2881  -13.4842    0.5756 H       1  NONAME1     0.0627
     56 H25        13.7615   -8.4596   -0.1154 H       1  NONAME1     0.0655
@<TRIPOS>BOND
     1     1     2    1
     2     2     3    1
     3     3     4   am
     4     4     5    2
     5     4     6   am
     6     6     7    1
     7     7     8   ar
     8     8     9   ar
     9     9    10   ar
    10    10    11   ar
    11    11    12    1
    12    12    13   am
    13    13    14    2
    14    13    15    1
    15    15    16   ar
    16    16    17   ar
    17    17    18   ar
    18    18    19   ar
    19    19    20   ar
    20    15    20   ar
    21    20    21    1
    22    21    22    2
    23    21    23    1
    24    23    24   ar
    25    24    25   ar
    26    25    26   ar
    27    26    27    1
    28    26    28   ar
    29    28    29    1
    30    28    30   ar
    31    23    30   ar
    32    11    31   ar
    33     7    31   ar
    34     1    32    1
    35     1    33    1
    36     1    34    1
    37     2    35    1
    38     2    36    1
    39     3    37    1
    40     6    38    1
    41     8    39    1
    42     9    40    1
    43    10    41    1
    44    12    42    1
    45    16    43    1
    46    17    44    1
    47    18    45    1
    48    19    46    1
    49    24    47    1
    50    25    48    1
    51    27    49    1
    52    27    50    1
    53    27    51    1
    54    29    52    1
    55    29    53    1
    56    29    54    1
    57    30    55    1
    58    31    56    1
