REMARK  7 active torsions:
REMARK  status: ('A' for Active; 'I' for Inactive)
REMARK    1  A    between atoms: C2_2  and  C3_3 
REMARK    2  A    between atoms: C4_5  and  C5_6 
REMARK    3  A    between atoms: C9_11  and  N3_12 
REMARK    4  A    between atoms: C13_16  and  C14_17 
REMARK       I    between atoms: C14_17  and  N4_19 
REMARK    5  A    between atoms: N4_19  and  C15_20 
REMARK    6  A    between atoms: C15_20  and  C16_21 
REMARK    7  A    between atoms: C16_21  and  C17_22 
ROOT
ATOM      1  N3  NON d   1      -6.294  -9.548   0.045  0.00  0.00    -0.364 N 
ATOM      2  C10 NON d   1      -6.629 -10.973   0.108  0.00  0.00     0.124 C 
ATOM      3  C11 NON d   1      -8.120 -11.303   0.086  0.00  0.00     0.021 C 
ATOM      4  C12 NON d   1      -9.007 -10.176   0.597  0.00  0.00     0.017 C 
ATOM      5  C13 NON d   1      -8.756  -8.943  -0.253  0.00  0.00     0.096 C 
ATOM      6  C23 NON d   1      -7.286  -8.525  -0.249  0.00  0.00     0.138 C 
ENDROOT
BRANCH   1   7
ATOM      7  C9  NON d   1      -4.927  -9.237   0.093  0.00  0.00     0.139 A 
ATOM      8  N2  NON d   1      -4.114 -10.318   0.298  0.00  0.00    -0.242 NA
ATOM      9  C8  NON d   1      -2.774 -10.174   0.378  0.00  0.00     0.119 A 
ATOM     10  C7  NON d   1      -2.133  -8.964   0.284  0.00  0.00     0.020 A 
ATOM     11  C6  NON d   1      -2.925  -7.845   0.089  0.00  0.00     0.021 A 
ATOM     12  C5  NON d   1      -4.329  -7.956  -0.026  0.00  0.00     0.060 A 
BRANCH  12  13
ATOM     13  C4  NON d   1      -5.005  -6.702  -0.338  0.00  0.00     0.193 A 
ATOM     14  N1  NON d   1      -4.994  -5.610   0.514  0.00  0.00    -0.204 NA
ATOM     15  C3  NON d   1      -5.558  -4.667  -0.212  0.00  0.00     0.172 A 
ATOM     16  O2  NON d   1      -5.895  -5.090  -1.464  0.00  0.00    -0.196 OA
ATOM     17  N5  NON d   1      -5.481  -6.412  -1.567  0.00  0.00    -0.105 NA
BRANCH  15  18
ATOM     18  C2  NON d   1      -5.534  -3.195   0.000  0.00  0.00     0.084 C 
ATOM     19  C1  NON d   1      -6.868  -2.425   0.000  0.00  0.00     0.013 C 
ENDBRANCH  15  18
ENDBRANCH  12  13
ENDBRANCH   1   7
BRANCH   5  20
ATOM     20  C14 NON d   1      -9.608  -7.739   0.148  0.00  0.00     0.223 C 
ATOM     21  O1  NON d   1      -9.133  -6.668   0.521  0.00  0.00    -0.273 OA
ATOM     22  N4  NON d   1     -10.968  -7.901   0.003  0.00  0.00    -0.360 N 
ATOM     23  H16 NON d   1     -11.313  -8.699  -0.514  0.00  0.00     0.162 HD
BRANCH  22  24
ATOM     24  C15 NON d   1     -11.810  -6.721   0.114  0.00  0.00     0.127 C 
BRANCH  24  25
ATOM     25  C16 NON d   1     -13.309  -7.012   0.055  0.00  0.00     0.053 C 
BRANCH  25  26
ATOM     26  C17 NON d   1     -13.974  -7.641   1.264  0.00  0.00    -0.082 C 
ATOM     27  C18 NON d   1     -13.335  -8.039   2.379  0.00  0.00    -0.024 C 
ATOM     28  C19 NON d   1     -14.015  -8.648   3.568  0.00  0.00     0.027 C 
ATOM     29  C20 NON d   1     -15.425  -9.152   3.274  0.00  0.00     0.004 C 
ATOM     30  C21 NON d   1     -16.219  -8.189   2.402  0.00  0.00     0.005 C 
ATOM     31  C22 NON d   1     -15.476  -7.768   1.132  0.00  0.00     0.034 C 
ENDBRANCH  25  26
ENDBRANCH  24  25
ENDBRANCH  22  24
ENDBRANCH   5  20
TORSDOF 7
