@<TRIPOS>MOLECULE
*****
 38 39 0 0 0
SMALL
USER_CHARGES

@<TRIPOS>ATOM
      1 C1          0.1992   13.5150    0.0000 C.3     1  NONAME1    -0.0389
      2 C2         -1.1345   12.7450    0.0000 C.ar    1  NONAME1    -0.0366
      3 C3         -1.2126   11.3358   -0.0944 C.ar    1  NONAME1    -0.0368
      4 C4         -2.4502   10.6717   -0.0132 C.ar    1  NONAME1     0.0341
      5 N1         -2.4644    9.2522   -0.0452 N.am    1  NONAME1    -0.2789
      6 C5         -3.5730    8.4310    0.1703 C.2     1  NONAME1     0.2863
      7 O1         -4.6923    8.8558    0.4428 O.2     1  NONAME1    -0.2664
      8 C6         -3.3329    7.0049    0.0658 C.ar    1  NONAME1     0.2219
      9 C7         -2.2681    6.1942   -0.2685 C.ar    1  NONAME1     0.0132
     10 C8         -2.7741    4.8655   -0.1819 C.ar    1  NONAME1     0.0869
     11 C9         -2.0887    3.5586   -0.4923 C.3     1  NONAME1    -0.0010
     12 C10        -2.8041    2.3414    0.1145 C.3     1  NONAME1    -0.0571
     13 C11        -0.6244    3.5448   -0.0446 C.3     1  NONAME1    -0.0571
     14 N2         -4.0609    4.8803    0.1804 N.ar    1  NONAME1    -0.0822
     15 O2         -4.4028    6.2012    0.3400 O.2     1  NONAME1    -0.3497
     16 C12        -3.6095   11.4418    0.1155 C.ar    1  NONAME1    -0.0397
     17 C13        -3.5498   12.8354    0.1924 C.ar    1  NONAME1    -0.0476
     18 C14        -2.3221   13.4976    0.1343 C.ar    1  NONAME1     0.0395
     19 C15        -2.2932   14.9840    0.2698 C.2     1  NONAME1     0.2418
     20 N3         -3.3684   15.6749   -0.2200 N.am    1  NONAME1    -0.3253
     21 O3         -1.3565   15.5864    0.7787 O.2     1  NONAME1    -0.2704
     22 H1          0.7565   12.7469    0.5727 H       1  NONAME1     0.0278
     23 H2          1.5329   14.2850    0.0000 H       1  NONAME1     0.0278
     24 H3          0.3701   13.3764   -1.0872 H       1  NONAME1     0.0278
     25 H4         -0.2915   10.7663   -0.1923 H       1  NONAME1     0.0639
     26 H5         -1.5696    8.8016   -0.1747 H       1  NONAME1     0.1552
     27 H6         -1.2745    6.4999   -0.5549 H       1  NONAME1     0.0676
     28 H7         -2.1067    3.4381   -1.5838 H       1  NONAME1     0.0360
     29 H8         -3.8312    2.2547   -0.2581 H       1  NONAME1     0.0236
     30 H9         -2.8491    2.4087    1.2078 H       1  NONAME1     0.0236
     31 H10        -2.2855    1.4122   -0.1458 H       1  NONAME1     0.0236
     32 H11        -0.1532    2.5859   -0.2879 H       1  NONAME1     0.0236
     33 H12        -0.5367    3.7014    1.0362 H       1  NONAME1     0.0236
     34 H13        -0.0477    4.3281   -0.5466 H       1  NONAME1     0.0236
     35 H14        -4.5987   10.9991    0.1726 H       1  NONAME1     0.0636
     36 H15        -4.4787   13.3796    0.3400 H       1  NONAME1     0.0626
     37 H16        -3.3175   16.6861   -0.1853 H       1  NONAME1     0.1453
     38 H17        -4.0832   15.2549   -0.7973 H       1  NONAME1     0.1453
@<TRIPOS>BOND
     1     1     2    1
     2     2     3   ar
     3     3     4   ar
     4     4     5    1
     5     5     6   am
     6     6     7    2
     7     6     8    1
     8     8     9   ar
     9     9    10   ar
    10    10    11    1
    11    11    12    1
    12    11    13    1
    13    10    14   ar
    14    14    15   ar
    15     8    15   ar
    16     4    16   ar
    17    16    17   ar
    18    17    18   ar
    19     2    18   ar
    20    18    19    1
    21    19    20   am
    22    19    21    2
    23     1    22    1
    24     1    23    1
    25     1    24    1
    26     3    25    1
    27     5    26    1
    28     9    27    1
    29    11    28    1
    30    12    29    1
    31    12    30    1
    32    12    31    1
    33    13    32    1
    34    13    33    1
    35    13    34    1
    36    16    35    1
    37    17    36    1
    38    20    37    1
    39    20    38    1
