REMARK  13 active torsions:
REMARK  status: ('A' for Active; 'I' for Inactive)
REMARK    1  A    between atoms: C2_2  and  C3_3 
REMARK    2  A    between atoms: C3_3  and  O1_4 
REMARK    3  A    between atoms: O1_4  and  C4_5 
REMARK    4  A    between atoms: C4_5  and  C5_7 
REMARK    5  A    between atoms: C5_7  and  C6_8 
REMARK    6  A    between atoms: C6_8  and  C7_9 
REMARK       I    between atoms: C7_9  and  N1_11 
REMARK    7  A    between atoms: N1_11  and  C8_12 
REMARK    8  A    between atoms: C8_12  and  N2_14 
REMARK    9  A    between atoms: N2_14  and  N3_15 
REMARK       I    between atoms: N3_15  and  C9_16 
REMARK   10  A    between atoms: C9_16  and  C10_18 
REMARK   11  A    between atoms: C10_18  and  C11_19 
REMARK   12  A    between atoms: C11_19  and  C12_20 
REMARK       I    between atoms: C12_20  and  N4_22 
REMARK   13  A    between atoms: N4_22  and  C13_23 
ROOT
ATOM      1  N3  NON d   1      22.390 -19.227   0.070  0.00  0.00    -0.268 N 
ATOM      2  C9  NON d   1      23.520 -18.405   0.085  0.00  0.00     0.236 C 
ATOM      3  O4  NON d   1      23.476 -17.181   0.158  0.00  0.00    -0.272 OA
ATOM      4  H14 NON d   1      22.472 -20.247   0.044  0.00  0.00     0.190 HD
ENDROOT
BRANCH   1   5
ATOM      5  N2  NON d   1      21.033 -18.744   0.209  0.00  0.00    -0.273 N 
ATOM      6  H13 NON d   1      20.908 -17.759  -0.015  0.00  0.00     0.189 HD
BRANCH   5   7
ATOM      7  C8  NON d   1      19.983 -19.694   0.204  0.00  0.00     0.193 C 
ATOM      8  S1  NON d   1      20.318 -21.346   0.191  0.00  0.00    -0.039 SA
BRANCH   7   9
ATOM      9  N1  NON d   1      18.686 -19.135   0.255  0.00  0.00    -0.303 N 
ATOM     10  C7  NON d   1      17.434 -19.803   0.159  0.00  0.00     0.224 C 
ATOM     11  O3  NON d   1      17.283 -20.941  -0.279  0.00  0.00    -0.273 OA
ATOM     12  H12 NON d   1      18.649 -18.153   0.488  0.00  0.00     0.171 HD
BRANCH  10  13
ATOM     13  C6  NON d   1      16.202 -18.962   0.537  0.00  0.00     0.113 C 
BRANCH  13  14
ATOM     14  C5  NON d   1      14.834 -19.706   0.355  0.00  0.00     0.120 C 
BRANCH  14  15
ATOM     15  C4  NON d   1      14.322 -20.447   1.596  0.00  0.00     0.259 C 
ATOM     16  O2  NON d   1      14.915 -20.436   2.669  0.00  0.00    -0.265 OA
BRANCH  15  17
ATOM     17  O1  NON d   1      13.101 -21.077   1.388  0.00  0.00    -0.321 OA
BRANCH  17  18
ATOM     18  C3  NON d   1      12.601 -21.804   2.549  0.00  0.00     0.178 C 
BRANCH  18  19
ATOM     19  C2  NON d   1      11.321 -22.688   2.328  0.00  0.00     0.022 C 
ATOM     20  C1  NON d   1       9.987 -21.918   2.292  0.00  0.00     0.007 C 
ENDBRANCH  18  19
ENDBRANCH  17  18
ENDBRANCH  15  17
ENDBRANCH  14  15
ENDBRANCH  13  14
ENDBRANCH  10  13
ENDBRANCH   7   9
ENDBRANCH   5   7
ENDBRANCH   1   5
BRANCH   2  21
ATOM     21  C10 NON d   1      24.824 -19.220  -0.009  0.00  0.00     0.114 C 
BRANCH  21  22
ATOM     22  C11 NON d   1      26.157 -18.444  -0.002  0.00  0.00     0.112 C 
BRANCH  22  23
ATOM     23  C12 NON d   1      27.360 -19.370  -0.291  0.00  0.00     0.222 C 
ATOM     24  O5  NON d   1      27.196 -20.442  -0.864  0.00  0.00    -0.273 OA
ATOM     25  N4  NON d   1      28.586 -18.827   0.076  0.00  0.00    -0.327 N 
ATOM     26  H19 NON d   1      28.569 -17.827   0.239  0.00  0.00     0.169 HD
BRANCH  25  27
ATOM     27  C13 NON d   1      29.900 -19.393  -0.006  0.00  0.00     0.042 A 
ATOM     28  C14 NON d   1      30.942 -18.438  -0.054  0.00  0.00     0.030 A 
ATOM     29  C15 NON d   1      32.286 -18.804  -0.176  0.00  0.00     0.004 A 
ATOM     30  C16 NON d   1      32.624 -20.144  -0.260  0.00  0.00     0.024 A 
ATOM     31  C17 NON d   1      31.623 -21.113  -0.180  0.00  0.00     0.042 A 
ATOM     32 Cl1  NON d   1      32.155 -22.761  -0.300  0.00  0.00    -0.084 Cl
ATOM     33  C18 NON d   1      30.255 -20.764  -0.004  0.00  0.00    -0.013 A 
ATOM     34  C19 NON d   1      29.264 -21.873   0.221  0.00  0.00     0.052 C 
ENDBRANCH  25  27
ENDBRANCH  22  23
ENDBRANCH  21  22
ENDBRANCH   2  21
TORSDOF 13
