@<TRIPOS>MOLECULE
*****
 44 45 0 0 0
SMALL
USER_CHARGES

@<TRIPOS>ATOM
      1 C1         -1.3337  -13.0900    0.0000 C.3     1  NONAME1     0.0788
      2 O1         -1.3337  -11.5500    0.0000 O.3     1  NONAME1    -0.4951
      3 C2         -0.1250  -10.8485   -0.0560 C.ar    1  NONAME1     0.1201
      4 C3         -0.1941   -9.4335   -0.0444 C.ar    1  NONAME1    -0.0192
      5 C4          0.9574   -8.5645   -0.1770 C.ar    1  NONAME1    -0.0462
      6 C5          2.2489   -9.0799   -0.3330 C.ar    1  NONAME1     0.0370
      7 C6          3.4837   -8.2352   -0.7733 C.2     1  NONAME1     0.2455
      8 O2          4.0395   -8.6211   -1.7964 O.2     1  NONAME1    -0.2702
      9 N1          3.9359   -7.1288   -0.0201 N.am    1  NONAME1    -0.2895
     10 C7          5.3347   -6.1600    0.0000 C.3     1  NONAME1     0.1364
     11 N2          5.6394   -4.7712   -0.4324 N.am    1  NONAME1    -0.3047
     12 C8          6.4715   -3.9481    0.3273 C.2     1  NONAME1     0.1360
     13 S1          6.9680   -4.3329    1.8856 S.2     1  NONAME1    -0.0185
     14 N3          6.7264   -2.7552   -0.3174 N.am    1  NONAME1    -0.2969
     15 C9          7.8573   -1.9169   -0.1427 C.ar    1  NONAME1     0.0326
     16 C10         7.6816   -0.5362   -0.2543 C.ar    1  NONAME1    -0.0397
     17 C11         8.7820    0.3239   -0.1671 C.ar    1  NONAME1    -0.0459
     18 C12        10.0816   -0.1789   -0.0040 C.ar    1  NONAME1     0.0633
     19 C13        11.2758    0.7540    0.0393 C.2     1  NONAME1     0.3865
     20 O3         11.0316    1.9959   -0.0412 O.co2   1  NONAME1    -0.2406
     21 O4         12.4232    0.2171    0.1425 O.co2   1  NONAME1    -0.2406
     22 C14        10.2442   -1.5674    0.0990 C.ar    1  NONAME1    -0.0459
     23 C15         9.1437   -2.4304    0.0349 C.ar    1  NONAME1    -0.0397
     24 C16         6.6684   -6.9300    0.0000 C.3     1  NONAME1     0.2247
     25 Cl1         5.9606   -8.5550    1.0363 Cl      1  NONAME1    -0.0796
     26 Cl2         6.5198   -7.3254   -1.9532 Cl      1  NONAME1    -0.0796
     27 Cl3         8.0021   -7.7000    0.0000 Cl      1  NONAME1    -0.0796
     28 C17         2.3199  -10.4979   -0.3199 C.ar    1  NONAME1    -0.0462
     29 C18         1.1656  -11.3648   -0.1693 C.ar    1  NONAME1    -0.0192
     30 H1         -2.4287  -13.1510    0.1274 H       1  NONAME1     0.0660
     31 H2         -1.3337  -14.6300    0.0000 H       1  NONAME1     0.0660
     32 H3         -1.1158  -13.1638   -1.0817 H       1  NONAME1     0.0660
     33 H4         -1.1794   -8.9688    0.0275 H       1  NONAME1     0.0654
     34 H5          0.7938   -7.4906   -0.2332 H       1  NONAME1     0.0626
     35 H6          3.4573   -7.0637    0.8698 H       1  NONAME1     0.1509
     36 H7          4.0010   -5.3900    0.0000 H       1  NONAME1     0.0750
     37 H8          5.5840   -4.5783   -1.4261 H       1  NONAME1     0.1496
     38 H9          5.9026   -2.2886   -0.6737 H       1  NONAME1     0.1538
     39 H10         6.6977   -0.0988   -0.3827 H       1  NONAME1     0.0636
     40 H11         8.6406    1.4026   -0.2353 H       1  NONAME1     0.0626
     41 H12        11.2499   -1.9733    0.2113 H       1  NONAME1     0.0626
     42 H13         9.3320   -3.4973    0.0787 H       1  NONAME1     0.0636
     43 H14         3.2932  -10.9685   -0.4708 H       1  NONAME1     0.0626
     44 H15         1.3291  -12.4397   -0.1869 H       1  NONAME1     0.0654
@<TRIPOS>BOND
     1     1     2    1
     2     2     3    1
     3     3     4   ar
     4     4     5   ar
     5     5     6   ar
     6     6     7    1
     7     7     8    2
     8     7     9   am
     9    10     9    1
    10    10    11    1
    11    11    12    1
    12    12    13    2
    13    12    14    1
    14    14    15    1
    15    15    16   ar
    16    16    17   ar
    17    17    18   ar
    18    18    19    1
    19    19    20   ar
    20    19    21   ar
    21    18    22   ar
    22    22    23   ar
    23    15    23   ar
    24    10    24    1
    25    24    25    1
    26    24    26    1
    27    24    27    1
    28     6    28   ar
    29    28    29   ar
    30     3    29   ar
    31     1    30    1
    32     1    31    1
    33     1    32    1
    34     4    33    1
    35     5    34    1
    36     9    35    1
    37    10    36    1
    38    11    37    1
    39    14    38    1
    40    16    39    1
    41    17    40    1
    42    22    41    1
    43    23    42    1
    44    28    43    1
    45    29    44    1
