@<TRIPOS>MOLECULE
*****
 41 42 0 0 0
SMALL
USER_CHARGES

@<TRIPOS>ATOM
      1 C1          2.6674  -13.8600    0.0000 C.3     1  NONAME1    -0.0397
      2 C2          2.6674  -12.3200    0.0000 C.ar    1  NONAME1    -0.0497
      3 C3          1.4952  -11.5596   -0.0130 C.ar    1  NONAME1    -0.0588
      4 C4          1.5703  -10.1677   -0.0333 C.ar    1  NONAME1    -0.0608
      5 C5          2.8136   -9.5284   -0.0502 C.ar    1  NONAME1    -0.0496
      6 C6          4.0072  -10.2667   -0.0567 C.ar    1  NONAME1     0.0370
      7 C7          5.2943   -9.4991   -0.0764 C.2     1  NONAME1     0.2445
      8 O1          5.2663   -8.2704   -0.1203 O.2     1  NONAME1    -0.2702
      9 N1          6.4943  -10.1812   -0.0361 N.am    1  NONAME1    -0.3027
     10 C8          7.7416   -9.4320   -0.0252 C.3     1  NONAME1     0.0899
     11 C9          8.9907  -10.3146   -0.0031 C.2     1  NONAME1     0.2463
     12 O2          8.9476  -11.5446    0.0104 O.2     1  NONAME1    -0.2726
     13 N2         10.1624   -9.5803    0.0035 N.am    1  NONAME1    -0.2328
     14 N3         11.4023  -10.2229    0.0165 N.am    1  NONAME1    -0.2302
     15 C10        12.5434   -9.4452    0.0054 C.2     1  NONAME1     0.2637
     16 O3         12.4845   -8.2156   -0.0031 O.2     1  NONAME1    -0.2685
     17 C11        13.8650  -10.1481    0.0055 C.ar    1  NONAME1     0.0795
     18 C12        15.0198   -9.3450    0.0010 C.ar    1  NONAME1    -0.0460
     19 C13        16.2941   -9.9186   -0.0017 C.ar    1  NONAME1    -0.0608
     20 C14        16.4312  -11.3037    0.0003 C.ar    1  NONAME1    -0.0583
     21 C15        15.2970  -12.1167    0.0051 C.ar    1  NONAME1    -0.0194
     22 C16        14.0202  -11.5421    0.0077 C.ar    1  NONAME1     0.1290
     23 O4         12.9274  -12.3684    0.0120 O.3     1  NONAME1    -0.5060
     24 C17         3.9228  -11.6642   -0.0430 C.ar    1  NONAME1    -0.0467
     25 H1          1.6296  -13.9681    0.3773 H       1  NONAME1     0.0278
     26 H2          2.6674  -15.4000    0.0000 H       1  NONAME1     0.0278
     27 H3          3.3295  -13.9504    0.8878 H       1  NONAME1     0.0278
     28 H4          0.5192  -12.0383   -0.0062 H       1  NONAME1     0.0620
     29 H5          0.6596   -9.5736   -0.0369 H       1  NONAME1     0.0618
     30 H6          2.8456   -8.4399   -0.0619 H       1  NONAME1     0.0625
     31 H7          6.5610  -11.1886    0.0252 H       1  NONAME1     0.1495
     32 H8          7.7459   -8.7913    0.8636 H       1  NONAME1     0.0558
     33 H9          7.7700   -8.7994   -0.9194 H       1  NONAME1     0.0558
     34 H10        10.1926   -8.5608   -0.0112 H       1  NONAME1     0.1728
     35 H11        11.4314  -11.2443    0.0164 H       1  NONAME1     0.1731
     36 H12        14.9313   -8.2594   -0.0009 H       1  NONAME1     0.0626
     37 H13        17.1765   -9.2821   -0.0053 H       1  NONAME1     0.0618
     38 H14        17.4233  -11.7503   -0.0020 H       1  NONAME1     0.0619
     39 H15        15.4297  -13.1951    0.0066 H       1  NONAME1     0.0654
     40 H16        13.2291  -13.2945    0.0118 H       1  NONAME1     0.2922
     41 H17         4.8206  -12.2744   -0.0595 H       1  NONAME1     0.0628
@<TRIPOS>BOND
     1     1     2    1
     2     2     3   ar
     3     3     4   ar
     4     4     5   ar
     5     5     6   ar
     6     6     7    1
     7     7     8    2
     8     7     9   am
     9     9    10    1
    10    10    11    1
    11    11    12    2
    12    11    13   am
    13    13    14    1
    14    14    15   am
    15    15    16    2
    16    15    17    1
    17    17    18   ar
    18    18    19   ar
    19    19    20   ar
    20    20    21   ar
    21    21    22   ar
    22    17    22   ar
    23    22    23    1
    24     6    24   ar
    25     2    24   ar
    26     1    25    1
    27     1    26    1
    28     1    27    1
    29     3    28    1
    30     4    29    1
    31     5    30    1
    32     9    31    1
    33    10    32    1
    34    10    33    1
    35    13    34    1
    36    14    35    1
    37    18    36    1
    38    19    37    1
    39    20    38    1
    40    21    39    1
    41    23    40    1
    42    24    41    1
