@<TRIPOS>MOLECULE
*****
 51 52 0 0 0
SMALL
USER_CHARGES

@<TRIPOS>ATOM
      1 C1          8.0021  -13.8600    0.0000 C.3     1  NONAME1    -0.0463
      2 C2          8.0021  -12.3200    0.0000 C.3     1  NONAME1     0.0257
      3 C3          6.9977  -11.1656    0.3825 C.3     1  NONAME1    -0.0094
      4 C4          5.9455  -11.4138    1.4401 C.ar    1  NONAME1    -0.0454
      5 C5          6.2022  -12.2008    2.5671 C.ar    1  NONAME1    -0.0551
      6 C6          5.1978  -12.4228    3.5130 C.ar    1  NONAME1    -0.0199
      7 C7          3.9487  -11.8340    3.3528 C.ar    1  NONAME1     0.1169
      8 O1          3.0004  -12.0817    4.3000 O.3     1  NONAME1    -0.5068
      9 C8          3.6849  -11.0180    2.2600 C.ar    1  NONAME1    -0.0199
     10 C9          4.6836  -10.8075    1.3078 C.ar    1  NONAME1    -0.0551
     11 N1          9.3358  -11.5500    0.0000 N.am    1  NONAME1    -0.2965
     12 C10        10.4465  -11.9394    0.6866 C.2     1  NONAME1     0.2999
     13 O2         10.4387  -12.7258    1.6198 O.2     1  NONAME1    -0.2529
     14 N2         11.6074  -11.3969    0.1675 N.am    1  NONAME1    -0.2968
     15 C11        12.8762  -12.0619    0.4562 C.3     1  NONAME1     0.0423
     16 C12        14.0907  -11.1215    0.5064 C.3     1  NONAME1     0.1046
     17 O3         14.6082  -10.9312   -0.8188 O.3     1  NONAME1    -0.3869
     18 C13        15.1728  -11.7362    1.4146 C.3     1  NONAME1     0.1169
     19 O4         16.3289  -10.8883    1.4210 O.3     1  NONAME1    -0.4894
     20 C14        17.3116  -11.1884    2.3296 C.ar    1  NONAME1     0.1208
     21 C15        18.4805  -10.4284    2.2031 C.ar    1  NONAME1    -0.0178
     22 C16        19.5502  -10.5992    3.0899 C.ar    1  NONAME1    -0.0280
     23 C17        19.4447  -11.5390    4.1204 C.ar    1  NONAME1     0.1264
     24 N3         20.5478  -11.7092    5.0754 N.pl3   1  NONAME1     0.0564
     25 O5         21.5500  -10.9955    4.9310 O.2     1  NONAME1    -0.1261
     26 O6         20.4075  -12.5543    5.9711 O.2     1  NONAME1    -0.1261
     27 C18        18.2869  -12.3141    4.2515 C.ar    1  NONAME1    -0.0280
     28 C19        17.2271  -12.1402    3.3506 C.ar    1  NONAME1    -0.0178
     29 H1          8.1107  -13.9548   -1.1051 H       1  NONAME1     0.0248
     30 H2          8.0021  -15.4000    0.0000 H       1  NONAME1     0.0248
     31 H3          8.9973  -14.0041    0.4435 H       1  NONAME1     0.0248
     32 H4          6.6684  -13.0900    0.0000 H       1  NONAME1     0.0499
     33 H5          7.5336  -10.2630    0.7063 H       1  NONAME1     0.0331
     34 H6          6.4972  -10.8843   -0.5557 H       1  NONAME1     0.0331
     35 H7          7.1788  -12.6601    2.7144 H       1  NONAME1     0.0621
     36 H8          5.3949  -13.0530    4.3752 H       1  NONAME1     0.0654
     37 H9          2.1850  -11.6182    4.0502 H       1  NONAME1     0.2921
     38 H10         2.7184  -10.5429    2.1302 H       1  NONAME1     0.0654
     39 H11         4.4684  -10.1676    0.4543 H       1  NONAME1     0.0621
     40 H12         9.4305  -10.7966   -0.6628 H       1  NONAME1     0.1505
     41 H13        11.5421  -10.9650   -0.7419 H       1  NONAME1     0.1503
     42 H14        13.0100  -12.8086   -0.3369 H       1  NONAME1     0.0489
     43 H15        12.7815  -12.5999    1.4044 H       1  NONAME1     0.0489
     44 H16        13.8138  -10.1310    0.8839 H       1  NONAME1     0.0643
     45 H17        15.4912  -10.5294   -0.7066 H       1  NONAME1     0.2100
     46 H18        14.7524  -11.8224    2.4227 H       1  NONAME1     0.0723
     47 H19        15.4688  -12.7220    1.0355 H       1  NONAME1     0.0723
     48 H20        18.5600   -9.6915    1.4065 H       1  NONAME1     0.0655
     49 H21        20.4444   -9.9918    2.9668 H       1  NONAME1     0.0641
     50 H22        18.1868  -13.0484    5.0490 H       1  NONAME1     0.0641
     51 H23        16.3473  -12.7600    3.4911 H       1  NONAME1     0.0655
@<TRIPOS>BOND
     1     2     1    1
     2     2     3    1
     3     3     4    1
     4     4     5   ar
     5     5     6   ar
     6     6     7   ar
     7     7     8    1
     8     7     9   ar
     9     9    10   ar
    10     4    10   ar
    11     2    11    1
    12    11    12   am
    13    12    13    2
    14    12    14   am
    15    14    15    1
    16    16    15    1
    17    16    17    1
    18    16    18    1
    19    18    19    1
    20    19    20    1
    21    20    21   ar
    22    21    22   ar
    23    22    23   ar
    24    23    24    1
    25    24    25    2
    26    24    26    1
    27    23    27   ar
    28    27    28   ar
    29    20    28   ar
    30     1    29    1
    31     1    30    1
    32     1    31    1
    33     2    32    1
    34     3    33    1
    35     3    34    1
    36     5    35    1
    37     6    36    1
    38     8    37    1
    39     9    38    1
    40    10    39    1
    41    11    40    1
    42    14    41    1
    43    15    42    1
    44    15    43    1
    45    16    44    1
    46    17    45    1
    47    18    46    1
    48    18    47    1
    49    21    48    1
    50    22    49    1
    51    27    50    1
    52    28    51    1
