REMARK  8 active torsions:
REMARK  status: ('A' for Active; 'I' for Inactive)
REMARK    1  A    between atoms: C1_2  and  C2_3 
REMARK       I    between atoms: C1_2  and  N5_25 
REMARK    2  A    between atoms: C2_3  and  S1_4 
REMARK    3  A    between atoms: C3_5  and  S1_4 
REMARK    4  A    between atoms: C4_8  and  C5_9 
REMARK    5  A    between atoms: N4_18  and  C13_19 
REMARK    6  A    between atoms: N5_25  and  C19_26 
REMARK    7  A    between atoms: C19_26  and  C20_27 
REMARK    8  A    between atoms: C20_27  and  C21_28 
ROOT
ATOM      1  C3  NON d   1      -1.995  -7.437   0.075  0.00  0.00     0.164 C 
ATOM      2  N1  NON d   1      -3.085  -7.987  -0.433  0.00  0.00    -0.179 NA
ATOM      3  N2  NON d   1      -3.966  -6.967  -0.727  0.00  0.00    -0.192 NA
ATOM      4  C4  NON d   1      -3.219  -5.694  -0.629  0.00  0.00     0.199 C 
ATOM      5  N4  NON d   1      -1.997  -6.041   0.157  0.00  0.00    -0.204 NA
ATOM      6  H3  NON d   1      -4.623  -6.960   0.057  0.00  0.00     0.151 HD
ENDROOT
BRANCH   1   7
ATOM      7  S1  NON d   1      -0.873  -8.610   0.701  0.00  0.00    -0.087 SA
BRANCH   7   8
ATOM      8  C2  NON d   1       0.785  -7.960   0.642  0.00  0.00     0.184 C 
BRANCH   8   9
ATOM      9  C1  NON d   1       1.117  -7.034   1.792  0.00  0.00     0.227 C 
ATOM     10  O1  NON d   1       0.435  -6.907   2.806  0.00  0.00    -0.273 OA
ATOM     11  N5  NON d   1       2.324  -6.377   1.638  0.00  0.00    -0.360 N 
ATOM     12  H16 NON d   1       2.830  -6.437   0.763  0.00  0.00     0.162 HD
BRANCH  11  13
ATOM     13  C19 NON d   1       2.814  -5.507   2.688  0.00  0.00     0.127 C 
BRANCH  13  14
ATOM     14  C20 NON d   1       4.105  -4.771   2.324  0.00  0.00     0.058 C 
BRANCH  14  15
ATOM     15  C21 NON d   1       5.398  -5.560   2.300  0.00  0.00    -0.057 A 
ATOM     16  C22 NON d   1       6.599  -4.837   2.198  0.00  0.00     0.007 A 
ATOM     17  C23 NON d   1       7.833  -5.489   2.166  0.00  0.00     0.001 A 
ATOM     18  C24 NON d   1       7.886  -6.878   2.228  0.00  0.00     0.000 A 
ATOM     19  C25 NON d   1       6.705  -7.611   2.324  0.00  0.00     0.001 A 
ATOM     20  C26 NON d   1       5.469  -6.957   2.362  0.00  0.00     0.007 A 
ENDBRANCH  14  15
ENDBRANCH  13  14
ENDBRANCH  11  13
ENDBRANCH   8   9
ENDBRANCH   7   8
ENDBRANCH   1   7
BRANCH   5  21
ATOM     21  C13 NON d   1      -0.899  -5.193  -0.085  0.00  0.00     0.019 A 
ATOM     22  C14 NON d   1      -0.694  -4.091   0.759  0.00  0.00     0.024 A 
ATOM     23  C15 NON d   1       0.355  -3.193   0.545  0.00  0.00     0.002 A 
ATOM     24  C16 NON d   1       1.251  -3.411  -0.494  0.00  0.00     0.000 A 
ATOM     25  C17 NON d   1       1.076  -4.505  -1.337  0.00  0.00     0.002 A 
ATOM     26  C18 NON d   1      -0.011  -5.370  -1.155  0.00  0.00     0.024 A 
ENDBRANCH   5  21
BRANCH   4  27
ATOM     27  C5  NON d   1      -4.160  -4.541  -0.248  0.00  0.00     0.004 A 
ATOM     28  C6  NON d   1      -5.615  -4.507  -0.114  0.00  0.00     0.001 A 
ATOM     29  C7  NON d   1      -6.670  -5.449  -0.215  0.00  0.00     0.014 A 
ATOM     30  C11 NON d   1      -5.991  -3.180   0.132  0.00  0.00     0.043 A 
ATOM     31  C8  NON d   1      -8.007  -5.053  -0.055  0.00  0.00     0.001 A 
ATOM     32  C9  NON d   1      -8.327  -3.726   0.188  0.00  0.00     0.002 A 
ATOM     33  C10 NON d   1      -7.322  -2.765   0.285  0.00  0.00     0.030 A 
ATOM     34  N3  NON d   1      -4.846  -2.429   0.153  0.00  0.00    -0.365 N 
ATOM     35  C12 NON d   1      -3.764  -3.212  -0.121  0.00  0.00     0.099 A 
ATOM     36  H9  NON d   1      -4.822  -1.428   0.289  0.00  0.00     0.165 HD
ENDBRANCH   4  27
TORSDOF 8
