REMARK  6 active torsions:
REMARK  status: ('A' for Active; 'I' for Inactive)
REMARK    1  A    between atoms: C2_2  and  N1_3 
REMARK       I    between atoms: N1_3  and  C3_4 
REMARK    2  A    between atoms: C3_4  and  C4_6 
REMARK    3  A    between atoms: C9_11  and  N2_12 
REMARK       I    between atoms: N2_12  and  C10_13 
REMARK    4  A    between atoms: C10_13  and  C11_15 
REMARK    5  A    between atoms: C14_18  and  C15_19 
REMARK    6  A    between atoms: C15_19  and  N3_20 
ROOT
ATOM      1  N2  NON d   1      -3.467  10.673  -0.008  0.00  0.00    -0.322 N 
ATOM      2  C10 NON d   1      -2.259  11.064  -0.573  0.00  0.00     0.256 C 
ATOM      3  O2  NON d   1      -2.091  12.047  -1.289  0.00  0.00    -0.267 OA
ATOM      4  H12 NON d   1      -3.557   9.701   0.256  0.00  0.00     0.169 HD
ENDROOT
BRANCH   1   5
ATOM      5  C9  NON d   1      -4.669  11.451   0.015  0.00  0.00     0.042 A 
ATOM      6  C7  NON d   1      -4.718  12.858   0.096  0.00  0.00    -0.035 A 
ATOM      7  C6  NON d   1      -5.969  13.509   0.022  0.00  0.00     0.010 A 
ATOM      8  C8  NON d   1      -3.528  13.758   0.306  0.00  0.00     0.050 C 
ATOM      9  C5  NON d   1      -7.168  12.799  -0.051  0.00  0.00     0.017 A 
ATOM     10  C4  NON d   1      -7.150  11.408  -0.033  0.00  0.00     0.034 A 
ATOM     11  C21 NON d   1      -5.895  10.746   0.005  0.00  0.00     0.047 A 
BRANCH  10  12
ATOM     12  C3  NON d   1      -8.412  10.591  -0.093  0.00  0.00     0.251 C 
ATOM     13  N1  NON d   1      -9.650  11.235  -0.016  0.00  0.00    -0.357 N 
ATOM     14  H6  NON d   1      -9.708  12.198   0.277  0.00  0.00     0.162 HD
ATOM     15  O1  NON d   1      -8.321   9.371  -0.202  0.00  0.00    -0.268 OA
BRANCH  13  16
ATOM     16  C2  NON d   1     -10.869  10.435   0.000  0.00  0.00     0.118 C 
ATOM     17  C1  NON d   1     -12.202  11.205   0.000  0.00  0.00     0.026 C 
ENDBRANCH  13  16
ENDBRANCH  10  12
ENDBRANCH   1   5
BRANCH   2  18
ATOM     18  C11 NON d   1      -1.048  10.232  -0.300  0.00  0.00     0.032 A 
ATOM     19  C12 NON d   1       0.135  10.927  -0.020  0.00  0.00     0.017 A 
ATOM     20  C13 NON d   1       1.340  10.244   0.166  0.00  0.00     0.010 A 
ATOM     21  C14 NON d   1       1.421   8.843   0.055  0.00  0.00    -0.040 A 
ATOM     22  C19 NON d   1       0.234   8.154  -0.244  0.00  0.00     0.010 A 
ATOM     23  C20 NON d   1      -0.995   8.839  -0.407  0.00  0.00     0.017 A 
BRANCH  21  24
ATOM     24  C15 NON d   1       2.803   8.254   0.282  0.00  0.00     0.167 C 
BRANCH  24  25
ATOM     25  N3  NON d   1       3.048   6.828   0.083  0.00  0.00    -0.346 N 
ATOM     26  C16 NON d   1       4.202   6.320  -0.468  0.00  0.00     0.111 A 
ATOM     27  C17 NON d   1       4.154   4.966  -0.236  0.00  0.00     0.135 A 
ATOM     28  N4  NON d   1       3.019   4.639   0.455  0.00  0.00    -0.255 NA
ATOM     29  C18 NON d   1       2.400   5.779   0.672  0.00  0.00     0.209 A 
ENDBRANCH  24  25
ENDBRANCH  21  24
ENDBRANCH   2  18
TORSDOF 6
