@<TRIPOS>MOLECULE
*****
 57 60 0 0 0
SMALL
USER_CHARGES

@<TRIPOS>ATOM
      1 C1         -0.5575   10.9018   -0.1294 C.3     1  NONAME1    -0.0613
      2 C2         -1.4728    9.6846   -0.0396 C.3     1  NONAME1    -0.0304
      3 C3         -0.7983    8.3318    0.0175 C.ar    1  NONAME1    -0.0444
      4 C4          0.5883    8.1752    0.0856 C.ar    1  NONAME1    -0.0584
      5 C5          1.1502    6.9036    0.1121 C.ar    1  NONAME1    -0.0583
      6 C6          0.3337    5.7721    0.0820 C.ar    1  NONAME1    -0.0232
      7 C7         -1.0601    5.8747    0.0347 C.ar    1  NONAME1     0.1001
      8 N1         -1.9307    4.7666   -0.0186 N.pl3   1  NONAME1    -0.2449
      9 C8         -1.6458    3.4260   -0.0992 C.2     1  NONAME1     0.3847
     10 N2         -2.7126    2.5388   -0.1098 N.am    1  NONAME1    -0.1702
     11 C9         -4.0664    2.8428    0.0122 C.2     1  NONAME1     0.3094
     12 O1         -4.4574    4.0022    0.1284 O.2     1  NONAME1    -0.2515
     13 C10        -5.0408    1.7011   -0.0003 C.ar    1  NONAME1     0.0881
     14 C11        -4.6458    0.3502    0.0091 C.ar    1  NONAME1    -0.0454
     15 C12        -5.6032   -0.6753    0.0020 C.ar    1  NONAME1    -0.0608
     16 C13        -6.9613   -0.3724   -0.0069 C.ar    1  NONAME1    -0.0590
     17 C14        -7.3669    0.9583   -0.0077 C.ar    1  NONAME1    -0.0256
     18 C15        -6.4145    1.9805   -0.0058 C.ar    1  NONAME1     0.1369
     19 F1         -6.8755    3.2398   -0.0120 F       1  NONAME1    -0.2046
     20 N3         -0.4527    2.9656   -0.1730 N.pl3   1  NONAME1    -0.1144
     21 C16        -0.0392    1.5770   -0.2389 C.3     1  NONAME1     0.1085
     22 C17         1.4772    1.4937    0.0062 C.3     1  NONAME1     0.0086
     23 C18         2.3658    1.9659   -1.1138 C.ar    1  NONAME1    -0.0193
     24 C19         3.7761    1.7110   -1.2238 C.ar    1  NONAME1     0.0029
     25 C20         4.7110    1.0123   -0.4309 C.ar    1  NONAME1    -0.0523
     26 C21         6.0519    0.9551   -0.8299 C.ar    1  NONAME1    -0.0611
     27 C22         6.4721    1.5809   -2.0006 C.ar    1  NONAME1    -0.0598
     28 C23         5.5684    2.2843   -2.8021 C.ar    1  NONAME1    -0.0378
     29 C24         4.2321    2.3323   -2.3871 C.ar    1  NONAME1     0.0467
     30 N4          3.1486    2.9553   -2.9590 N.ar    1  NONAME1    -0.3604
     31 C25         2.0280    2.7457   -2.2037 C.ar    1  NONAME1     0.0060
     32 C26        -1.6058    7.1727   -0.0007 C.ar    1  NONAME1    -0.0200
     33 H1          0.1174   10.8346   -0.9896 H       1  NONAME1     0.0233
     34 H2          0.0488   11.0100    0.7765 H       1  NONAME1     0.0233
     35 H3         -1.1520   11.8140   -0.2429 H       1  NONAME1     0.0233
     36 H4         -2.1033    9.7933    0.8514 H       1  NONAME1     0.0311
     37 H5         -2.1339    9.6972   -0.9150 H       1  NONAME1     0.0311
     38 H6          1.2582    9.0294    0.1128 H       1  NONAME1     0.0620
     39 H7          2.2296    6.7824    0.1540 H       1  NONAME1     0.0619
     40 H8          0.8315    4.8092    0.1020 H       1  NONAME1     0.0652
     41 H9         -2.9224    4.9930    0.0501 H       1  NONAME1     0.2646
     42 H10        -2.4379    1.5858   -0.2367 H       1  NONAME1     0.2545
     43 H11        -3.6063    0.0454    0.0348 H       1  NONAME1     0.0626
     44 H12        -5.2838   -1.7165    0.0057 H       1  NONAME1     0.0618
     45 H13        -7.7021   -1.1696   -0.0096 H       1  NONAME1     0.0618
     46 H14        -8.4231    1.2140   -0.0094 H       1  NONAME1     0.0646
     47 H15        -0.5366    0.9969    0.5471 H       1  NONAME1     0.0696
     48 H16        -0.2978    1.1409   -1.2101 H       1  NONAME1     0.0696
     49 H17         1.7323    2.0641    0.9091 H       1  NONAME1     0.0346
     50 H18         1.7245    0.4444    0.2109 H       1  NONAME1     0.0346
     51 H19         4.3973    0.5265    0.4877 H       1  NONAME1     0.0624
     52 H20         6.7706    0.4190   -0.2153 H       1  NONAME1     0.0618
     53 H21         7.5180    1.5268   -2.2941 H       1  NONAME1     0.0618
     54 H22         5.8977    2.7782   -3.7102 H       1  NONAME1     0.0638
     55 H23         3.1832    3.5038   -3.8065 H       1  NONAME1     0.1653
     56 H24         1.0830    3.1874   -2.4936 H       1  NONAME1     0.0810
     57 H25        -2.6869    7.2910   -0.0511 H       1  NONAME1     0.0655
@<TRIPOS>BOND
     1     1     2    1
     2     2     3    1
     3     3     4   ar
     4     4     5   ar
     5     5     6   ar
     6     6     7   ar
     7     7     8    1
     8     8     9    1
     9     9    10    1
    10    10    11   am
    11    11    12    2
    12    11    13    1
    13    13    14   ar
    14    14    15   ar
    15    15    16   ar
    16    16    17   ar
    17    17    18   ar
    18    13    18   ar
    19    18    19    1
    20     9    20    2
    21    20    21    1
    22    21    22    1
    23    22    23    1
    24    23    24   ar
    25    24    25   ar
    26    25    26   ar
    27    26    27   ar
    28    27    28   ar
    29    28    29   ar
    30    24    29   ar
    31    29    30   ar
    32    30    31   ar
    33    23    31   ar
    34     7    32   ar
    35     3    32   ar
    36     1    33    1
    37     1    34    1
    38     1    35    1
    39     2    36    1
    40     2    37    1
    41     4    38    1
    42     5    39    1
    43     6    40    1
    44     8    41    1
    45    10    42    1
    46    14    43    1
    47    15    44    1
    48    16    45    1
    49    17    46    1
    50    21    47    1
    51    21    48    1
    52    22    49    1
    53    22    50    1
    54    25    51    1
    55    26    52    1
    56    27    53    1
    57    28    54    1
    58    30    55    1
    59    31    56    1
    60    32    57    1
