@<TRIPOS>MOLECULE
*****
 49 50 0 0 0
SMALL
USER_CHARGES

@<TRIPOS>ATOM
      1 C1          2.6674   -9.2400    0.0000 C.3     1  NONAME1    -0.0251
      2 C2          2.6674   -7.7000    0.0000 C.2     1  NONAME1     0.0237
      3 C3          1.3840   -7.1265   -0.0421 C.2     1  NONAME1     0.0184
      4 C4         -0.0456   -7.8652   -0.1952 C.2     1  NONAME1     0.2426
      5 O1         -0.0161   -9.0484   -0.5346 O.2     1  NONAME1    -0.2704
      6 N1         -1.2822   -7.1355   -0.0032 N.am    1  NONAME1    -0.2817
      7 C5         -2.7038   -7.7024   -0.0180 C.ar    1  NONAME1     0.0380
      8 C6         -2.8361   -9.0990   -0.0256 C.ar    1  NONAME1    -0.0401
      9 C7         -4.0857   -9.7332   -0.0600 C.ar    1  NONAME1    -0.0586
     10 C8         -5.2682   -8.9994   -0.0939 C.ar    1  NONAME1    -0.0430
     11 C9         -5.2314   -7.6081   -0.0712 C.ar    1  NONAME1     0.0456
     12 Cl1        -6.7379   -6.7639   -0.1519 Cl      1  NONAME1    -0.0832
     13 C10        -4.0010   -6.9300    0.0000 C.ar    1  NONAME1    -0.0110
     14 C11        -4.0010   -5.3900    0.0000 C.3     1  NONAME1    -0.0366
     15 N2          3.8561   -6.9869    0.0286 N.pl3   1  NONAME1    -0.2683
     16 N3          5.0636   -7.5271   -0.4346 N.am    1  NONAME1    -0.2290
     17 C12         6.2504   -6.9061   -0.0943 C.2     1  NONAME1     0.3152
     18 O2          6.4092   -5.7447    0.2542 O.2     1  NONAME1    -0.2636
     19 C13         7.4522   -7.8694   -0.1985 C.2     1  NONAME1     0.3046
     20 O3          7.2248   -9.0518   -0.4190 O.2     1  NONAME1    -0.2648
     21 N4          8.6674   -7.2386   -0.0291 N.am    1  NONAME1    -0.2777
     22 C14         9.9443   -7.8340   -0.0226 C.ar    1  NONAME1     0.0352
     23 C15        11.0501   -6.9853    0.0816 C.ar    1  NONAME1    -0.0401
     24 C16        12.3501   -7.5030    0.0996 C.ar    1  NONAME1    -0.0557
     25 C17        12.5726   -8.8844    0.0273 C.ar    1  NONAME1    -0.0320
     26 C18        13.9798   -9.4129    0.0378 C.3     1  NONAME1    -0.0383
     27 C19        11.4604   -9.7311   -0.0800 C.ar    1  NONAME1     0.0456
     28 Cl2        11.6447  -11.4480   -0.1850 Cl      1  NONAME1    -0.0832
     29 C20        10.1596   -9.2110   -0.1042 C.ar    1  NONAME1    -0.0219
     30 H1          1.9691   -9.3488    0.8610 H       1  NONAME1     0.0290
     31 H2          2.6674  -10.7800    0.0000 H       1  NONAME1     0.0290
     32 H3          3.6574   -9.3660    0.4847 H       1  NONAME1     0.0290
     33 H4          1.2817   -6.0471   -0.0218 H       1  NONAME1     0.0685
     34 H5         -1.2098   -6.1371    0.1258 H       1  NONAME1     0.1551
     35 H6         -1.9759   -9.7581    0.0141 H       1  NONAME1     0.0636
     36 H7         -4.1274  -10.8213   -0.0671 H       1  NONAME1     0.0619
     37 H8         -6.2191   -9.5246   -0.1397 H       1  NONAME1     0.0632
     38 H9         -2.9461   -5.2657    0.2936 H       1  NONAME1     0.0279
     39 H10        -4.0010   -3.8500    0.0000 H       1  NONAME1     0.0279
     40 H11        -4.5726   -5.3009    0.9491 H       1  NONAME1     0.0279
     41 H12         3.7796   -5.9767   -0.1114 H       1  NONAME1     0.1696
     42 H13         5.1095   -8.5345   -0.5875 H       1  NONAME1     0.1732
     43 H14         8.6092   -6.2320    0.1078 H       1  NONAME1     0.1553
     44 H15        10.9207   -5.9069    0.1417 H       1  NONAME1     0.0636
     45 H16        13.1905   -6.8148    0.1705 H       1  NONAME1     0.0621
     46 H17        14.0991  -10.1867    0.8021 H       1  NONAME1     0.0278
     47 H18        14.2365   -9.8239   -0.9434 H       1  NONAME1     0.0278
     48 H19        14.7017   -8.6216    0.2695 H       1  NONAME1     0.0278
     49 H20         9.3321   -9.9093   -0.1774 H       1  NONAME1     0.0651
@<TRIPOS>BOND
     1     1     2    1
     2     2     3    2
     3     3     4    1
     4     4     5    2
     5     4     6   am
     6     6     7    1
     7     7     8   ar
     8     8     9   ar
     9     9    10   ar
    10    10    11   ar
    11    11    12    1
    12    11    13   ar
    13     7    13   ar
    14    13    14    1
    15     2    15    1
    16    15    16    1
    17    16    17   am
    18    17    18    2
    19    17    19    1
    20    19    20    2
    21    19    21   am
    22    21    22    1
    23    22    23   ar
    24    23    24   ar
    25    24    25   ar
    26    25    26    1
    27    25    27   ar
    28    27    28    1
    29    27    29   ar
    30    22    29   ar
    31     1    30    1
    32     1    31    1
    33     1    32    1
    34     3    33    1
    35     6    34    1
    36     8    35    1
    37     9    36    1
    38    10    37    1
    39    14    38    1
    40    14    39    1
    41    14    40    1
    42    15    41    1
    43    16    42    1
    44    21    43    1
    45    23    44    1
    46    24    45    1
    47    26    46    1
    48    26    47    1
    49    26    48    1
    50    29    49    1
