@<TRIPOS>MOLECULE
*****
 40 42 0 0 0
SMALL
USER_CHARGES

@<TRIPOS>ATOM
      1 N1          2.4682   16.5950    0.0000 N.3     1  NONAME1    -0.2035
      2 S1          2.4682   15.0550    0.0000 S.O2    1  NONAME1     0.0560
      3 O1          1.1702   15.1259   -0.6795 O.2     1  NONAME1    -0.1533
      4 O2          2.5510   15.1091    1.4628 O.2     1  NONAME1    -0.1533
      5 C1          2.4682   13.5150    0.0000 C.ar    1  NONAME1     0.1073
      6 C2          3.6251   12.8977   -0.5086 C.ar    1  NONAME1    -0.0335
      7 C3          3.7782   11.5036   -0.5526 C.ar    1  NONAME1    -0.0365
      8 C4          2.7898   10.6358   -0.0781 C.ar    1  NONAME1     0.0620
      9 N2          3.0125    9.2395   -0.0517 N.pl3   1  NONAME1    -0.3127
     10 C5          4.1703    8.4360    0.1084 C.ar    1  NONAME1     0.0331
     11 C6          5.4361    8.9367    0.4135 C.ar    1  NONAME1    -0.0404
     12 C7          6.5422    8.0898    0.4886 C.ar    1  NONAME1    -0.0582
     13 C8          6.3956    6.7181    0.2809 C.ar    1  NONAME1    -0.0400
     14 C9          5.1412    6.1617   -0.0027 C.ar    1  NONAME1     0.0413
     15 N3          5.0031    4.7540   -0.1636 N.am    1  NONAME1    -0.2340
     16 C10         6.1079    3.8463   -0.0852 C.3     1  NONAME1     0.0572
     17 C11         5.4580    2.4878   -0.0994 C.3     1  NONAME1     0.1102
     18 O3          4.1353    2.7091   -0.5799 O.3     1  NONAME1    -0.4484
     19 C12         3.8554    4.0514   -0.5009 C.2     1  NONAME1     0.4073
     20 O4          2.7340    4.4763   -0.7243 O.2     1  NONAME1    -0.2259
     21 C13         4.0500    7.0439   -0.1047 C.ar    1  NONAME1    -0.0190
     22 C14         1.5872   11.2469    0.3560 C.ar    1  NONAME1     0.1490
     23 N4          0.4106   10.4359    0.7215 N.pl3   1  NONAME1     0.0583
     24 O5         -0.6769   11.0174    0.8406 O.2     1  NONAME1    -0.1261
     25 O6          0.5627    9.2131    0.8672 O.2     1  NONAME1    -0.1261
     26 C15         1.4401   12.6584    0.4153 C.ar    1  NONAME1    -0.0033
     27 H1          2.5893   16.9329    0.9566 H       1  NONAME1     0.1442
     28 H2          1.5761   16.9263   -0.3730 H       1  NONAME1     0.1442
     29 H3          4.4550   13.5008   -0.8832 H       1  NONAME1     0.0638
     30 H4          4.6892   11.1094   -0.9974 H       1  NONAME1     0.0637
     31 H5          2.1666    8.7012    0.1662 H       1  NONAME1     0.1522
     32 H6          5.5913    9.9860    0.6361 H       1  NONAME1     0.0636
     33 H7          7.5215    8.5007    0.7222 H       1  NONAME1     0.0619
     34 H8          7.2892    6.1064    0.3552 H       1  NONAME1     0.0636
     35 H9          6.6991    3.9846    0.8256 H       1  NONAME1     0.0503
     36 H10         6.7452    3.9849   -0.9655 H       1  NONAME1     0.0503
     37 H11         5.9819    1.7869   -0.7562 H       1  NONAME1     0.0714
     38 H12         5.3971    2.0491    0.9024 H       1  NONAME1     0.0714
     39 H13         3.0610    6.6658   -0.3480 H       1  NONAME1     0.0655
     40 H14         0.5108   13.1012    0.7772 H       1  NONAME1     0.0660
@<TRIPOS>BOND
     1     1     2    1
     2     2     3    2
     3     2     4    2
     4     2     5    1
     5     5     6   ar
     6     6     7   ar
     7     7     8   ar
     8     8     9    1
     9     9    10    1
    10    10    11   ar
    11    11    12   ar
    12    12    13   ar
    13    13    14   ar
    14    14    15    1
    15    15    16    1
    16    16    17    1
    17    17    18    1
    18    18    19    1
    19    15    19   am
    20    19    20    2
    21    14    21   ar
    22    10    21   ar
    23     8    22   ar
    24    22    23    1
    25    23    24    2
    26    23    25    1
    27    22    26   ar
    28     5    26   ar
    29     1    27    1
    30     1    28    1
    31     6    29    1
    32     7    30    1
    33     9    31    1
    34    11    32    1
    35    12    33    1
    36    13    34    1
    37    16    35    1
    38    16    36    1
    39    17    37    1
    40    17    38    1
    41    21    39    1
    42    26    40    1
