REMARK  6 active torsions:
REMARK  status: ('A' for Active; 'I' for Inactive)
REMARK    1  A    between atoms: C2_2  and  O1_3 
REMARK    2  A    between atoms: O1_3  and  C3_4 
REMARK    3  A    between atoms: C3_4  and  C4_6 
REMARK    4  A    between atoms: C7_9  and  C8_10 
REMARK    5  A    between atoms: C8_10  and  N1_11 
REMARK       I    between atoms: N1_11  and  C9_12 
REMARK    6  A    between atoms: C9_12  and  C10_14 
ROOT
ATOM      1  C8  NON d   1       3.188  12.901   0.029  0.00  0.00     0.161 C 
ENDROOT
BRANCH   1   2
ATOM      2  C7  NON d   1       1.814  13.528  -0.031  0.00  0.00    -0.040 A 
ATOM      3  C6  NON d   1       1.771  14.932  -0.037  0.00  0.00     0.010 A 
ATOM      4  C5  NON d   1       0.557  15.617  -0.062  0.00  0.00     0.018 A 
ATOM      5  C4  NON d   1      -0.656  14.918  -0.076  0.00  0.00     0.039 A 
ATOM      6  C15 NON d   1      -0.632  13.520  -0.076  0.00  0.00     0.018 A 
ATOM      7  C14 NON d   1       0.596  12.832  -0.055  0.00  0.00     0.010 A 
BRANCH   5   8
ATOM      8  C3  NON d   1      -1.902  15.728  -0.083  0.00  0.00     0.293 C 
ATOM      9  O2  NON d   1      -1.867  16.952  -0.103  0.00  0.00    -0.259 OA
BRANCH   8  10
ATOM     10  O1  NON d   1      -3.044  14.979  -0.046  0.00  0.00    -0.318 OA
BRANCH  10  11
ATOM     11  C2  NON d   1      -4.200  15.825   0.000  0.00  0.00     0.174 C 
ATOM     12  C1  NON d   1      -5.534  15.055   0.000  0.00  0.00     0.034 C 
ENDBRANCH  10  11
ENDBRANCH   8  10
ENDBRANCH   5   8
ENDBRANCH   1   2
BRANCH   1  13
ATOM     13  N1  NON d   1       3.266  11.464  -0.060  0.00  0.00    -0.353 N 
ATOM     14  C9  NON d   1       4.507  10.871  -0.167  0.00  0.00     0.254 C 
ATOM     15  O3  NON d   1       5.532  11.536  -0.302  0.00  0.00    -0.268 OA
ATOM     16  H10 NON d   1       2.491  10.902   0.260  0.00  0.00     0.163 HD
BRANCH  14  17
ATOM     17  C10 NON d   1       4.575   9.411  -0.079  0.00  0.00     0.062 A 
ATOM     18  C11 NON d   1       5.839   8.701  -0.074  0.00  0.00     0.050 A 
ATOM     19  C12 NON d   1       5.676   7.344   0.005  0.00  0.00     0.077 A 
ATOM     20 Cl1  NON d   1       6.917   6.160   0.036  0.00  0.00    -0.076 Cl
ATOM     21  S1  NON d   1       4.057   6.874   0.075  0.00  0.00    -0.065 SA
ATOM     22  C13 NON d   1       3.544   8.496  -0.001  0.00  0.00     0.091 A 
ATOM     23 Cl2  NON d   1       1.841   8.769   0.027  0.00  0.00    -0.075 Cl
ENDBRANCH  14  17
ENDBRANCH   1  13
TORSDOF 6
