@<TRIPOS>MOLECULE
*****
 48 50 0 0 0
SMALL
USER_CHARGES

@<TRIPOS>ATOM
      1 C1          3.8301   -5.4785    1.1941 C.3     1  NONAME1    -0.0463
      2 C2          4.1618   -4.5409    0.0183 C.3     1  NONAME1     0.0606
      3 S1          5.7774   -5.0225   -0.8782 S.3     1  NONAME1    -0.1406
      4 C3          7.0068   -5.1850    0.4598 C.3     1  NONAME1     0.0708
      5 C4          8.1303   -4.1552    0.3687 C.2     1  NONAME1     0.2229
      6 O1          7.9466   -2.9605    0.5905 O.2     1  NONAME1    -0.2749
      7 N1          9.3917   -4.6897    0.1251 N.am    1  NONAME1    -0.3146
      8 C5         10.5562   -3.8198    0.0761 C.3     1  NONAME1     0.0119
      9 C6         11.8884   -4.5649   -0.0697 C.3     1  NONAME1    -0.0334
     10 C7         12.2798   -5.3695    1.1780 C.3     1  NONAME1    -0.0263
     11 C8         13.6080   -6.1060    1.1335 C.ar    1  NONAME1    -0.0473
     12 C9         13.9099   -6.9941    2.1818 C.ar    1  NONAME1    -0.0586
     13 C10        15.1201   -7.6880    2.2192 C.ar    1  NONAME1    -0.0615
     14 C11        16.0597   -7.5041    1.2101 C.ar    1  NONAME1    -0.0617
     15 C12        15.7855   -6.6212    0.1687 C.ar    1  NONAME1    -0.0615
     16 C13        14.5705   -5.9269    0.1293 C.ar    1  NONAME1    -0.0586
     17 C14         3.1106   -4.3715   -1.0398 C.ar    1  NONAME1     0.1209
     18 N2          1.9509   -5.1019   -1.1450 N.ar    1  NONAME1    -0.3409
     19 C15         1.2870   -4.6977   -2.2798 C.ar    1  NONAME1     0.0662
     20 C16         0.0938   -5.1060   -2.8814 C.ar    1  NONAME1    -0.0363
     21 C17        -0.2529   -4.4760   -4.0867 C.ar    1  NONAME1    -0.0597
     22 C18         0.5565   -3.4880   -4.6532 C.ar    1  NONAME1    -0.0596
     23 C19         1.7369   -3.0846   -4.0203 C.ar    1  NONAME1    -0.0342
     24 C20         2.0947   -3.7022   -2.8148 C.ar    1  NONAME1     0.0891
     25 N3          3.1826   -3.4863   -2.0190 N.ar    1  NONAME1    -0.2314
     26 H1          4.0330   -6.4282    0.6598 H       1  NONAME1     0.0244
     27 H2          3.4983   -6.4162    2.3698 H       1  NONAME1     0.0244
     28 H3          4.6668   -5.1762    1.8427 H       1  NONAME1     0.0244
     29 H4          4.3343   -3.5363    0.4272 H       1  NONAME1     0.0489
     30 H5          6.5861   -5.0954    1.4602 H       1  NONAME1     0.0471
     31 H6          7.4306   -6.1920    0.3844 H       1  NONAME1     0.0471
     32 H7          9.4275   -5.5574   -0.3962 H       1  NONAME1     0.1487
     33 H8         10.4219   -3.1486   -0.7800 H       1  NONAME1     0.0462
     34 H9         10.5627   -3.1974    0.9789 H       1  NONAME1     0.0462
     35 H10        12.6642   -3.8138   -0.2665 H       1  NONAME1     0.0283
     36 H11        11.8499   -5.2265   -0.9435 H       1  NONAME1     0.0283
     37 H12        12.3117   -4.6909    2.0403 H       1  NONAME1     0.0314
     38 H13        11.4952   -6.1109    1.3737 H       1  NONAME1     0.0314
     39 H14        13.1943   -7.1484    2.9877 H       1  NONAME1     0.0620
     40 H15        15.3334   -8.3705    3.0394 H       1  NONAME1     0.0618
     41 H16        17.0068   -8.0388    1.2369 H       1  NONAME1     0.0618
     42 H17        16.5230   -6.4687   -0.6178 H       1  NONAME1     0.0618
     43 H18        14.4024   -5.2437   -0.6978 H       1  NONAME1     0.0620
     44 H19         1.6488   -5.8324   -0.5185 H       1  NONAME1     0.1671
     45 H20        -0.5344   -5.8766   -2.4503 H       1  NONAME1     0.0639
     46 H21        -1.1685   -4.7678   -4.5957 H       1  NONAME1     0.0618
     47 H22         0.2720   -3.0256   -5.5949 H       1  NONAME1     0.0618
     48 H23         2.3772   -2.3220   -4.4492 H       1  NONAME1     0.0639
@<TRIPOS>BOND
     1     2     1    1
     2     2     3    1
     3     3     4    1
     4     4     5    1
     5     5     6    2
     6     5     7   am
     7     7     8    1
     8     8     9    1
     9     9    10    1
    10    10    11    1
    11    11    12   ar
    12    12    13   ar
    13    13    14   ar
    14    14    15   ar
    15    15    16   ar
    16    11    16   ar
    17     2    17    1
    18    17    18   ar
    19    18    19   ar
    20    19    20   ar
    21    20    21   ar
    22    21    22   ar
    23    22    23   ar
    24    23    24   ar
    25    19    24   ar
    26    24    25   ar
    27    17    25   ar
    28     1    26    1
    29     1    27    1
    30     1    28    1
    31     2    29    1
    32     4    30    1
    33     4    31    1
    34     7    32    1
    35     8    33    1
    36     8    34    1
    37     9    35    1
    38     9    36    1
    39    10    37    1
    40    10    38    1
    41    12    39    1
    42    13    40    1
    43    14    41    1
    44    15    42    1
    45    16    43    1
    46    18    44    1
    47    20    45    1
    48    21    46    1
    49    22    47    1
    50    23    48    1
