@<TRIPOS>MOLECULE
*****
 41 41 0 0 0
SMALL
USER_CHARGES

@<TRIPOS>ATOM
      1 C1         -8.4650    6.9038    0.0314 C.3     1  NONAME1     0.0817
      2 O1         -7.2488    6.1462    0.0037 O.3     1  NONAME1    -0.4679
      3 C2         -6.0982    6.8817    0.0215 C.2     1  NONAME1     0.3071
      4 O2         -6.0436    8.1009    0.0594 O.2     1  NONAME1    -0.2509
      5 C3         -4.9015    5.9468   -0.0052 C.3     1  NONAME1     0.0489
      6 C4         -3.5892    6.7383   -0.0329 C.3     1  NONAME1    -0.0176
      7 C5         -2.2854    5.9628   -0.0844 C.ar    1  NONAME1    -0.0467
      8 C6         -1.1004    6.6911   -0.2759 C.ar    1  NONAME1    -0.0568
      9 C7          0.1519    6.0591   -0.3172 C.ar    1  NONAME1    -0.0402
     10 C8          0.2639    4.6779   -0.1477 C.ar    1  NONAME1     0.0334
     11 N1          1.5148    4.0008   -0.1039 N.am    1  NONAME1    -0.2853
     12 C9          2.7138    4.4934   -0.6085 C.2     1  NONAME1     0.2208
     13 O3          2.7754    5.4223   -1.4118 O.2     1  NONAME1    -0.2752
     14 C10         4.0010    3.8500    0.0000 C.3     1  NONAME1     0.0420
     15 C11         4.0010    2.3100    0.0000 C.3     1  NONAME1    -0.0533
     16 C12         5.1915    4.7057   -0.3572 C.3     1  NONAME1     0.0043
     17 S1          5.6761    5.5687    1.1641 S.3     1  NONAME1    -0.1634
     18 C13         4.7515    6.7578    1.4848 C.3     1  NONAME1    -0.0181
     19 C14        -0.9112    3.9471    0.0657 C.ar    1  NONAME1    -0.0402
     20 C15        -2.1730    4.5778    0.0822 C.ar    1  NONAME1    -0.0568
     21 H1         -8.3666    7.8491    0.5740 H       1  NONAME1     0.0661
     22 H2         -8.7971    7.0878   -0.9938 H       1  NONAME1     0.0661
     23 H3         -9.2219    6.3002    0.5396 H       1  NONAME1     0.0661
     24 H4         -4.9793    5.3203   -0.8975 H       1  NONAME1     0.0381
     25 H5         -4.9446    5.3160    0.8878 H       1  NONAME1     0.0381
     26 H6         -3.5518    7.3838    0.8551 H       1  NONAME1     0.0318
     27 H7         -3.6131    7.4060   -0.9055 H       1  NONAME1     0.0318
     28 H8         -1.1412    7.7736   -0.3853 H       1  NONAME1     0.0621
     29 H9          1.0302    6.6857   -0.4465 H       1  NONAME1     0.0636
     30 H10         1.5038    3.0580    0.2562 H       1  NONAME1     0.1548
     31 H11         3.7839    4.0038    1.0712 H       1  NONAME1     0.0399
     32 H12         3.6202    2.2011   -1.0363 H       1  NONAME1     0.0237
     33 H13         4.0010    0.7700    0.0000 H       1  NONAME1     0.0237
     34 H14         5.1025    2.1948   -0.0136 H       1  NONAME1     0.0237
     35 H15         5.0496    5.4350   -1.1578 H       1  NONAME1     0.0383
     36 H16         6.0402    4.0809   -0.6528 H       1  NONAME1     0.0383
     37 H17         5.3388    7.1261    2.3452 H       1  NONAME1     0.0340
     38 H18         3.8270    7.9469    1.8056 H       1  NONAME1     0.0340
     39 H19         5.0241    7.3610    0.5994 H       1  NONAME1     0.0340
     40 H20        -0.8724    2.8696    0.2022 H       1  NONAME1     0.0636
     41 H21        -3.0546    3.9600    0.2323 H       1  NONAME1     0.0621
@<TRIPOS>BOND
     1     1     2    1
     2     2     3    1
     3     3     4    2
     4     3     5    1
     5     5     6    1
     6     6     7    1
     7     7     8   ar
     8     8     9   ar
     9     9    10   ar
    10    10    11    1
    11    11    12   am
    12    12    13    2
    13    14    12    1
    14    14    15    1
    15    14    16    1
    16    16    17    1
    17    17    18    1
    18    10    19   ar
    19    19    20   ar
    20     7    20   ar
    21     1    21    1
    22     1    22    1
    23     1    23    1
    24     5    24    1
    25     5    25    1
    26     6    26    1
    27     6    27    1
    28     8    28    1
    29     9    29    1
    30    11    30    1
    31    14    31    1
    32    15    32    1
    33    15    33    1
    34    15    34    1
    35    16    35    1
    36    16    36    1
    37    18    37    1
    38    18    38    1
    39    18    39    1
    40    19    40    1
    41    20    41    1
