REMARK  5 active torsions:
REMARK  status: ('A' for Active; 'I' for Inactive)
REMARK    1  A    between atoms: C3_4  and  N2_5 
REMARK    2  A    between atoms: C6_9  and  N4_10 
REMARK    3  A    between atoms: N4_10  and  C7_11 
REMARK    4  A    between atoms: C7_11  and  C8_12 
REMARK    5  A    between atoms: C8_12  and  C9_13 
ROOT
ATOM      1  C7  NON d   1      -1.710  -0.723   0.071  0.00  0.00     0.129 C 
ENDROOT
BRANCH   1   2
ATOM      2  N4  NON d   1      -3.049  -0.191  -0.210  0.00  0.00    -0.373 N 
ATOM      3  H10 NON d   1      -3.263   0.769   0.043  0.00  0.00     0.161 HD
BRANCH   2   4
ATOM      4  C6  NON d   1      -4.231  -0.987  -0.125  0.00  0.00     0.150 A 
ATOM      5  N3  NON d   1      -5.441  -0.241  -0.042  0.00  0.00    -0.045 NA
ATOM      6  C3  NON d   1      -6.660  -0.853   0.017  0.00  0.00     0.726 A 
ATOM      7  N1  NON d   1      -6.595  -2.282   0.070  0.00  0.00    -0.067 NA
ATOM      8  C2  NON d   1      -5.335  -3.080   0.000  0.00  0.00     0.059 A 
ATOM      9  C1  NON d   1      -5.335  -4.620   0.000  0.00  0.00     0.072 C 
ATOM     10  C17 NON d   1      -4.151  -2.413  -0.173  0.00  0.00     0.009 A 
ATOM     11  C18 NON d   1      -2.928  -3.258  -0.417  0.00  0.00     0.054 C 
BRANCH   6  12
ATOM     12  N2  NON d   1      -8.002   0.000   0.000  0.00  0.00    -0.223 N 
ATOM     13  C4  NON d   1      -9.176  -0.804   0.218  0.00  0.00     0.168 C 
ATOM     14  C5  NON d   1      -8.002   1.540   0.000  0.00  0.00     0.168 C 
ENDBRANCH   6  12
ENDBRANCH   2   4
ENDBRANCH   1   2
BRANCH   1  15
ATOM     15  C8  NON d   1      -0.488   0.196   0.029  0.00  0.00     0.098 C 
BRANCH  15  16
ATOM     16  C9  NON d   1       0.874  -0.564   0.061  0.00  0.00     0.108 A 
ATOM     17  N5  NON d   1       1.990   0.104   0.022  0.00  0.00    -0.234 NA
ATOM     18  C10 NON d   1       3.214  -0.610   0.024  0.00  0.00     0.074 A 
ATOM     19  C11 NON d   1       4.423   0.091  -0.009  0.00  0.00     0.032 A 
ATOM     20  C15 NON d   1       3.276  -2.004   0.050  0.00  0.00     0.061 A 
ATOM     21  C12 NON d   1       5.652  -0.587  -0.021  0.00  0.00     0.002 A 
ATOM     22  C13 NON d   1       5.690  -1.981  -0.004  0.00  0.00     0.001 A 
ATOM     23  C14 NON d   1       4.497  -2.698   0.032  0.00  0.00     0.019 A 
ATOM     24  C16 NON d   1       2.002  -2.724   0.098  0.00  0.00     0.259 A 
ATOM     25  O1  NON d   1       1.931  -3.948   0.116  0.00  0.00    -0.267 OA
ATOM     26  N6  NON d   1       0.872  -1.939   0.118  0.00  0.00    -0.311 N 
ATOM     27  H19 NON d   1       0.029  -2.488   0.152  0.00  0.00     0.170 HD
ENDBRANCH  15  16
ENDBRANCH   1  15
TORSDOF 5
