@<TRIPOS>MOLECULE
*****
 49 52 0 0 0
SMALL
USER_CHARGES

@<TRIPOS>ATOM
      1 C1          4.7582  -10.0641    0.0120 C.3     1  NONAME1    -0.0495
      2 C2          5.9687   -9.1485   -0.0413 C.3     1  NONAME1     0.0102
      3 N1          7.2087   -9.8910   -0.1506 N.am    1  NONAME1    -0.2993
      4 C3          8.3735   -9.2018   -0.4630 C.2     1  NONAME1     0.3059
      5 O1          8.3936   -8.0333   -0.8199 O.2     1  NONAME1    -0.2524
      6 N2          9.4818  -10.0051   -0.4765 N.am    1  NONAME1    -0.2390
      7 C4         10.5172   -9.6343    0.3299 C.2     1  NONAME1     0.2382
      8 O2         10.2872   -9.1475    1.4539 O.2     1  NONAME1    -0.2738
      9 C5         12.0031  -10.0100    0.0000 C.3     1  NONAME1     0.1140
     10 S1         12.9047   -9.6425   -1.6168 S.3     1  NONAME1    -0.0702
     11 C6         14.4936  -10.3736   -1.2389 C.ar    1  NONAME1     0.1718
     12 N3         15.4543   -9.6035   -0.6339 N.ar    1  NONAME1    -0.3284
     13 C7         16.6713  -10.1548   -0.3857 C.ar    1  NONAME1     0.0926
     14 S2         18.0142   -9.3231    0.2247 S.2     1  NONAME1    -0.0782
     15 C8         18.9838  -10.7346    0.1674 C.ar    1  NONAME1    -0.0134
     16 C9         18.2821  -11.8556   -0.2487 C.ar    1  NONAME1     0.0102
     17 C10        18.9489  -13.2266   -0.2087 C.ar    1  NONAME1     0.0206
     18 C11        20.3206  -13.4439   -0.2050 C.ar    1  NONAME1    -0.0469
     19 C12        20.6698  -14.8277   -0.1264 C.ar    1  NONAME1    -0.0541
     20 C13        19.5506  -15.6295   -0.0374 C.ar    1  NONAME1    -0.0237
     21 S3         18.1132  -14.7124   -0.0433 S.2     1  NONAME1    -0.0966
     22 C14        16.9338  -11.4847   -0.6617 C.ar    1  NONAME1     0.0801
     23 C15        15.8794  -12.2505   -1.3515 C.ar    1  NONAME1     0.2828
     24 O3         16.0705  -13.3870   -1.7624 O.2     1  NONAME1    -0.2651
     25 N4         14.6743  -11.6052   -1.5928 N.ar    1  NONAME1    -0.1846
     26 C16        12.0031  -11.5500    0.0000 C.ar    1  NONAME1    -0.0253
     27 C17        12.8069  -12.2099    0.9451 C.ar    1  NONAME1    -0.0570
     28 C18        12.8421  -13.6066    0.9986 C.ar    1  NONAME1    -0.0615
     29 C19        12.0328  -14.3641    0.1541 C.ar    1  NONAME1    -0.0617
     30 C20        11.2290  -13.7311   -0.7866 C.ar    1  NONAME1    -0.0615
     31 C21        11.2492  -12.3408   -0.8927 C.ar    1  NONAME1    -0.0570
     32 H1          3.8469   -9.4824    0.1881 H       1  NONAME1     0.0245
     33 H2          4.6370  -10.6085   -0.9302 H       1  NONAME1     0.0245
     34 H3          4.8517  -10.8020    0.8154 H       1  NONAME1     0.0245
     35 H4          5.8807   -8.4632   -0.8930 H       1  NONAME1     0.0460
     36 H5          6.0221   -8.5446    0.8702 H       1  NONAME1     0.0460
     37 H6          7.3358  -10.6098    0.5503 H       1  NONAME1     0.1502
     38 H7          9.2466  -10.9757   -0.3477 H       1  NONAME1     0.1591
     39 H8         12.0031   -8.4700    0.0000 H       1  NONAME1     0.0561
     40 H9         15.2832   -8.6158   -0.4873 H       1  NONAME1     0.1683
     41 H10        20.0114  -10.6759    0.5072 H       1  NONAME1     0.0700
     42 H11        21.0655  -12.6635   -0.2871 H       1  NONAME1     0.0629
     43 H12        21.6816  -15.2193   -0.1364 H       1  NONAME1     0.0623
     44 H13        19.5111  -16.7091    0.0340 H       1  NONAME1     0.0693
     45 H14        13.4489  -11.6449    1.6177 H       1  NONAME1     0.0621
     46 H15        13.5123  -14.1096    1.6914 H       1  NONAME1     0.0618
     47 H16        12.0521  -15.4496    0.2074 H       1  NONAME1     0.0618
     48 H17        10.6114  -14.3200   -1.4601 H       1  NONAME1     0.0618
     49 H18        10.6781  -11.8881   -1.7011 H       1  NONAME1     0.0621
@<TRIPOS>BOND
     1     1     2    1
     2     2     3    1
     3     3     4   am
     4     4     5    2
     5     4     6   am
     6     6     7   am
     7     7     8    2
     8     9     7    1
     9     9    10    1
    10    10    11    1
    11    11    12   ar
    12    12    13   ar
    13    13    14   ar
    14    14    15   ar
    15    15    16   ar
    16    16    17    1
    17    17    18   ar
    18    18    19   ar
    19    19    20   ar
    20    20    21   ar
    21    17    21   ar
    22    16    22   ar
    23    13    22   ar
    24    22    23   ar
    25    23    24    2
    26    23    25   ar
    27    11    25   ar
    28     9    26    1
    29    26    27   ar
    30    27    28   ar
    31    28    29   ar
    32    29    30   ar
    33    30    31   ar
    34    26    31   ar
    35     1    32    1
    36     1    33    1
    37     1    34    1
    38     2    35    1
    39     2    36    1
    40     3    37    1
    41     6    38    1
    42     9    39    1
    43    12    40    1
    44    15    41    1
    45    18    42    1
    46    19    43    1
    47    20    44    1
    48    27    45    1
    49    28    46    1
    50    29    47    1
    51    30    48    1
    52    31    49    1
