REMARK  8 active torsions:
REMARK  status: ('A' for Active; 'I' for Inactive)
REMARK    1  A    between atoms: O1_2  and  C2_3 
REMARK    2  A    between atoms: C5_6  and  C6_7 
REMARK    3  A    between atoms: C6_7  and  C7_8 
REMARK       I    between atoms: C7_8  and  N1_10 
REMARK       I    between atoms: N1_10  and  C8_11 
REMARK       I    between atoms: C8_11  and  N4_24 
REMARK    4  A    between atoms: N2_12  and  C9_13 
REMARK    5  A    between atoms: C9_13  and  C10_14 
REMARK    6  A    between atoms: C10_14  and  C11_15 
REMARK    7  A    between atoms: N4_24  and  C19_25 
REMARK    8  A    between atoms: C26_32  and  O3_33 
ROOT
ATOM      1  C7  NON d   1      -3.855   4.670   0.168  0.00  0.00     0.240 C 
ATOM      2  O2  NON d   1      -4.673   3.793   0.442  0.00  0.00    -0.272 OA
ATOM      3  N1  NON d   1      -2.482   4.378   0.060  0.00  0.00    -0.158 N 
ATOM      4  C8  NON d   1      -1.892   3.110  -0.008  0.00  0.00     0.702 C 
ATOM      5  N2  NON d   1      -0.614   3.165  -0.228  0.00  0.00    -0.107 NA
ATOM      6  N4  NON d   1      -2.789   2.072   0.073  0.00  0.00    -0.190 N 
ATOM      7  H8  NON d   1      -1.821   5.123  -0.108  0.00  0.00     0.187 HD
ATOM      8  H19 NON d   1      -3.760   2.375   0.186  0.00  0.00     0.184 HD
ENDROOT
BRANCH   5   9
ATOM      9  C9  NON d   1       0.072   1.894  -0.533  0.00  0.00     0.173 C 
BRANCH   9  10
ATOM     10  C10 NON d   1       1.615   1.894  -0.478  0.00  0.00     0.063 C 
BRANCH  10  11
ATOM     11  C11 NON d   1       2.180   0.468  -0.500  0.00  0.00    -0.029 A 
ATOM     12  C12 NON d   1       3.542   0.037  -0.288  0.00  0.00    -0.002 A 
ATOM     13  C13 NON d   1       4.769   0.689  -0.042  0.00  0.00     0.014 A 
ATOM     14  C17 NON d   1       3.561  -1.364  -0.345  0.00  0.00     0.042 A 
ATOM     15  C14 NON d   1       5.942  -0.067   0.128  0.00  0.00     0.001 A 
ATOM     16  C15 NON d   1       5.914  -1.458   0.070  0.00  0.00     0.002 A 
ATOM     17  C16 NON d   1       4.719  -2.137  -0.168  0.00  0.00     0.030 A 
ATOM     18  N3  NON d   1       2.277  -1.775  -0.593  0.00  0.00    -0.365 N 
ATOM     19  C18 NON d   1       1.452  -0.694  -0.713  0.00  0.00     0.096 A 
ATOM     20  H17 NON d   1       1.988  -2.740  -0.676  0.00  0.00     0.165 HD
ENDBRANCH  10  11
ENDBRANCH   9  10
ENDBRANCH   5   9
BRANCH   6  21
ATOM     21  C19 NON d   1      -2.690   0.701   0.351  0.00  0.00     0.049 C 
ATOM     22  C20 NON d   1      -1.875   0.150   1.343  0.00  0.00     0.030 C 
ATOM     23  C21 NON d   1      -1.736  -1.238   1.463  0.00  0.00     0.002 C 
ATOM     24  C22 NON d   1      -2.480  -2.088   0.647  0.00  0.00     0.000 C 
ATOM     25  C23 NON d   1      -3.382  -1.552  -0.266  0.00  0.00     0.002 C 
ATOM     26  C24 NON d   1      -3.488  -0.169  -0.407  0.00  0.00     0.030 C 
ENDBRANCH   6  21
BRANCH   1  27
ATOM     27  C6  NON d   1      -4.221   6.130  -0.065  0.00  0.00     0.142 C 
BRANCH  27  28
ATOM     28  C5  NON d   1      -5.691   6.557  -0.029  0.00  0.00    -0.047 A 
ATOM     29  C4  NON d   1      -5.962   7.920   0.175  0.00  0.00     0.010 A 
ATOM     30  C3  NON d   1      -7.273   8.415   0.163  0.00  0.00     0.040 A 
ATOM     31  C2  NON d   1      -8.372   7.580  -0.067  0.00  0.00     0.101 A 
ATOM     32  C26 NON d   1      -8.126   6.217  -0.257  0.00  0.00     0.102 A 
ATOM     33  C25 NON d   1      -6.798   5.722  -0.272  0.00  0.00     0.047 A 
BRANCH  31  34
ATOM     34  O1  NON d   1      -9.557   8.258  -0.055  0.00  0.00    -0.353 OA
ATOM     35  C1  NON d   1     -10.706   7.694  -0.671  0.00  0.00     0.210 C 
ENDBRANCH  31  34
BRANCH  32  36
ATOM     36  O3  NON d   1      -9.116   5.307  -0.529  0.00  0.00    -0.353 OA
ATOM     37  C27 NON d   1      -9.851   4.938   0.640  0.00  0.00     0.210 C 
ENDBRANCH  32  36
ENDBRANCH  27  28
ENDBRANCH   1  27
TORSDOF 8
