REMARK  7 active torsions:
REMARK  status: ('A' for Active; 'I' for Inactive)
REMARK    1  A    between atoms: C2_2  and  C3_3 
REMARK    2  A    between atoms: C8_8  and  C9_9 
REMARK    3  A    between atoms: C10_11  and  C9_9 
REMARK    4  A    between atoms: C10_11  and  N1_12 
REMARK    5  A    between atoms: C10_11  and  C15_19 
REMARK    6  A    between atoms: N1_12  and  N2_13 
REMARK       I    between atoms: N2_13  and  C11_14 
REMARK    7  A    between atoms: C11_14  and  C12_16 
ROOT
ATOM      1  C10 NON d   1       5.942   2.711   0.000  0.00  0.00     0.184 C 
ENDROOT
BRANCH   1   2
ATOM      2  C9  NON d   1       4.433   3.073  -0.585  0.00  0.00     0.185 C 
ATOM      3  O1  NON d   1       4.338   3.781  -1.598  0.00  0.00    -0.290 OA
BRANCH   2   4
ATOM      4  C8  NON d   1       3.170   2.662   0.080  0.00  0.00     0.040 C 
ATOM      5  C7  NON d   1       1.907   3.366  -0.005  0.00  0.00     0.006 C 
ATOM      6  C6  NON d   1       1.533   4.659  -0.423  0.00  0.00     0.015 C 
ATOM      7  C22 NON d   1       0.892   2.470   0.343  0.00  0.00     0.049 C 
ATOM      8  C5  NON d   1       0.180   5.006  -0.468  0.00  0.00     0.002 C 
ATOM      9  C4  NON d   1      -0.804   4.054  -0.209  0.00  0.00     0.009 C 
ATOM     10  C3  NON d   1      -0.487   2.733   0.161  0.00  0.00    -0.031 C 
ATOM     11  N3  NON d   1       1.525   1.349   0.826  0.00  0.00    -0.364 N 
ATOM     12  C21 NON d   1       2.890   1.499   0.775  0.00  0.00     0.104 C 
ATOM     13  H23 NON d   1       1.045   0.529   1.171  0.00  0.00     0.165 HD
BRANCH  10  14
ATOM     14  C2  NON d   1      -1.525   1.638   0.261  0.00  0.00     0.036 C 
ATOM     15  C1  NON d   1      -2.986   2.024   0.053  0.00  0.00     0.010 C 
ENDBRANCH  10  14
ENDBRANCH   2   4
ENDBRANCH   1   2
BRANCH   1  16
ATOM     16  N1  NON d   1       6.964   2.787  -1.228  0.00  0.00    -0.221 NA
ATOM     17  H10 NON d   1       7.834   2.351  -0.893  0.00  0.00     0.147 HD
BRANCH  16  18
ATOM     18  N2  NON d   1       7.310   4.097  -1.634  0.00  0.00    -0.290 N 
ATOM     19  C11 NON d   1       8.539   4.619  -1.279  0.00  0.00     0.236 C 
ATOM     20  O2  NON d   1       9.341   4.053  -0.541  0.00  0.00    -0.272 OA
ATOM     21  H11 NON d   1       6.670   4.598  -2.249  0.00  0.00     0.183 HD
BRANCH  19  22
ATOM     22  C12 NON d   1       8.827   5.977  -1.803  0.00  0.00     0.079 A 
ATOM     23  C13 NON d   1       9.979   6.115  -2.821  0.00  0.00     0.015 A 
ATOM     24  C14 NON d   1       8.518   6.404  -3.167  0.00  0.00     0.015 A 
ENDBRANCH  19  22
ENDBRANCH  16  18
ENDBRANCH   1  16
BRANCH   1  25
ATOM     25  C15 NON d   1       5.942   1.171   0.000  0.00  0.00    -0.031 A 
ATOM     26  C16 NON d   1       6.839   0.562   0.903  0.00  0.00     0.009 A 
ATOM     27  C17 NON d   1       7.031  -0.822   0.913  0.00  0.00     0.001 A 
ATOM     28  C18 NON d   1       6.301  -1.632   0.048  0.00  0.00     0.000 A 
ATOM     29  C19 NON d   1       5.414  -1.057  -0.857  0.00  0.00     0.001 A 
ATOM     30  C20 NON d   1       5.268   0.333  -0.912  0.00  0.00     0.009 A 
ENDBRANCH   1  25
TORSDOF 7
