REMARK  10 active torsions:
REMARK  status: ('A' for Active; 'I' for Inactive)
REMARK    1  A    between atoms: C2_2  and  C4_4 
REMARK    2  A    between atoms: C4_4  and  C5_5 
REMARK       I    between atoms: C5_5  and  N1_7 
REMARK    3  A    between atoms: C6_8  and  N1_7 
REMARK    4  A    between atoms: C6_8  and  C7_9 
REMARK    5  A    between atoms: C6_8  and  C18_25 
REMARK       I    between atoms: C7_9  and  N2_11 
REMARK    6  A    between atoms: N2_11  and  N3_12 
REMARK    7  A    between atoms: N3_12  and  C8_13 
REMARK    8  A    between atoms: C8_13  and  N4_15 
REMARK    9  A    between atoms: N4_15  and  C9_16 
REMARK   10  A    between atoms: C14_21  and  C15_22 
ROOT
ATOM      1  C7  NON d   1      -3.975  -2.371   0.990  0.00  0.00     0.259 C 
ATOM      2  O2  NON d   1      -4.037  -2.157   2.195  0.00  0.00    -0.269 OA
ATOM      3  N2  NON d   1      -2.827  -2.105   0.134  0.00  0.00    -0.266 N 
ATOM      4  H12 NON d   1      -2.852  -2.454  -0.826  0.00  0.00     0.190 HD
ENDROOT
BRANCH   3   5
ATOM      5  N3  NON d   1      -1.481  -1.813   0.601  0.00  0.00    -0.273 N 
ATOM      6  H13 NON d   1      -1.398  -1.121   1.338  0.00  0.00     0.189 HD
BRANCH   5   7
ATOM      7  C8  NON d   1      -0.367  -2.365  -0.033  0.00  0.00     0.191 C 
ATOM      8  S1  NON d   1      -0.450  -3.788  -0.928  0.00  0.00    -0.039 SA
BRANCH   7   9
ATOM      9  N4  NON d   1       0.887  -1.776   0.071  0.00  0.00    -0.332 N 
ATOM     10  H14 NON d   1       1.631  -2.399  -0.212  0.00  0.00     0.168 HD
BRANCH   9  11
ATOM     11  C9  NON d   1       1.300  -0.419   0.261  0.00  0.00     0.041 C 
ATOM     12  C10 NON d   1       0.299   0.571   0.183  0.00  0.00     0.030 C 
ATOM     13  C11 NON d   1       0.566   1.923   0.383  0.00  0.00     0.002 C 
ATOM     14  C12 NON d   1       1.849   2.320   0.700  0.00  0.00     0.001 C 
ATOM     15  C13 NON d   1       2.880   1.378   0.724  0.00  0.00     0.010 C 
ATOM     16  C14 NON d   1       2.676   0.003   0.421  0.00  0.00    -0.028 C 
BRANCH  16  17
ATOM     17  C15 NON d   1       4.001  -0.770   0.000  0.00  0.00     0.013 C 
ATOM     18  C16 NON d   1       4.001  -2.310   0.000  0.00  0.00     0.015 C 
ATOM     19  C17 NON d   1       5.335   0.000   0.000  0.00  0.00     0.015 C 
ENDBRANCH  16  17
ENDBRANCH   9  11
ENDBRANCH   7   9
ENDBRANCH   5   7
ENDBRANCH   3   5
BRANCH   1  20
ATOM     20  C6  NON d   1      -5.335  -3.080   0.000  0.00  0.00     0.181 C 
BRANCH  20  21
ATOM     21  N1  NON d   1      -6.822  -2.788   0.434  0.00  0.00    -0.347 N 
ATOM     22  C5  NON d   1      -7.908  -2.774  -0.465  0.00  0.00     0.218 C 
ATOM     23  O1  NON d   1      -7.765  -3.012  -1.663  0.00  0.00    -0.274 OA
ATOM     24  H10 NON d   1      -6.955  -2.496   1.395  0.00  0.00     0.163 HD
BRANCH  22  25
ATOM     25  C4  NON d   1      -9.270  -2.296   0.096  0.00  0.00     0.106 C 
BRANCH  25  26
ATOM     26  C2  NON d   1     -10.669  -3.080   0.000  0.00  0.00    -0.014 C 
ATOM     27  C1  NON d   1     -11.011  -4.029   1.164  0.00  0.00     0.010 C 
ATOM     28  C3  NON d   1     -11.662  -2.901  -1.164  0.00  0.00     0.010 C 
ENDBRANCH  25  26
ENDBRANCH  22  25
ENDBRANCH  20  21
BRANCH  20  29
ATOM     29  C18 NON d   1      -5.335  -4.620   0.000  0.00  0.00     0.009 C 
ATOM     30  C19 NON d   1      -4.397  -5.603   0.787  0.00  0.00     0.012 C 
ATOM     31  C20 NON d   1      -6.668  -5.390  -0.018  0.00  0.00     0.012 C 
ENDBRANCH  20  29
ENDBRANCH   1  20
TORSDOF 10
