@<TRIPOS>MOLECULE
*****
 35 35 0 0 0
SMALL
USER_CHARGES

@<TRIPOS>ATOM
      1 C1         -4.6838   -2.3100    1.1641 C.3     1  NONAME1    -0.0622
      2 C2         -5.3347   -1.5400    0.0000 C.3     1  NONAME1    -0.0214
      3 C3         -5.1437    0.0232    0.1318 C.3     1  NONAME1     0.0925
      4 O1         -3.7681    0.5421    0.0786 O.3     1  NONAME1    -0.4612
      5 C4         -3.6842    1.9300    0.1025 C.2     1  NONAME1     0.3392
      6 O2         -4.6662    2.6620    0.1516 O.2     1  NONAME1    -0.2450
      7 C5         -2.2803    2.5373    0.0745 C.ar    1  NONAME1     0.0591
      8 C6         -2.1156    3.9404    0.1161 C.ar    1  NONAME1    -0.0460
      9 C7         -0.8316    4.5681    0.1166 C.ar    1  NONAME1    -0.0397
     10 C8          0.3654    3.8312    0.0998 C.ar    1  NONAME1     0.0326
     11 N1          1.6493    4.5484    0.1310 N.am    1  NONAME1    -0.2966
     12 C9          2.9385    4.1070    0.5428 C.2     1  NONAME1     0.1408
     13 S1          3.2045    2.6805    1.4022 S.2     1  NONAME1    -0.0182
     14 N2          4.0201    5.0214    0.2154 N.am    1  NONAME1    -0.2678
     15 C10         5.3347    4.6200    0.0000 C.2     1  NONAME1     0.2154
     16 C11         6.6684    5.3900    0.0000 C.3     1  NONAME1     0.0125
     17 O3          5.4978    3.4671   -0.4547 O.2     1  NONAME1    -0.2757
     18 C12         0.1887    2.4371    0.0040 C.ar    1  NONAME1    -0.0397
     19 C13        -1.0994    1.7979   -0.0002 C.ar    1  NONAME1    -0.0460
     20 H1         -5.3742   -1.9226    1.9415 H       1  NONAME1     0.0231
     21 H2         -4.0329   -3.0800    2.3281 H       1  NONAME1     0.0231
     22 H3         -5.0456   -3.3059    0.8350 H       1  NONAME1     0.0231
     23 H4         -6.4063   -1.7654   -0.0617 H       1  NONAME1     0.0295
     24 H5         -4.8629   -1.8641   -0.9349 H       1  NONAME1     0.0295
     25 H6         -5.5891    0.3485    1.0803 H       1  NONAME1     0.0697
     26 H7         -5.7056    0.4838   -0.6905 H       1  NONAME1     0.0697
     27 H8         -3.0047    4.5755    0.1596 H       1  NONAME1     0.0626
     28 H9         -0.8060    5.6566    0.1605 H       1  NONAME1     0.0636
     29 H10         1.5573    5.5429   -0.0291 H       1  NONAME1     0.1538
     30 H11         3.8049    5.9983    0.1077 H       1  NONAME1     0.1565
     31 H12         7.0403    4.8908    0.9211 H       1  NONAME1     0.0323
     32 H13         8.0021    6.1600    0.0000 H       1  NONAME1     0.0323
     33 H14         6.2054    6.3542    0.2986 H       1  NONAME1     0.0323
     34 H15         1.0465    1.7796   -0.1124 H       1  NONAME1     0.0636
     35 H16        -1.1477    0.7153   -0.0714 H       1  NONAME1     0.0626
@<TRIPOS>BOND
     1     1     2    1
     2     2     3    1
     3     3     4    1
     4     4     5    1
     5     5     6    2
     6     5     7    1
     7     7     8   ar
     8     8     9   ar
     9     9    10   ar
    10    10    11    1
    11    11    12    1
    12    12    13    2
    13    12    14    1
    14    14    15   am
    15    15    16    1
    16    15    17    2
    17    10    18   ar
    18    18    19   ar
    19     7    19   ar
    20     1    20    1
    21     1    21    1
    22     1    22    1
    23     2    23    1
    24     2    24    1
    25     3    25    1
    26     3    26    1
    27     8    27    1
    28     9    28    1
    29    11    29    1
    30    14    30    1
    31    16    31    1
    32    16    32    1
    33    16    33    1
    34    18    34    1
    35    19    35    1
