REMARK  10 active torsions:
REMARK  status: ('A' for Active; 'I' for Inactive)
REMARK    1  A    between atoms: C2_2  and  C3_3 
REMARK    2  A    between atoms: C3_3  and  C4_4 
REMARK    3  A    between atoms: C4_4  and  C5_5 
REMARK    4  A    between atoms: C5_5  and  C6_6 
REMARK    5  A    between atoms: C6_6  and  O1_7 
REMARK    6  A    between atoms: O1_7  and  C7_8 
REMARK    7  A    between atoms: C12_13  and  C13_14 
REMARK       I    between atoms: C13_14  and  N1_16 
REMARK    8  A    between atoms: N1_16  and  N2_17 
REMARK       I    between atoms: N2_17  and  C14_18 
REMARK    9  A    between atoms: C14_18  and  C15_20 
REMARK   10  A    between atoms: C18_23  and  N3_24 
ROOT
ATOM      1  C13 NON d   1      19.854  -8.588   0.003  0.00  0.00     0.272 C 
ATOM      2  O2  NON d   1      18.813  -9.236  -0.078  0.00  0.00    -0.266 OA
ATOM      3  N1  NON d   1      21.073  -9.249   0.078  0.00  0.00    -0.263 N 
ATOM      4  H18 NON d   1      21.988  -8.820   0.167  0.00  0.00     0.190 HD
ENDROOT
BRANCH   1   5
ATOM      5  C12 NON d   1      19.892  -7.075   0.026  0.00  0.00     0.067 A 
ATOM      6  C11 NON d   1      21.132  -6.399  -0.022  0.00  0.00     0.020 A 
ATOM      7  C10 NON d   1      21.206  -5.004   0.001  0.00  0.00     0.001 A 
ATOM      8  C9  NON d   1      20.046  -4.254   0.068  0.00  0.00     0.003 A 
ATOM      9  C8  NON d   1      18.810  -4.897   0.108  0.00  0.00     0.038 A 
ATOM     10  C7  NON d   1      18.709  -6.302   0.081  0.00  0.00     0.084 A 
BRANCH  10  11
ATOM     11  O1  NON d   1      17.492  -6.948   0.116  0.00  0.00    -0.350 OA
BRANCH  11  12
ATOM     12  C6  NON d   1      16.323  -6.133  -0.020  0.00  0.00     0.175 C 
BRANCH  12  13
ATOM     13  C5  NON d   1      15.076  -7.004  -0.110  0.00  0.00     0.027 C 
BRANCH  13  14
ATOM     14  C4  NON d   1      13.763  -6.216  -0.016  0.00  0.00     0.002 C 
BRANCH  14  15
ATOM     15  C3  NON d   1      13.354  -5.420  -1.264  0.00  0.00    -0.000 C 
BRANCH  15  16
ATOM     16  C2  NON d   1      14.021  -4.049  -1.398  0.00  0.00    -0.005 C 
ATOM     17  C1  NON d   1      13.395  -3.227  -2.517  0.00  0.00     0.005 C 
ENDBRANCH  15  16
ENDBRANCH  14  15
ENDBRANCH  13  14
ENDBRANCH  12  13
ENDBRANCH  11  12
ENDBRANCH  10  11
ENDBRANCH   1   5
BRANCH   3  18
ATOM     18  N2  NON d   1      21.087 -10.650   0.047  0.00  0.00    -0.263 N 
ATOM     19  C14 NON d   1      22.321 -11.270   0.055  0.00  0.00     0.270 C 
ATOM     20  O3  NON d   1      23.366 -10.620   0.087  0.00  0.00    -0.266 OA
ATOM     21  H19 NON d   1      20.175 -11.095  -0.001  0.00  0.00     0.190 HD
BRANCH  19  22
ATOM     22  C15 NON d   1      22.367 -12.764   0.028  0.00  0.00     0.033 A 
ATOM     23  C16 NON d   1      23.634 -13.375   0.018  0.00  0.00     0.019 A 
ATOM     24  C17 NON d   1      23.763 -14.768   0.005  0.00  0.00     0.037 A 
ATOM     25  C18 NON d   1      22.612 -15.563  -0.001  0.00  0.00     0.102 A 
ATOM     26  C19 NON d   1      21.342 -14.970   0.007  0.00  0.00     0.037 A 
ATOM     27  C20 NON d   1      21.222 -13.574   0.021  0.00  0.00     0.019 A 
BRANCH  25  28
ATOM     28  N3  NON d   1      22.735 -17.027  -0.009  0.00  0.00    -0.116 N 
ATOM     29  O4  NON d   1      23.876 -17.511   0.001  0.00  0.00    -0.532 OA
ATOM     30  O5  NON d   1      21.689 -17.692  -0.029  0.00  0.00    -0.532 OA
ENDBRANCH  25  28
ENDBRANCH  19  22
ENDBRANCH   3  18
TORSDOF 10
