@<TRIPOS>MOLECULE
*****
 62 63 0 0 0
SMALL
USER_CHARGES

@<TRIPOS>ATOM
      1 C1        -15.8126    1.9526    0.0000 C.3     1  NONAME1    -0.0307
      2 C2        -14.2726    1.9526    0.0000 C.3     1  NONAME1     0.0868
      3 O1        -13.4434    3.1535   -0.1411 O.3     1  NONAME1    -0.4911
      4 C3        -12.0318    3.0880   -0.0881 C.ar    1  NONAME1     0.1344
      5 C4        -11.3570    4.3465   -0.1163 C.ar    1  NONAME1    -0.0181
      6 C5         -9.9057    4.5253   -0.0410 C.ar    1  NONAME1    -0.0461
      7 C6         -9.0471    3.4326    0.0740 C.ar    1  NONAME1     0.0383
      8 C7         -7.5125    3.3673    0.3076 C.2     1  NONAME1     0.2496
      9 O2         -7.1399    2.3676    0.9359 O.2     1  NONAME1    -0.2698
     10 N1         -6.5354    4.3712   -0.0022 N.am    1  NONAME1    -0.2636
     11 C8         -5.1524    4.0858   -0.3541 C.2     1  NONAME1     0.1411
     12 S1         -4.7233    2.6349   -1.0929 S.2     1  NONAME1    -0.0182
     13 N2         -4.2324    5.1455   -0.0823 N.am    1  NONAME1    -0.2966
     14 C9         -2.7539    5.1652   -0.0926 C.ar    1  NONAME1     0.0326
     15 C10        -2.0645    6.3935   -0.1549 C.ar    1  NONAME1    -0.0398
     16 C11        -0.6240    6.4792   -0.1584 C.ar    1  NONAME1    -0.0479
     17 C12         0.2094    5.3402   -0.0894 C.ar    1  NONAME1     0.0368
     18 C13         1.7485    5.4830   -0.0362 C.2     1  NONAME1     0.2442
     19 O3          2.2530    6.5667    0.2464 O.2     1  NONAME1    -0.2702
     20 N3          2.5862    4.3707   -0.3201 N.am    1  NONAME1    -0.3063
     21 C14         4.0889    4.5137   -0.4212 C.3     1  NONAME1     0.0520
     22 C15         4.9259    3.1588   -0.3651 C.3     1  NONAME1    -0.0160
     23 N4          6.5173    3.2862    0.0183 N.4     1  NONAME1     0.2359
     24 C16         7.2734    3.9291    1.1959 C.3     1  NONAME1    -0.0348
     25 C17         7.0633    5.4189    1.5244 C.3     1  NONAME1    -0.0245
     26 C18         7.3011    2.6433   -1.1410 C.3     1  NONAME1    -0.0348
     27 C19         8.8408    2.6305   -1.1157 C.3     1  NONAME1    -0.0245
     28 C20        -0.4704    4.1245    0.0192 C.ar    1  NONAME1    -0.0479
     29 C21        -1.9100    4.0464    0.0243 C.ar    1  NONAME1    -0.0398
     30 C22        -9.7199    2.1833    0.0685 C.ar    1  NONAME1    -0.0321
     31 C23       -11.1525    1.9961   -0.0130 C.ar    1  NONAME1     0.0602
     32 Br1       -11.6468    0.1541   -0.0163 Br      1  NONAME1    -0.0465
     33 H1        -15.9068    2.7243    0.7896 H       1  NONAME1     0.0262
     34 H2        -17.3526    1.9526    0.0000 H       1  NONAME1     0.0262
     35 H3        -15.9173    0.9377    0.4350 H       1  NONAME1     0.0262
     36 H4        -14.0050    1.3117   -0.8458 H       1  NONAME1     0.0694
     37 H5        -13.9584    1.4891    0.9434 H       1  NONAME1     0.0694
     38 H6        -11.9707    5.2477   -0.1821 H       1  NONAME1     0.0655
     39 H7         -9.5159    5.5399   -0.0341 H       1  NONAME1     0.0626
     40 H8         -6.8750    5.2856   -0.2517 H       1  NONAME1     0.1568
     41 H9         -4.6445    6.0567    0.0790 H       1  NONAME1     0.1538
     42 H10        -2.6190    7.3284   -0.2150 H       1  NONAME1     0.0636
     43 H11        -0.1671    7.4684   -0.2102 H       1  NONAME1     0.0626
     44 H12         2.1364    3.6297   -0.8371 H       1  NONAME1     0.1492
     45 H13         4.3989    5.1926    0.3787 H       1  NONAME1     0.0515
     46 H14         4.2966    5.0236   -1.3703 H       1  NONAME1     0.0515
     47 H15         4.5210    2.4951    0.4059 H       1  NONAME1     0.0830
     48 H16         4.8618    2.6458   -1.3299 H       1  NONAME1     0.0830
     49 H17         5.7335    3.9292    1.1776 H       1  NONAME1     0.2034
     50 H18         7.0916    3.2911    2.0785 H       1  NONAME1     0.0812
     51 H19         8.3383    3.7791    0.9876 H       1  NONAME1     0.0812
     52 H20         7.8785    5.4706    2.2750 H       1  NONAME1     0.0281
     53 H21         6.8532    6.9088    1.8529 H       1  NONAME1     0.0281
     54 H22         7.4446    5.7889    0.5505 H       1  NONAME1     0.0281
     55 H23         6.9532    1.6038   -1.1642 H       1  NONAME1     0.0812
     56 H24         6.9489    3.1456   -2.0508 H       1  NONAME1     0.0812
     57 H25         8.9520    3.7207   -1.2918 H       1  NONAME1     0.0281
     58 H26        10.3806    2.6176   -1.0904 H       1  NONAME1     0.0281
     59 H27         8.9492    2.1071   -2.0881 H       1  NONAME1     0.0281
     60 H28         0.0834    3.1998    0.1532 H       1  NONAME1     0.0626
     61 H29        -2.3311    3.0591    0.1870 H       1  NONAME1     0.0636
     62 H30        -9.0997    1.2850    0.1458 H       1  NONAME1     0.0637
@<TRIPOS>BOND
     1     1     2    1
     2     2     3    1
     3     3     4    1
     4     4     5   ar
     5     5     6   ar
     6     6     7   ar
     7     7     8    1
     8     8     9    2
     9     8    10   am
    10    10    11    1
    11    11    12    2
    12    11    13    1
    13    13    14    1
    14    14    15   ar
    15    15    16   ar
    16    16    17   ar
    17    17    18    1
    18    18    19    2
    19    18    20   am
    20    20    21    1
    21    21    22    1
    22    22    23    1
    23    23    24    1
    24    24    25    1
    25    23    26    1
    26    26    27    1
    27    17    28   ar
    28    28    29   ar
    29    14    29   ar
    30     7    30   ar
    31    30    31   ar
    32     4    31   ar
    33    31    32    1
    34     1    33    1
    35     1    34    1
    36     1    35    1
    37     2    36    1
    38     2    37    1
    39     5    38    1
    40     6    39    1
    41    10    40    1
    42    13    41    1
    43    15    42    1
    44    16    43    1
    45    20    44    1
    46    21    45    1
    47    21    46    1
    48    22    47    1
    49    22    48    1
    50    23    49    1
    51    24    50    1
    52    24    51    1
    53    25    52    1
    54    25    53    1
    55    25    54    1
    56    26    55    1
    57    26    56    1
    58    27    57    1
    59    27    58    1
    60    27    59    1
    61    28    60    1
    62    29    61    1
    63    30    62    1
