@<TRIPOS>MOLECULE
*****
 53 54 0 0 0
SMALL
USER_CHARGES

@<TRIPOS>ATOM
      1 C1          3.3412   -9.2260    1.2055 C.3     1  NONAME1    -0.0633
      2 C2          2.0005   -8.4699    1.1550 C.3     1  NONAME1    -0.0333
      3 C3          1.9848   -6.9300    1.1457 C.3     1  NONAME1     0.0539
      4 C4          2.4035   -5.9753   -0.0952 C.3     1  NONAME1    -0.0163
      5 C5          2.5856   -4.4906   -0.0835 C.3     1  NONAME1     0.0194
      6 N1          1.3337   -3.8500    0.0000 N.3     1  NONAME1    -0.1899
      7 S1          0.3414   -4.0287    1.1641 S.O2    1  NONAME1     0.0584
      8 O1          0.1625   -2.5675    1.1139 O.2     1  NONAME1    -0.1531
      9 O2         -0.4340   -4.8074    0.1803 O.2     1  NONAME1    -0.1531
     10 C6         -0.6509   -4.2074    2.3281 C.ar    1  NONAME1     0.1054
     11 C7         -0.9452   -3.1892    3.2904 C.ar    1  NONAME1    -0.0336
     12 C8         -2.0753   -3.2180    4.1590 C.ar    1  NONAME1    -0.0385
     13 C9         -2.9732   -4.2852    4.1179 C.ar    1  NONAME1     0.0366
     14 N2         -3.8712   -4.4998    5.1808 N.am    1  NONAME1    -0.2512
     15 C10        -4.2885   -5.7454    5.5978 C.2     1  NONAME1     0.4043
     16 O3         -3.9939   -6.8214    5.0977 O.2     1  NONAME1    -0.2261
     17 O4         -5.0028   -5.6115    6.7492 O.3     1  NONAME1    -0.4535
     18 C11        -5.3199   -6.8457    7.4098 C.3     1  NONAME1     0.0833
     19 C12        -2.8637   -5.1850    3.0764 C.ar    1  NONAME1    -0.0385
     20 C13        -1.7680   -5.1167    2.2057 C.ar    1  NONAME1    -0.0336
     21 N3          1.2864   -6.1602    2.2820 N.ar    1  NONAME1    -0.2650
     22 N4          0.1903   -6.6287    3.2605 N.ar    1  NONAME1    -0.1667
     23 C14         0.0193   -5.6424    4.3641 C.ar    1  NONAME1     0.1654
     24 C15        -0.7720   -5.8035    5.6754 C.3     1  NONAME1     0.4359
     25 F1         -1.5633   -5.9646    6.9867 F       1  NONAME1    -0.1644
     26 F2         -0.4420   -4.4797    6.1267 F       1  NONAME1    -0.1644
     27 F3          0.2605   -6.5993    6.2710 F       1  NONAME1    -0.1644
     28 C16         1.3233   -4.9804    4.3035 C.ar    1  NONAME1    -0.0093
     29 C17         2.0813   -5.3498    3.1871 C.ar    1  NONAME1     0.0370
     30 C18         3.5028   -4.9523    2.9817 C.3     1  NONAME1    -0.0226
     31 H1          3.6672   -8.7894    2.1724 H       1  NONAME1     0.0230
     32 H2          4.6819   -9.9821    1.2559 H       1  NONAME1     0.0230
     33 H3          2.8891  -10.2216    1.3950 H       1  NONAME1     0.0230
     34 H4          1.4671   -8.7609    2.0745 H       1  NONAME1     0.0283
     35 H5          1.3398   -8.8791    0.3668 H       1  NONAME1     0.0283
     36 H6          2.6832   -7.6998    0.0093 H       1  NONAME1     0.0545
     37 H7          3.4285   -6.2536   -0.4129 H       1  NONAME1     0.0298
     38 H8          1.7165   -6.2207   -0.9220 H       1  NONAME1     0.0298
     39 H9          3.2959   -4.1229    0.6475 H       1  NONAME1     0.0442
     40 H10         3.0201   -4.1988   -1.0505 H       1  NONAME1     0.0442
     41 H11         0.8455   -3.6088   -0.8602 H       1  NONAME1     0.1480
     42 H12        -0.2772   -2.3296    3.3872 H       1  NONAME1     0.0638
     43 H13        -2.1653   -2.4426    4.9163 H       1  NONAME1     0.0637
     44 H14        -3.9983   -3.7707    5.8725 H       1  NONAME1     0.1582
     45 H15        -5.4483   -7.6849    6.7174 H       1  NONAME1     0.0661
     46 H16        -4.5321   -7.0786    8.1331 H       1  NONAME1     0.0661
     47 H17        -6.2607   -6.7113    7.9501 H       1  NONAME1     0.0661
     48 H18        -3.5820   -5.9883    2.9265 H       1  NONAME1     0.0637
     49 H19        -1.7683   -5.8938    1.4342 H       1  NONAME1     0.0638
     50 H20         1.7064   -4.3602    5.1075 H       1  NONAME1     0.0657
     51 H21         4.0281   -5.5818    2.2620 H       1  NONAME1     0.0292
     52 H22         3.5464   -3.9043    2.6649 H       1  NONAME1     0.0292
     53 H23         4.0515   -5.0068    3.9278 H       1  NONAME1     0.0292
@<TRIPOS>BOND
     1     1     2    1
     2     3     2    1
     3     3     4    1
     4     4     5    1
     5     5     6    1
     6     6     7    1
     7     7     8    2
     8     7     9    2
     9     7    10    1
    10    10    11   ar
    11    11    12   ar
    12    12    13   ar
    13    13    14    1
    14    14    15   am
    15    15    16    2
    16    15    17    1
    17    17    18    1
    18    13    19   ar
    19    19    20   ar
    20    10    20   ar
    21     3    21    1
    22    21    22   ar
    23    22    23   ar
    24    23    24    1
    25    24    25    1
    26    24    26    1
    27    24    27    1
    28    23    28   ar
    29    28    29   ar
    30    21    29   ar
    31    29    30    1
    32     1    31    1
    33     1    32    1
    34     1    33    1
    35     2    34    1
    36     2    35    1
    37     3    36    1
    38     4    37    1
    39     4    38    1
    40     5    39    1
    41     5    40    1
    42     6    41    1
    43    11    42    1
    44    12    43    1
    45    14    44    1
    46    18    45    1
    47    18    46    1
    48    18    47    1
    49    19    48    1
    50    20    49    1
    51    28    50    1
    52    30    51    1
    53    30    52    1
    54    30    53    1
