REMARK  8 active torsions:
REMARK  status: ('A' for Active; 'I' for Inactive)
REMARK    1  A    between atoms: C2_2  and  O1_3 
REMARK    2  A    between atoms: O1_3  and  C3_4 
REMARK    3  A    between atoms: C4_6  and  C3_4 
REMARK    4  A    between atoms: C4_6  and  C5_7 
REMARK    5  A    between atoms: C5_7  and  C6_9 
REMARK    6  A    between atoms: C12_15  and  N1_16 
REMARK    7  A    between atoms: N2_17  and  C12_15 
REMARK       I    between atoms: N2_17  and  C13_18 
REMARK       I    between atoms: C13_18  and  N3_19 
REMARK       I    between atoms: C13_18  and  N4_20 
REMARK    8  A    between atoms: N4_20  and  C14_21 
ROOT
ATOM      1  N2  NON d   1      17.872  -9.023   0.432  0.00  0.00    -0.207 NA
ATOM      2  C13 NON d   1      18.475 -10.171   0.279  0.00  0.00     0.193 C 
ATOM      3  N3  NON d   1      17.654 -11.253   0.288  0.00  0.00    -0.272 NA
ATOM      4  N4  NON d   1      19.806 -10.430   0.137  0.00  0.00    -0.161 N 
ATOM      5  H13 NON d   1      16.696 -11.020   0.054  0.00  0.00     0.127 HD
ATOM      6  H14 NON d   1      18.021 -12.072  -0.190  0.00  0.00     0.127 HD
ATOM      7  H15 NON d   1      20.430  -9.636   0.162  0.00  0.00     0.187 HD
ENDROOT
BRANCH   1   8
ATOM      8  C12 NON d   1      18.542  -7.820   0.479  0.00  0.00     0.124 C 
ATOM      9  C4  NON d   1      17.925  -6.726  -0.050  0.00  0.00     0.130 C 
BRANCH   9  10
ATOM     10  C3  NON d   1      16.537  -6.904  -0.552  0.00  0.00     0.300 C 
ATOM     11  O2  NON d   1      16.249  -7.348  -1.655  0.00  0.00    -0.259 OA
BRANCH  10  12
ATOM     12  O1  NON d   1      15.680  -6.377   0.365  0.00  0.00    -0.318 OA
BRANCH  12  13
ATOM     13  C2  NON d   1      14.319  -6.166  -0.038  0.00  0.00     0.174 C 
ATOM     14  C1  NON d   1      14.024  -4.673  -0.022  0.00  0.00     0.034 C 
ENDBRANCH  12  13
ENDBRANCH  10  12
ENDBRANCH   9  10
BRANCH   9  15
ATOM     15  C5  NON d   1      18.402  -5.306  -0.071  0.00  0.00     0.201 C 
ATOM     16  O3  NON d   1      17.591  -4.377  -0.018  0.00  0.00    -0.286 OA
BRANCH  15  17
ATOM     17  C6  NON d   1      19.832  -4.927  -0.188  0.00  0.00     0.015 A 
ATOM     18  C7  NON d   1      20.209  -3.675   0.329  0.00  0.00     0.015 A 
ATOM     19  C8  NON d   1      21.529  -3.238   0.241  0.00  0.00     0.001 A 
ATOM     20  C9  NON d   1      22.485  -4.046  -0.366  0.00  0.00     0.000 A 
ATOM     21  C10 NON d   1      22.115  -5.282  -0.903  0.00  0.00     0.001 A 
ATOM     22  C11 NON d   1      20.789  -5.715  -0.832  0.00  0.00     0.015 A 
ENDBRANCH  15  17
ENDBRANCH   9  15
BRANCH   8  23
ATOM     23  N1  NON d   1      19.737  -7.754   1.190  0.00  0.00    -0.286 NA
ATOM     24  H11 NON d   1      19.697  -8.453   1.931  0.00  0.00     0.125 HD
ATOM     25  H12 NON d   1      19.895  -6.839   1.611  0.00  0.00     0.125 HD
ENDBRANCH   8  23
ENDBRANCH   1   8
BRANCH   4  26
ATOM     26  C14 NON d   1      20.519 -11.633   0.057  0.00  0.00     0.729 A 
ATOM     27  N5  NON d   1      21.863 -11.488   0.027  0.00  0.00    -0.067 NA
ATOM     28  C15 NON d   1      22.577 -12.622   0.000  0.00  0.00     0.062 A 
ATOM     29  C16 NON d   1      24.117 -12.622   0.000  0.00  0.00     0.072 C 
ATOM     30  C17 NON d   1      21.921 -14.002   0.003  0.00  0.00     0.019 A 
ATOM     31  C18 NON d   1      22.521 -15.342   0.006  0.00  0.00     0.023 A 
ATOM     32  C24 NON d   1      20.513 -14.023   0.008  0.00  0.00     0.088 A 
ATOM     33  C19 NON d   1      21.807 -16.623   0.000  0.00  0.00    -0.055 A 
ATOM     34  C20 NON d   1      22.577 -17.957   0.000  0.00  0.00     0.049 C 
ATOM     35  C21 NON d   1      20.267 -16.623   0.000  0.00  0.00    -0.054 A 
ATOM     36  C22 NON d   1      19.497 -17.957   0.000  0.00  0.00     0.049 C 
ATOM     37  C23 NON d   1      19.748 -15.292   0.009  0.00  0.00     0.040 A 
ATOM     38  N6  NON d   1      19.860 -12.837   0.020  0.00  0.00    -0.062 NA
ENDBRANCH   4  26
TORSDOF 8
