REMARK  4 active torsions:
REMARK  status: ('A' for Active; 'I' for Inactive)
REMARK       I    between atoms: C1_2  and  N1_3 
REMARK    1  A    between atoms: C1_2  and  C9_12 
REMARK    2  A    between atoms: N1_3  and  O2_4 
REMARK    3  A    between atoms: O2_4  and  C2_5 
REMARK    4  A    between atoms: C2_5  and  C3_6 
ROOT
ATOM      1  O1  NON d   1       5.152   0.124  -0.132  0.00  0.00    -0.265 OA
ATOM      2  C1  NON d   1       5.105  -1.102  -0.081  0.00  0.00     0.277 C 
ATOM      3  N1  NON d   1       6.224  -1.903   0.037  0.00  0.00    -0.230 N 
ATOM      4  H1  NON d   1       6.144  -2.858   0.357  0.00  0.00     0.197 HD
ENDROOT
BRANCH   2   5
ATOM      5  C9  NON d   1       3.831  -1.833  -0.091  0.00  0.00     0.061 A 
ATOM      6  C10 NON d   1       3.644  -3.208  -0.122  0.00  0.00     0.106 A 
ATOM      7  N2  NON d   1       2.297  -3.467  -0.111  0.00  0.00    -0.364 N 
ATOM      8  C11 NON d   1       1.585  -2.293  -0.077  0.00  0.00     0.043 A 
ATOM      9  H10 NON d   1       1.877  -4.386  -0.128  0.00  0.00     0.165 HD
ATOM     10  C12 NON d   1       0.201  -2.080  -0.054  0.00  0.00     0.030 A 
ATOM     11  C16 NON d   1       2.514  -1.251  -0.066  0.00  0.00     0.008 A 
ATOM     12  C13 NON d   1      -0.253  -0.759  -0.019  0.00  0.00     0.002 A 
ATOM     13  C14 NON d   1       0.644   0.305  -0.010  0.00  0.00     0.001 A 
ATOM     14  C15 NON d   1       2.024   0.074  -0.030  0.00  0.00     0.015 A 
ENDBRANCH   2   5
BRANCH   3  15
ATOM     15  O2  NON d   1       7.401  -1.207   0.422  0.00  0.00    -0.273 OA
BRANCH  15  16
ATOM     16  C2  NON d   1       8.559  -1.973   0.080  0.00  0.00     0.240 C 
BRANCH  16  17
ATOM     17  C3  NON d   1       9.009  -2.896   1.193  0.00  0.00    -0.032 A 
ATOM     18  C4  NON d   1       8.271  -3.080   2.372  0.00  0.00     0.009 A 
ATOM     19  C5  NON d   1       8.720  -3.950   3.368  0.00  0.00     0.001 A 
ATOM     20  C6  NON d   1       9.920  -4.637   3.206  0.00  0.00     0.000 A 
ATOM     21  C7  NON d   1      10.672  -4.456   2.048  0.00  0.00     0.001 A 
ATOM     22  C8  NON d   1      10.218  -3.595   1.046  0.00  0.00     0.009 A 
ENDBRANCH  16  17
ENDBRANCH  15  16
ENDBRANCH   3  15
TORSDOF 4
