REMARK  4 active torsions:
REMARK  status: ('A' for Active; 'I' for Inactive)
REMARK    1  A    between atoms: C4_4  and  N1_5 
REMARK       I    between atoms: N1_5  and  C5_6 
REMARK    2  A    between atoms: C5_6  and  C6_8 
REMARK    3  A    between atoms: C8_10  and  C9_11 
REMARK    4  A    between atoms: C14_18  and  C15_19 
REMARK       I    between atoms: C15_19  and  N3_20 
ROOT
ATOM      1  C1  NON d   1       0.199  13.515   0.000  0.00  0.00     0.049 C 
ATOM      2  C2  NON d   1      -1.135  12.745   0.000  0.00  0.00    -0.044 A 
ATOM      3  C3  NON d   1      -1.213  11.336  -0.094  0.00  0.00     0.037 A 
ATOM      4  C4  NON d   1      -2.450  10.672  -0.013  0.00  0.00     0.035 A 
ATOM      5  C12 NON d   1      -3.610  11.442   0.116  0.00  0.00     0.030 A 
ATOM      6  C13 NON d   1      -3.550  12.835   0.192  0.00  0.00     0.020 A 
ATOM      7  C14 NON d   1      -2.322  13.498   0.134  0.00  0.00     0.037 A 
ENDROOT
BRANCH   4   8
ATOM      8  N1  NON d   1      -2.464   9.252  -0.045  0.00  0.00    -0.321 N 
ATOM      9  C5  NON d   1      -3.573   8.431   0.170  0.00  0.00     0.282 C 
ATOM     10  O1  NON d   1      -4.692   8.856   0.443  0.00  0.00    -0.265 OA
ATOM     11  H5  NON d   1      -1.570   8.802  -0.175  0.00  0.00     0.169 HD
BRANCH   9  12
ATOM     12  C6  NON d   1      -3.333   7.005   0.066  0.00  0.00     0.171 A 
ATOM     13  C7  NON d   1      -2.268   6.194  -0.269  0.00  0.00     0.075 A 
ATOM     14  C8  NON d   1      -2.774   4.865  -0.182  0.00  0.00     0.068 A 
ATOM     15  N2  NON d   1      -4.061   4.880   0.180  0.00  0.00    -0.132 NA
ATOM     16  O2  NON d   1      -4.403   6.201   0.340  0.00  0.00    -0.207 OA
BRANCH  14  17
ATOM     17  C9  NON d   1      -2.089   3.559  -0.492  0.00  0.00     0.032 C 
ATOM     18  C10 NON d   1      -2.804   2.341   0.115  0.00  0.00     0.016 C 
ATOM     19  C11 NON d   1      -0.624   3.545  -0.045  0.00  0.00     0.016 C 
ENDBRANCH  14  17
ENDBRANCH   9  12
ENDBRANCH   4   8
BRANCH   7  20
ATOM     20  C15 NON d   1      -2.293  14.984   0.270  0.00  0.00     0.249 C 
ATOM     21  N3  NON d   1      -3.368  15.675  -0.220  0.00  0.00    -0.366 N 
ATOM     22  H16 NON d   1      -3.317  16.686  -0.185  0.00  0.00     0.159 HD
ATOM     23  H17 NON d   1      -4.083  15.255  -0.797  0.00  0.00     0.159 HD
ATOM     24  O3  NON d   1      -1.357  15.586   0.779  0.00  0.00    -0.268 OA
ENDBRANCH   7  20
TORSDOF 4
