REMARK  2 active torsions:
REMARK  status: ('A' for Active; 'I' for Inactive)
REMARK       I    between atoms: C1_2  and  N1_3 
REMARK    1  A    between atoms: C1_2  and  C2_5 
REMARK    2  A    between atoms: N1_3  and  O2_4 
ROOT
ATOM      1  C2  NON d   1       1.312   2.223  -0.000  0.00  0.00     0.111 A 
ATOM      2  C3  NON d   1       2.506   1.497  -0.000  0.00  0.00     0.135 A 
ATOM      3  F1  NON d   1       3.699   2.107  -0.000  0.00  0.00    -0.205 F 
ATOM      4  C4  NON d   1       2.503   0.099  -0.000  0.00  0.00     0.043 A 
ATOM      5  C5  NON d   1       1.297  -0.598  -0.000  0.00  0.00     0.006 A 
ATOM      6  C6  NON d   1       0.098   0.110  -0.000  0.00  0.00     0.043 A 
ATOM      7  C7  NON d   1       0.113   1.506  -0.000  0.00  0.00     0.135 A 
ATOM      8  F2  NON d   1      -1.071   2.138   0.000  0.00  0.00    -0.205 F 
ENDROOT
BRANCH   1   9
ATOM      9  C1  NON d   1       1.349   3.708  -0.000  0.00  0.00     0.281 C 
ATOM     10  O1  NON d   1       2.405   4.337   0.000  0.00  0.00    -0.265 OA
ATOM     11  N1  NON d   1       0.146   4.373   0.000  0.00  0.00    -0.233 N 
ATOM     12  H1  NON d   1      -0.774   3.944   0.000  0.00  0.00     0.197 HD
BRANCH  11  13
ATOM     13  O2  NON d   1       0.207   5.784   0.000  0.00  0.00    -0.287 OA
ATOM     14  H2  NON d   1       1.177   5.945   0.000  0.00  0.00     0.244 HD
ENDBRANCH  11  13
ENDBRANCH   1   9
TORSDOF 2
