REMARK  5 active torsions:
REMARK  status: ('A' for Active; 'I' for Inactive)
REMARK    1  A    between atoms: C6_6  and  C7_7 
REMARK    2  A    between atoms: C7_7  and  N1_8 
REMARK       I    between atoms: N1_8  and  C8_9 
REMARK    3  A    between atoms: C8_9  and  C9_11 
REMARK       I    between atoms: C9_11  and  N2_13 
REMARK    4  A    between atoms: N2_13  and  C10_14 
REMARK    5  A    between atoms: C15_19  and  C16_20 
REMARK       I    between atoms: C16_20  and  N3_21 
ROOT
ATOM      1  C9  NON d   1       7.474  -7.948  -0.207  0.00  0.00     0.313 C 
ATOM      2  O2  NON d   1       7.228  -9.077  -0.607  0.00  0.00    -0.262 OA
ATOM      3  N2  NON d   1       8.699  -7.352   0.017  0.00  0.00    -0.319 N 
ATOM      4  H11 NON d   1       8.644  -6.374   0.293  0.00  0.00     0.169 HD
ENDROOT
BRANCH   1   5
ATOM      5  C8  NON d   1       6.298  -7.004   0.134  0.00  0.00     0.309 C 
ATOM      6  N1  NON d   1       5.064  -7.491  -0.223  0.00  0.00    -0.349 N 
ATOM      7  H10 NON d   1       5.050  -8.290  -0.847  0.00  0.00     0.163 HD
ATOM      8  O1  NON d   1       6.521  -5.936   0.689  0.00  0.00    -0.262 OA
BRANCH   6   9
ATOM      9  C7  NON d   1       3.841  -6.821   0.139  0.00  0.00     0.162 C 
BRANCH   9  10
ATOM     10  C6  NON d   1       2.562  -7.647   0.090  0.00  0.00    -0.029 A 
ATOM     11  C4  NON d   1       1.334  -6.930   0.000  0.00  0.00    -0.053 A 
ATOM     12  C3  NON d   1       0.104  -7.610  -0.087  0.00  0.00     0.014 A 
ATOM     13  C5  NON d   1       1.334  -5.390   0.000  0.00  0.00     0.049 C 
ATOM     14  C2  NON d   1       0.051  -8.999  -0.048  0.00  0.00    -0.061 A 
ATOM     15  C1  NON d   1      -1.263  -9.721  -0.085  0.00  0.00     0.048 C 
ATOM     16  C20 NON d   1       1.242  -9.707   0.114  0.00  0.00     0.014 A 
ATOM     17  C18 NON d   1       2.494  -9.058   0.209  0.00  0.00    -0.053 A 
ATOM     18  C19 NON d   1       3.683  -9.958   0.427  0.00  0.00     0.049 C 
ENDBRANCH   9  10
ENDBRANCH   6   9
ENDBRANCH   1   5
BRANCH   3  19
ATOM     19  C10 NON d   1       9.973  -7.949  -0.027  0.00  0.00     0.036 A 
ATOM     20  C11 NON d   1      11.076  -7.116   0.173  0.00  0.00     0.030 A 
ATOM     21  C12 NON d   1      12.372  -7.640   0.182  0.00  0.00     0.010 A 
ATOM     22  C13 NON d   1      12.594  -9.016   0.019  0.00  0.00    -0.046 A 
ATOM     23  C14 NON d   1      14.007  -9.530   0.062  0.00  0.00     0.049 C 
ATOM     24  C15 NON d   1      11.483  -9.861  -0.179  0.00  0.00     0.039 A 
ATOM     25  C17 NON d   1      10.183  -9.315  -0.221  0.00  0.00     0.047 A 
BRANCH  24  26
ATOM     26  C16 NON d   1      11.657 -11.336  -0.351  0.00  0.00     0.249 C 
ATOM     27  N3  NON d   1      10.663 -12.139   0.138  0.00  0.00    -0.366 N 
ATOM     28  H17 NON d   1       9.895 -11.802   0.700  0.00  0.00     0.159 HD
ATOM     29  H18 NON d   1      10.814 -13.138   0.081  0.00  0.00     0.159 HD
ATOM     30  O3  NON d   1      12.646 -11.831  -0.876  0.00  0.00    -0.268 OA
ENDBRANCH  24  26
ENDBRANCH   3  19
TORSDOF 5
