@<TRIPOS>MOLECULE
*****
 56 58 0 0 0
SMALL
USER_CHARGES

@<TRIPOS>ATOM
      1 O1         -0.0902  -12.4753   -0.0374 O.2     1  NONAME1    -0.2705
      2 C1         -0.9829  -11.6355   -0.0115 C.2     1  NONAME1     0.2411
      3 C2         -2.4206  -12.0577    0.0123 C.2     1  NONAME1     0.0011
      4 C3         -2.6963  -13.3739   -0.0251 C.2     1  NONAME1    -0.0483
      5 C4         -3.9791  -14.1203   -0.0027 C.ar    1  NONAME1    -0.0065
      6 C5         -3.8320  -15.5274    0.0230 C.ar    1  NONAME1    -0.0518
      7 C6         -4.9318  -16.3908    0.0370 C.ar    1  NONAME1    -0.0427
      8 C7         -6.2136  -15.8643    0.0268 C.ar    1  NONAME1     0.0424
      9 Cl1        -7.5718  -16.9182    0.0421 Cl      1  NONAME1    -0.0835
     10 C8         -6.3999  -14.4867    0.0014 C.ar    1  NONAME1    -0.0245
     11 C9         -5.2958  -13.6166   -0.0155 C.ar    1  NONAME1     0.0495
     12 Cl2        -5.6853  -11.9334   -0.0588 Cl      1  NONAME1    -0.0829
     13 N1         -0.8185  -10.2626    0.0067 N.am    1  NONAME1    -0.2820
     14 C10         0.4098   -9.5571    0.0281 C.ar    1  NONAME1     0.0337
     15 C11         0.3616   -8.1598    0.0521 C.ar    1  NONAME1    -0.0398
     16 C12         1.5438   -7.4034    0.0953 C.ar    1  NONAME1    -0.0479
     17 C13         2.8016   -8.0264    0.1129 C.ar    1  NONAME1     0.0368
     18 C14         4.0224   -7.1611    0.1971 C.2     1  NONAME1     0.2441
     19 O2          3.8963   -5.9538    0.3848 O.2     1  NONAME1    -0.2702
     20 N2          5.2645   -7.7589    0.0553 N.am    1  NONAME1    -0.3113
     21 C15         6.4742   -6.9582    0.1348 C.3     1  NONAME1     0.0131
     22 C16         7.7614   -7.7302   -0.1641 C.3     1  NONAME1    -0.0245
     23 C17         8.0950   -8.7687    0.9132 C.3     1  NONAME1     0.0005
     24 N3          9.3976   -9.4142    0.6490 N.3     1  NONAME1    -0.2979
     25 C18        10.5062   -8.6633    1.2887 C.3     1  NONAME1     0.0224
     26 C19        11.8578   -9.3924    1.1757 C.3     1  NONAME1     0.0604
     27 O3         11.7837  -10.7179    1.7161 O.3     1  NONAME1    -0.3772
     28 C20        10.7785  -11.4661    1.0232 C.3     1  NONAME1     0.0604
     29 C21         9.4018  -10.7999    1.1695 C.3     1  NONAME1     0.0224
     30 C22         2.8481   -9.4218    0.0853 C.ar    1  NONAME1    -0.0479
     31 C23         1.6628  -10.1749    0.0389 C.ar    1  NONAME1    -0.0398
     32 H1         -3.1648  -11.2825    0.0686 H       1  NONAME1     0.0670
     33 H2         -1.8281  -14.0371   -0.0743 H       1  NONAME1     0.0625
     34 H3         -2.8401  -15.9809    0.0317 H       1  NONAME1     0.0624
     35 H4         -4.7725  -17.4665    0.0551 H       1  NONAME1     0.0632
     36 H5         -7.4108  -14.0849   -0.0078 H       1  NONAME1     0.0647
     37 H6         -1.6543   -9.6910    0.0168 H       1  NONAME1     0.1551
     38 H7         -0.5892   -7.6320    0.0470 H       1  NONAME1     0.0636
     39 H8          1.4758   -6.3165    0.1228 H       1  NONAME1     0.0626
     40 H9          5.3426   -8.7290   -0.2086 H       1  NONAME1     0.1490
     41 H10         6.3712   -6.1379   -0.5854 H       1  NONAME1     0.0462
     42 H11         6.5155   -6.5085    1.1338 H       1  NONAME1     0.0462
     43 H12         7.6741   -8.2275   -1.1386 H       1  NONAME1     0.0293
     44 H13         8.5793   -7.0044   -0.2454 H       1  NONAME1     0.0293
     45 H14         7.2982   -9.5230    0.8979 H       1  NONAME1     0.0427
     46 H15         8.0700   -8.3162    1.9127 H       1  NONAME1     0.0427
     47 H16        10.2885   -8.5201    2.3553 H       1  NONAME1     0.0449
     48 H17        10.6049   -7.6741    0.8288 H       1  NONAME1     0.0449
     49 H18        12.1996   -9.4453    0.1354 H       1  NONAME1     0.0572
     50 H19        12.6178   -8.8497    1.7477 H       1  NONAME1     0.0572
     51 H20        11.0647  -11.5704   -0.0305 H       1  NONAME1     0.0572
     52 H21        10.7517  -12.4697    1.4598 H       1  NONAME1     0.0572
     53 H22         9.1175  -10.8003    2.2295 H       1  NONAME1     0.0449
     54 H23         8.6682  -11.3993    0.6178 H       1  NONAME1     0.0449
     55 H24         3.7838   -9.9681    0.1193 H       1  NONAME1     0.0626
     56 H25         1.7648  -11.2558    0.0253 H       1  NONAME1     0.0636
@<TRIPOS>BOND
     1     1     2    2
     2     2     3    1
     3     3     4    2
     4     4     5    1
     5     5     6   ar
     6     6     7   ar
     7     7     8   ar
     8     8     9    1
     9     8    10   ar
    10    10    11   ar
    11     5    11   ar
    12    11    12    1
    13     2    13   am
    14    13    14    1
    15    14    15   ar
    16    15    16   ar
    17    16    17   ar
    18    17    18    1
    19    18    19    2
    20    18    20   am
    21    20    21    1
    22    21    22    1
    23    22    23    1
    24    23    24    1
    25    24    25    1
    26    25    26    1
    27    26    27    1
    28    27    28    1
    29    28    29    1
    30    24    29    1
    31    17    30   ar
    32    30    31   ar
    33    14    31   ar
    34     3    32    1
    35     4    33    1
    36     6    34    1
    37     7    35    1
    38    10    36    1
    39    13    37    1
    40    15    38    1
    41    16    39    1
    42    20    40    1
    43    21    41    1
    44    21    42    1
    45    22    43    1
    46    22    44    1
    47    23    45    1
    48    23    46    1
    49    25    47    1
    50    25    48    1
    51    26    49    1
    52    26    50    1
    53    28    51    1
    54    28    52    1
    55    29    53    1
    56    29    54    1
    57    30    55    1
    58    31    56    1
