REMARK  7 active torsions:
REMARK  status: ('A' for Active; 'I' for Inactive)
REMARK    1  A    between atoms: C2_2  and  O1_3 
REMARK    2  A    between atoms: O1_3  and  C3_4 
REMARK    3  A    between atoms: C3_4  and  C4_5 
REMARK       I    between atoms: C4_5  and  N1_7 
REMARK    4  A    between atoms: N1_7  and  N2_8 
REMARK       I    between atoms: N2_8  and  C5_9 
REMARK       I    between atoms: C5_9  and  N3_11 
REMARK    5  A    between atoms: N3_11  and  C6_12 
REMARK    6  A    between atoms: C6_12  and  C9_15 
REMARK       I    between atoms: C9_15  and  N4_17 
REMARK    7  A    between atoms: N4_17  and  C10_18 
ROOT
ATOM      1  N2  NON d   1      12.396 -12.954   0.509  0.00  0.00    -0.249 N 
ATOM      2  C5  NON d   1      13.546 -13.203  -0.224  0.00  0.00     0.335 C 
ATOM      3  O3  NON d   1      13.534 -13.554  -1.400  0.00  0.00    -0.246 OA
ATOM      4  N3  NON d   1      14.696 -13.194   0.563  0.00  0.00    -0.324 N 
ATOM      5  H9  NON d   1      12.337 -12.060   0.995  0.00  0.00     0.192 HD
ATOM      6  H10 NON d   1      14.562 -13.233   1.571  0.00  0.00     0.165 HD
ENDROOT
BRANCH   4   7
ATOM      7  C6  NON d   1      16.004 -13.860   0.000  0.00  0.00     0.108 C 
ATOM      8  C7  NON d   1      15.234 -15.194   0.000  0.00  0.00     0.049 C 
ATOM      9  C8  NON d   1      16.774 -12.526   0.000  0.00  0.00     0.049 C 
BRANCH   7  10
ATOM     10  C9  NON d   1      17.342 -14.492   0.722  0.00  0.00     0.249 C 
ATOM     11  O4  NON d   1      17.351 -14.969   1.854  0.00  0.00    -0.270 OA
ATOM     12  N4  NON d   1      18.468 -14.421  -0.124  0.00  0.00    -0.325 N 
ATOM     13  H17 NON d   1      18.485 -13.665  -0.796  0.00  0.00     0.169 HD
BRANCH  12  14
ATOM     14  C10 NON d   1      19.729 -14.995   0.108  0.00  0.00     0.034 A 
ATOM     15  C11 NON d   1      20.862 -14.242  -0.232  0.00  0.00     0.029 A 
ATOM     16  C12 NON d   1      22.134 -14.811  -0.163  0.00  0.00     0.002 A 
ATOM     17  C13 NON d   1      22.272 -16.150   0.193  0.00  0.00     0.000 A 
ATOM     18  C14 NON d   1      21.142 -16.902   0.523  0.00  0.00     0.002 A 
ATOM     19  C15 NON d   1      19.872 -16.320   0.507  0.00  0.00     0.029 A 
ENDBRANCH  12  14
ENDBRANCH   7  10
ENDBRANCH   4   7
BRANCH   1  20
ATOM     20  N1  NON d   1      11.183 -13.388  -0.077  0.00  0.00    -0.264 N 
ATOM     21  C4  NON d   1       9.996 -12.715   0.183  0.00  0.00     0.259 C 
ATOM     22  O2  NON d   1       9.962 -11.619   0.735  0.00  0.00    -0.269 OA
ATOM     23  H8  NON d   1      11.215 -14.286  -0.553  0.00  0.00     0.190 HD
BRANCH  21  24
ATOM     24  C3  NON d   1       8.757 -13.521  -0.260  0.00  0.00     0.272 C 
BRANCH  24  25
ATOM     25  O1  NON d   1       7.479 -12.977   0.019  0.00  0.00    -0.382 OA
BRANCH  25  26
ATOM     26  C2  NON d   1       6.822 -12.387  -1.100  0.00  0.00     0.163 C 
ATOM     27  C1  NON d   1       7.330 -10.988  -1.380  0.00  0.00     0.033 C 
ENDBRANCH  25  26
ENDBRANCH  24  25
ENDBRANCH  21  24
ENDBRANCH   1  20
TORSDOF 7
