REMARK  8 active torsions:
REMARK  status: ('A' for Active; 'I' for Inactive)
REMARK    1  A    between atoms: C2_2  and  O1_3 
REMARK    2  A    between atoms: O1_3  and  C3_4 
REMARK    3  A    between atoms: C7_8  and  C8_9 
REMARK       I    between atoms: C8_9  and  N1_11 
REMARK    4  A    between atoms: N1_11  and  C9_12 
REMARK    5  A    between atoms: C14_17  and  C15_18 
REMARK       I    between atoms: C15_18  and  N2_20 
REMARK    6  A    between atoms: N2_20  and  C16_21 
REMARK    7  A    between atoms: C19_24  and  N3_25 
REMARK    8  A    between atoms: N3_25  and  C20_26 
ROOT
ATOM      1  C9  NON d   1      -6.338 -14.122   0.000  0.00  0.00     0.050 A 
ATOM      2  C10 NON d   1      -6.474 -15.518  -0.085  0.00  0.00     0.030 A 
ATOM      3  C11 NON d   1      -7.719 -16.144   0.018  0.00  0.00     0.002 A 
ATOM      4  C12 NON d   1      -8.861 -15.389   0.230  0.00  0.00     0.001 A 
ATOM      5  C13 NON d   1      -8.759 -14.001   0.317  0.00  0.00     0.019 A 
ATOM      6  C14 NON d   1      -7.514 -13.349   0.170  0.00  0.00     0.059 A 
ENDROOT
BRANCH   6   7
ATOM      7  C15 NON d   1      -7.454 -11.845   0.219  0.00  0.00     0.258 C 
ATOM      8  O3  NON d   1      -6.394 -11.314   0.536  0.00  0.00    -0.267 OA
ATOM      9  N2  NON d   1      -8.622 -11.182  -0.136  0.00  0.00    -0.323 N 
ATOM     10  H14 NON d   1      -9.385 -11.737  -0.495  0.00  0.00     0.169 HD
BRANCH   9  11
ATOM     11  C16 NON d   1      -8.880  -9.795  -0.092  0.00  0.00     0.035 A 
ATOM     12  C17 NON d   1     -10.169  -9.362  -0.425  0.00  0.00     0.032 A 
ATOM     13  C18 NON d   1     -10.512  -7.998  -0.396  0.00  0.00     0.031 A 
ATOM     14  C19 NON d   1      -9.576  -7.031  -0.033  0.00  0.00     0.032 A 
ATOM     15  C26 NON d   1      -8.287  -7.481   0.295  0.00  0.00     0.031 A 
ATOM     16  C27 NON d   1      -7.939  -8.839   0.268  0.00  0.00     0.032 A 
BRANCH  14  17
ATOM     17  N3  NON d   1      -9.827  -5.649   0.046  0.00  0.00    -0.356 N 
ATOM     18  H17 NON d   1      -8.966  -5.116   0.120  0.00  0.00     0.166 HD
BRANCH  17  19
ATOM     19  C20 NON d   1     -10.958  -4.812   0.059  0.00  0.00     0.032 A 
ATOM     20  C21 NON d   1     -12.271  -5.244   0.257  0.00  0.00     0.029 A 
ATOM     21  C22 NON d   1     -13.343  -4.340   0.225  0.00  0.00     0.002 A 
ATOM     22  C23 NON d   1     -13.115  -2.984   0.008  0.00  0.00     0.000 A 
ATOM     23  C24 NON d   1     -11.816  -2.530  -0.180  0.00  0.00     0.002 A 
ATOM     24  C25 NON d   1     -10.754  -3.437  -0.162  0.00  0.00     0.029 A 
ENDBRANCH  17  19
ENDBRANCH  14  17
ENDBRANCH   9  11
ENDBRANCH   6   7
BRANCH   1  25
ATOM     25  N1  NON d   1      -5.057 -13.488  -0.041  0.00  0.00    -0.322 N 
ATOM     26  C8  NON d   1      -3.836 -14.097  -0.266  0.00  0.00     0.256 C 
ATOM     27  O2  NON d   1      -3.689 -15.277  -0.584  0.00  0.00    -0.267 OA
ATOM     28  H9  NON d   1      -5.078 -12.492   0.176  0.00  0.00     0.169 HD
BRANCH  26  29
ATOM     29  C7  NON d   1      -2.587 -13.282  -0.107  0.00  0.00     0.035 A 
ATOM     30  C6  NON d   1      -1.393 -14.021  -0.010  0.00  0.00     0.017 A 
ATOM     31  C5  NON d   1      -0.164 -13.387   0.103  0.00  0.00     0.004 A 
ATOM     32  C4  NON d   1      -0.108 -11.999   0.117  0.00  0.00     0.037 A 
ATOM     33  C3  NON d   1      -1.278 -11.228   0.023  0.00  0.00     0.069 A 
ATOM     34  C28 NON d   1      -2.522 -11.877  -0.081  0.00  0.00     0.053 A 
BRANCH  33  35
ATOM     35  O1  NON d   1      -1.298  -9.843   0.017  0.00  0.00    -0.351 OA
BRANCH  35  36
ATOM     36  C2  NON d   1       0.000  -9.240   0.000  0.00  0.00     0.171 C 
ATOM     37  C1  NON d   1       0.000  -7.700   0.000  0.00  0.00     0.034 C 
ENDBRANCH  35  36
ENDBRANCH  33  35
ENDBRANCH  26  29
ENDBRANCH   1  25
TORSDOF 8
