REMARK  5 active torsions:
REMARK  status: ('A' for Active; 'I' for Inactive)
REMARK    1  A    between atoms: O1_1  and  C1_2 
REMARK    2  A    between atoms: C1_2  and  C2_3 
REMARK    3  A    between atoms: N1_5  and  C4_6 
REMARK    4  A    between atoms: C4_6  and  C5_7 
REMARK    5  A    between atoms: N2_16  and  O2_17 
ROOT
ATOM      1  C2  NON d   1      -0.230  -0.023   0.216  0.00  0.00    -0.005 C 
ATOM      2  C3  NON d   1      -1.000  -1.164   0.406  0.00  0.00     0.101 C 
ATOM      3  N1  NON d   1      -0.247  -2.270   0.148  0.00  0.00    -0.354 N 
ATOM      4  C11 NON d   1       1.063  -1.860   0.020  0.00  0.00     0.024 C 
ATOM      5  C12 NON d   1       1.126  -0.466   0.046  0.00  0.00     0.023 C 
ATOM      6  C13 NON d   1       2.440   0.182  -0.121  0.00  0.00     0.074 C 
ATOM      7  N2  NON d   1       2.773   1.429   0.047  0.00  0.00    -0.140 NA
ATOM      8  C14 NON d   1       3.594  -0.736  -0.549  0.00  0.00     0.063 C 
ATOM      9  C15 NON d   1       3.525  -2.079   0.177  0.00  0.00     0.012 C 
ATOM     10  C16 NON d   1       2.218  -2.801  -0.150  0.00  0.00     0.058 C 
ENDROOT
BRANCH   3  11
ATOM     11  C4  NON d   1      -0.658  -3.679   0.065  0.00  0.00     0.166 C 
BRANCH  11  12
ATOM     12  C5  NON d   1      -2.123  -4.052  -0.013  0.00  0.00    -0.040 A 
ATOM     13  C6  NON d   1      -2.505  -5.295   0.531  0.00  0.00     0.009 A 
ATOM     14  C7  NON d   1      -3.819  -5.759   0.432  0.00  0.00     0.001 A 
ATOM     15  C8  NON d   1      -4.779  -4.986  -0.211  0.00  0.00     0.000 A 
ATOM     16  C9  NON d   1      -4.415  -3.768  -0.781  0.00  0.00     0.001 A 
ATOM     17  C10 NON d   1      -3.091  -3.321  -0.710  0.00  0.00     0.009 A 
ENDBRANCH  11  12
ENDBRANCH   3  11
BRANCH   1  18
ATOM     18  C1  NON d   1      -0.773   1.369   0.214  0.00  0.00     0.205 C 
BRANCH  18  19
ATOM     19  O1  NON d   1      -2.191   1.399   0.017  0.00  0.00    -0.396 OA
ATOM     20  H1  NON d   1      -2.439   2.337   0.027  0.00  0.00     0.209 HD
ENDBRANCH  18  19
ENDBRANCH   1  18
BRANCH   7  21
ATOM     21  O2  NON d   1       1.774   2.259   0.529  0.00  0.00    -0.266 OA
ATOM     22  H12 NON d   1       2.229   3.120   0.579  0.00  0.00     0.247 HD
ENDBRANCH   7  21
TORSDOF 5
