REMARK  8 active torsions:
REMARK  status: ('A' for Active; 'I' for Inactive)
REMARK    1  A    between atoms: C1_2  and  C2_3 
REMARK       I    between atoms: C1_2  and  N1_13 
REMARK    2  A    between atoms: C3_4  and  C4_5 
REMARK    3  A    between atoms: N1_13  and  C10_14 
REMARK    4  A    between atoms: C13_17  and  C14_18 
REMARK       I    between atoms: C14_18  and  N2_20 
REMARK    5  A    between atoms: N2_20  and  C15_21 
REMARK    6  A    between atoms: C15_21  and  C16_22 
REMARK    7  A    between atoms: C16_22  and  C17_23 
REMARK    8  A    between atoms: C17_23  and  N3_24 
ROOT
ATOM      1  C10 NON d   1       0.410  -9.557   0.028  0.00  0.00     0.035 A 
ATOM      2  C11 NON d   1       0.362  -8.160   0.052  0.00  0.00     0.030 A 
ATOM      3  C12 NON d   1       1.544  -7.403   0.095  0.00  0.00     0.019 A 
ATOM      4  C13 NON d   1       2.802  -8.026   0.113  0.00  0.00     0.032 A 
ATOM      5  C22 NON d   1       2.848  -9.422   0.085  0.00  0.00     0.019 A 
ATOM      6  C23 NON d   1       1.663 -10.175   0.039  0.00  0.00     0.030 A 
ENDROOT
BRANCH   1   7
ATOM      7  N1  NON d   1      -0.819 -10.263   0.007  0.00  0.00    -0.324 N 
ATOM      8  C1  NON d   1      -0.983 -11.636  -0.011  0.00  0.00     0.245 C 
ATOM      9  O1  NON d   1      -0.090 -12.475  -0.037  0.00  0.00    -0.268 OA
ATOM     10  H6  NON d   1      -1.654  -9.691   0.017  0.00  0.00     0.169 HD
BRANCH   8  11
ATOM     11  C2  NON d   1      -2.421 -12.058   0.012  0.00  0.00     0.075 C 
ATOM     12  C3  NON d   1      -2.696 -13.374  -0.025  0.00  0.00     0.018 C 
BRANCH  12  13
ATOM     13  C4  NON d   1      -3.979 -14.120  -0.003  0.00  0.00    -0.014 A 
ATOM     14  C5  NON d   1      -3.832 -15.527   0.023  0.00  0.00     0.015 A 
ATOM     15  C6  NON d   1      -4.932 -16.391   0.037  0.00  0.00     0.024 A 
ATOM     16  C7  NON d   1      -6.214 -15.864   0.027  0.00  0.00     0.035 A 
ATOM     17 Cl1  NON d   1      -7.572 -16.918   0.042  0.00  0.00    -0.084 Cl
ATOM     18  C8  NON d   1      -6.400 -14.487   0.001  0.00  0.00     0.048 A 
ATOM     19  C9  NON d   1      -5.296 -13.617  -0.015  0.00  0.00     0.045 A 
ATOM     20 Cl2  NON d   1      -5.685 -11.933  -0.059  0.00  0.00    -0.083 Cl
ENDBRANCH  12  13
ENDBRANCH   8  11
ENDBRANCH   1   7
BRANCH   4  21
ATOM     21  C14 NON d   1       4.022  -7.161   0.197  0.00  0.00     0.251 C 
ATOM     22  O2  NON d   1       3.896  -5.954   0.385  0.00  0.00    -0.268 OA
ATOM     23  N2  NON d   1       5.264  -7.759   0.055  0.00  0.00    -0.357 N 
ATOM     24  H9  NON d   1       5.343  -8.729  -0.209  0.00  0.00     0.162 HD
BRANCH  23  25
ATOM     25  C15 NON d   1       6.474  -6.958   0.135  0.00  0.00     0.124 C 
BRANCH  25  26
ATOM     26  C16 NON d   1       7.761  -7.730  -0.164  0.00  0.00     0.050 C 
BRANCH  26  27
ATOM     27  C17 NON d   1       8.095  -8.769   0.913  0.00  0.00     0.274 C 
BRANCH  27  28
ATOM     28  N3  NON d   1       9.398  -9.414   0.649  0.00  0.00     0.092 N 
ATOM     29  C18 NON d   1      10.506  -8.663   1.289  0.00  0.00     0.298 C 
ATOM     30  C19 NON d   1      11.858  -9.392   1.176  0.00  0.00     0.198 C 
ATOM     31  O3  NON d   1      11.784 -10.718   1.716  0.00  0.00    -0.388 OA
ATOM     32  C20 NON d   1      10.778 -11.466   1.023  0.00  0.00     0.198 C 
ATOM     33  C21 NON d   1       9.402 -10.800   1.169  0.00  0.00     0.298 C 
ENDBRANCH  27  28
ENDBRANCH  26  27
ENDBRANCH  25  26
ENDBRANCH  23  25
ENDBRANCH   4  21
TORSDOF 8
