REMARK  6 active torsions:
REMARK  status: ('A' for Active; 'I' for Inactive)
REMARK    1  A    between atoms: C2_2  and  C9_19 
REMARK    2  A    between atoms: N1_3  and  N2_4 
REMARK       I    between atoms: N2_4  and  C3_5 
REMARK    3  A    between atoms: C3_5  and  C4_7 
REMARK    4  A    between atoms: N5_12  and  C7_13 
REMARK    5  A    between atoms: C8_17  and  N8_18 
REMARK    6  A    between atoms: C12_22  and  O3_23 
ROOT
ATOM      1  N2  NON d   1       0.083  -4.384   0.030  0.00  0.00    -0.241 N 
ATOM      2  C3  NON d   1      -1.042  -5.061   0.488  0.00  0.00     0.292 C 
ATOM      3  O1  NON d   1      -1.914  -4.505   1.153  0.00  0.00    -0.264 OA
ATOM      4  H4  NON d   1       0.744  -4.832  -0.588  0.00  0.00     0.192 HD
ENDROOT
BRANCH   2   5
ATOM      5  C4  NON d   1      -1.115  -6.457   0.153  0.00  0.00     0.157 C 
ATOM      6  C5  NON d   1      -0.095  -7.383  -0.039  0.00  0.00     0.089 C 
ATOM      7  C6  NON d   1       1.379  -7.241  -0.044  0.00  0.00     0.075 C 
ATOM      8  N3  NON d   1      -0.619  -8.629  -0.156  0.00  0.00    -0.134 NA
ATOM      9  N4  NON d   1      -1.925  -8.538  -0.015  0.00  0.00    -0.058 NA
ATOM     10  N5  NON d   1      -2.291  -7.221   0.079  0.00  0.00    -0.184 N 
BRANCH  10  11
ATOM     11  C7  NON d   1      -3.675  -6.870   0.040  0.00  0.00     0.224 A 
ATOM     12  N6  NON d   1      -4.554  -7.868   0.207  0.00  0.00    -0.081 NA
ATOM     13  O2  NON d   1      -5.800  -7.280   0.073  0.00  0.00    -0.103 OA
ATOM     14  N7  NON d   1      -5.684  -5.931  -0.212  0.00  0.00    -0.089 NA
ATOM     15  C8  NON d   1      -4.375  -5.675  -0.228  0.00  0.00     0.181 A 
BRANCH  15  16
ATOM     16  N8  NON d   1      -3.897  -4.447  -0.524  0.00  0.00    -0.282 NA
ATOM     17  H8  NON d   1      -3.178  -4.087   0.115  0.00  0.00     0.126 HD
ATOM     18  H9  NON d   1      -4.618  -3.733  -0.602  0.00  0.00     0.126 HD
ENDBRANCH  15  16
ENDBRANCH  10  11
ENDBRANCH   2   5
BRANCH   1  19
ATOM     19  N1  NON d   1       0.156  -3.026   0.152  0.00  0.00    -0.176 NA
ATOM     20  C2  NON d   1       1.323  -2.446   0.080  0.00  0.00     0.061 C 
ATOM     21  C1  NON d   1       2.629  -3.220   0.028  0.00  0.00     0.073 C 
BRANCH  20  22
ATOM     22  C9  NON d   1       1.375  -0.941   0.054  0.00  0.00    -0.010 A 
ATOM     23  C10 NON d   1       0.178  -0.216   0.174  0.00  0.00     0.016 A 
ATOM     24  C11 NON d   1       0.183   1.182   0.135  0.00  0.00     0.037 A 
ATOM     25  C12 NON d   1       1.382   1.864  -0.020  0.00  0.00     0.065 A 
ATOM     26  C13 NON d   1       2.578   1.168  -0.147  0.00  0.00     0.037 A 
ATOM     27  C14 NON d   1       2.574  -0.233  -0.119  0.00  0.00     0.016 A 
BRANCH  25  28
ATOM     28  O3  NON d   1       1.343   3.226  -0.046  0.00  0.00    -0.361 OA
ATOM     29  H12 NON d   1       2.247   3.570  -0.132  0.00  0.00     0.217 HD
ENDBRANCH  25  28
ENDBRANCH  20  22
ENDBRANCH   1  19
TORSDOF 6
