REMARK  8 active torsions:
REMARK  status: ('A' for Active; 'I' for Inactive)
REMARK    1  A    between atoms: C2_2  and  S1_3 
REMARK    2  A    between atoms: C2_2  and  C11_16 
REMARK    3  A    between atoms: S1_3  and  C3_4 
REMARK    4  A    between atoms: C3_4  and  C4_5 
REMARK       I    between atoms: C4_5  and  N1_7 
REMARK    5  A    between atoms: N1_7  and  C5_8 
REMARK    6  A    between atoms: C12_18  and  N3_19 
REMARK    7  A    between atoms: C13_21  and  N5_22 
REMARK    8  A    between atoms: N5_22  and  C14_23 
ROOT
ATOM      1  C11 NON d   1      -2.664  -7.659   0.292  0.00  0.00     0.162 A 
ATOM      2  N2  NON d   1      -2.574  -8.986   0.431  0.00  0.00    -0.201 NA
ATOM      3  C12 NON d   1      -3.698  -9.667   0.459  0.00  0.00     0.219 A 
ATOM      4  N4  NON d   1      -4.886  -9.131   0.363  0.00  0.00    -0.031 NA
ATOM      5  C13 NON d   1      -4.935  -7.814   0.213  0.00  0.00     0.731 A 
ATOM      6  N6  NON d   1      -3.844  -7.030   0.164  0.00  0.00    -0.046 NA
ENDROOT
BRANCH   1   7
ATOM      7  C2  NON d   1      -1.334  -6.930   0.000  0.00  0.00     0.116 C 
ATOM      8  C1  NON d   1      -1.334  -5.390   0.000  0.00  0.00     0.029 C 
BRANCH   7   9
ATOM      9  S1  NON d   1       0.187  -7.676   0.789  0.00  0.00    -0.147 SA
BRANCH   9  10
ATOM     10  C3  NON d   1       0.160  -9.446   0.283  0.00  0.00     0.177 C 
BRANCH  10  11
ATOM     11  C4  NON d   1      -0.291  -9.813  -1.141  0.00  0.00     0.231 C 
ATOM     12  O1  NON d   1      -0.249  -9.032  -2.084  0.00  0.00    -0.272 OA
ATOM     13  N1  NON d   1      -0.658 -11.160  -1.223  0.00  0.00    -0.321 N 
ATOM     14  H7  NON d   1      -0.343 -11.758  -0.464  0.00  0.00     0.169 HD
BRANCH  13  15
ATOM     15  C5  NON d   1      -1.221 -11.859  -2.326  0.00  0.00     0.112 A 
ATOM     16  C6  NON d   1      -1.181 -13.261  -2.262  0.00  0.00     0.146 A 
ATOM     17  F1  NON d   1      -0.614 -13.850  -1.195  0.00  0.00    -0.204 F 
ATOM     18  C7  NON d   1      -1.714 -14.078  -3.261  0.00  0.00     0.045 A 
ATOM     19  C8  NON d   1      -2.322 -13.493  -4.366  0.00  0.00     0.006 A 
ATOM     20  C9  NON d   1      -2.400 -12.103  -4.446  0.00  0.00     0.045 A 
ATOM     21  C10 NON d   1      -1.859 -11.296  -3.433  0.00  0.00     0.146 A 
ATOM     22  F2  NON d   1      -2.059  -9.978  -3.535  0.00  0.00    -0.204 F 
ENDBRANCH  13  15
ENDBRANCH  10  11
ENDBRANCH   9  10
ENDBRANCH   7   9
ENDBRANCH   1   7
BRANCH   3  23
ATOM     23  N3  NON d   1      -3.624 -11.050   0.466  0.00  0.00    -0.270 NA
ATOM     24  H11 NON d   1      -4.503 -11.408   0.112  0.00  0.00     0.127 HD
ATOM     25  H12 NON d   1      -2.807 -11.329  -0.057  0.00  0.00     0.127 HD
ENDBRANCH   3  23
BRANCH   5  26
ATOM     26  N5  NON d   1      -6.190  -7.211   0.071  0.00  0.00    -0.188 N 
ATOM     27  H13 NON d   1      -6.093  -6.215  -0.057  0.00  0.00     0.184 HD
BRANCH  26  28
ATOM     28  C14 NON d   1      -7.492  -7.747  -0.005  0.00  0.00     0.049 A 
ATOM     29  C15 NON d   1      -7.779  -9.121  -0.025  0.00  0.00     0.030 A 
ATOM     30  C16 NON d   1      -9.093  -9.606  -0.048  0.00  0.00     0.002 A 
ATOM     31  C17 NON d   1     -10.160  -8.719  -0.050  0.00  0.00     0.000 A 
ATOM     32  C18 NON d   1      -9.909  -7.350  -0.030  0.00  0.00     0.002 A 
ATOM     33  C19 NON d   1      -8.590  -6.872  -0.007  0.00  0.00     0.030 A 
ENDBRANCH  26  28
ENDBRANCH   5  26
TORSDOF 8
