REMARK  12 active torsions:
REMARK  status: ('A' for Active; 'I' for Inactive)
REMARK    1  A    between atoms: C2_2  and  O1_3 
REMARK    2  A    between atoms: O1_3  and  C3_4 
REMARK    3  A    between atoms: C6_7  and  C7_8 
REMARK       I    between atoms: C7_8  and  N1_10 
REMARK    4  A    between atoms: N1_10  and  C8_11 
REMARK    5  A    between atoms: C8_11  and  N2_13 
REMARK    6  A    between atoms: N2_13  and  C9_14 
REMARK    7  A    between atoms: C12_17  and  C13_18 
REMARK       I    between atoms: C13_18  and  N3_20 
REMARK    8  A    between atoms: N3_20  and  C14_21 
REMARK    9  A    between atoms: C14_21  and  C15_22 
REMARK   10  A    between atoms: C15_22  and  N4_23 
REMARK   11  A    between atoms: N4_23  and  C16_24 
REMARK   12  A    between atoms: N4_23  and  C18_26 
ROOT
ATOM      1  C9  NON d   1      -2.754   5.165  -0.093  0.00  0.00     0.034 A 
ATOM      2  C10 NON d   1      -2.064   6.394  -0.155  0.00  0.00     0.030 A 
ATOM      3  C11 NON d   1      -0.624   6.479  -0.158  0.00  0.00     0.019 A 
ATOM      4  C12 NON d   1       0.209   5.340  -0.089  0.00  0.00     0.032 A 
ATOM      5  C20 NON d   1      -0.470   4.125   0.019  0.00  0.00     0.019 A 
ATOM      6  C21 NON d   1      -1.910   4.046   0.024  0.00  0.00     0.030 A 
ENDROOT
BRANCH   1   7
ATOM      7  N2  NON d   1      -4.232   5.146  -0.082  0.00  0.00    -0.333 N 
ATOM      8  H9  NON d   1      -4.644   6.057   0.079  0.00  0.00     0.168 HD
BRANCH   7   9
ATOM      9  C8  NON d   1      -5.152   4.086  -0.354  0.00  0.00     0.179 C 
ATOM     10  S1  NON d   1      -4.723   2.635  -1.093  0.00  0.00    -0.040 SA
BRANCH   9  11
ATOM     11  N1  NON d   1      -6.535   4.371  -0.002  0.00  0.00    -0.299 N 
ATOM     12  C7  NON d   1      -7.513   3.367   0.308  0.00  0.00     0.257 C 
ATOM     13  O2  NON d   1      -7.140   2.368   0.936  0.00  0.00    -0.267 OA
ATOM     14  H8  NON d   1      -6.875   5.286  -0.252  0.00  0.00     0.171 HD
BRANCH  12  15
ATOM     15  C6  NON d   1      -9.047   3.433   0.074  0.00  0.00     0.033 A 
ATOM     16  C5  NON d   1      -9.906   4.525  -0.041  0.00  0.00     0.020 A 
ATOM     17  C4  NON d   1     -11.357   4.346  -0.116  0.00  0.00     0.039 A 
ATOM     18  C3  NON d   1     -12.032   3.088  -0.088  0.00  0.00     0.086 A 
ATOM     19  C23 NON d   1     -11.152   1.996  -0.013  0.00  0.00     0.045 A 
ATOM     20  C22 NON d   1      -9.720   2.183   0.069  0.00  0.00     0.039 A 
ATOM     21 Br1  NON d   1     -11.647   0.154  -0.016  0.00  0.00    -0.048 Br
BRANCH  18  22
ATOM     22  O1  NON d   1     -13.443   3.154  -0.141  0.00  0.00    -0.350 OA
BRANCH  22  23
ATOM     23  C2  NON d   1     -14.273   1.953   0.000  0.00  0.00     0.171 C 
ATOM     24  C1  NON d   1     -15.813   1.953   0.000  0.00  0.00     0.034 C 
ENDBRANCH  22  23
ENDBRANCH  18  22
ENDBRANCH  12  15
ENDBRANCH   9  11
ENDBRANCH   7   9
ENDBRANCH   1   7
BRANCH   4  25
ATOM     25  C13 NON d   1       1.748   5.483  -0.036  0.00  0.00     0.251 C 
ATOM     26  O3  NON d   1       2.253   6.567   0.246  0.00  0.00    -0.268 OA
ATOM     27  N3  NON d   1       2.586   4.371  -0.320  0.00  0.00    -0.355 N 
ATOM     28  H12 NON d   1       2.136   3.630  -0.837  0.00  0.00     0.162 HD
BRANCH  27  29
ATOM     29  C14 NON d   1       4.089   4.514  -0.421  0.00  0.00     0.150 C 
BRANCH  29  30
ATOM     30  C15 NON d   1       4.926   3.159  -0.365  0.00  0.00     0.254 C 
BRANCH  30  31
ATOM     31  N4  NON d   1       6.517   3.286   0.018  0.00  0.00    -0.070 N 
ATOM     32  H17 NON d   1       5.734   3.929   1.178  0.00  0.00     0.279 HD
BRANCH  31  33
ATOM     33  C16 NON d   1       7.273   3.929   1.196  0.00  0.00     0.230 C 
ATOM     34  C17 NON d   1       7.063   5.419   1.524  0.00  0.00     0.034 C 
ENDBRANCH  31  33
BRANCH  31  35
ATOM     35  C18 NON d   1       7.301   2.643  -1.141  0.00  0.00     0.230 C 
ATOM     36  C19 NON d   1       8.841   2.631  -1.116  0.00  0.00     0.034 C 
ENDBRANCH  31  35
ENDBRANCH  30  31
ENDBRANCH  29  30
ENDBRANCH  27  29
ENDBRANCH   4  25
TORSDOF 12
