REMARK  6 active torsions:
REMARK  status: ('A' for Active; 'I' for Inactive)
REMARK    1  A    between atoms: S1_2  and  C1_3 
REMARK    2  A    between atoms: S1_2  and  C8_14 
REMARK    3  A    between atoms: C1_3  and  C2_4 
REMARK    4  A    between atoms: C3_6  and  C4_7 
REMARK    5  A    between atoms: C8_14  and  C9_15 
REMARK    6  A    between atoms: C8_14  and  C15_21 
ROOT
ATOM      1  O1  NON d   1      -1.601  -1.005  -1.286  0.00  0.00    -0.257 OA
ATOM      2  S1  NON d   1      -2.845  -0.362  -0.747  0.00  0.00     0.036 S 
ENDROOT
BRANCH   2   3
ATOM      3  C1  NON d   1      -3.210  -1.016   0.928  0.00  0.00     0.198 C 
BRANCH   3   4
ATOM      4  C2  NON d   1      -2.222  -1.916   1.584  0.00  0.00     0.184 A 
ATOM      5  N1  NON d   1      -0.905  -1.928   1.658  0.00  0.00    -0.203 NA
ATOM      6  C3  NON d   1      -0.669  -2.949   2.558  0.00  0.00     0.189 A 
ATOM      7  N2  NON d   1      -1.776  -3.492   3.083  0.00  0.00    -0.106 NA
ATOM      8  O2  NON d   1      -2.802  -2.818   2.439  0.00  0.00    -0.195 OA
BRANCH   6   9
ATOM      9  C4  NON d   1       0.682  -3.402   2.916  0.00  0.00     0.021 A 
ATOM     10  C5  NON d   1       1.855  -3.011   2.202  0.00  0.00     0.023 A 
ATOM     11  C6  NON d   1       2.991  -3.608   2.708  0.00  0.00     0.050 A 
ATOM     12  S2  NON d   1       2.652  -4.610   4.054  0.00  0.00    -0.113 SA
ATOM     13  C7  NON d   1       0.976  -4.273   3.943  0.00  0.00     0.065 A 
ENDBRANCH   6   9
ENDBRANCH   3   4
ENDBRANCH   2   3
BRANCH   2  14
ATOM     14  C8  NON d   1      -2.468   1.425   0.000  0.00  0.00     0.145 C 
BRANCH  14  15
ATOM     15  C9  NON d   1      -1.240   2.438  -0.688  0.00  0.00    -0.038 A 
ATOM     16  C10 NON d   1      -1.444   3.792  -0.987  0.00  0.00     0.009 A 
ATOM     17  C11 NON d   1      -0.361   4.704  -1.033  0.00  0.00     0.001 A 
ATOM     18  C12 NON d   1       0.961   4.303  -0.835  0.00  0.00     0.000 A 
ATOM     19  C13 NON d   1       1.222   2.961  -0.663  0.00  0.00     0.001 A 
ATOM     20  C14 NON d   1       0.159   2.057  -0.612  0.00  0.00     0.009 A 
ENDBRANCH  14  15
BRANCH  14  21
ATOM     21  C15 NON d   1      -3.802   2.195   0.000  0.00  0.00    -0.038 A 
ATOM     22  C16 NON d   1      -4.991   1.741  -0.613  0.00  0.00     0.009 A 
ATOM     23  C17 NON d   1      -6.203   2.433  -0.496  0.00  0.00     0.001 A 
ATOM     24  C18 NON d   1      -6.253   3.638   0.183  0.00  0.00     0.000 A 
ATOM     25  C19 NON d   1      -5.102   4.122   0.797  0.00  0.00     0.001 A 
ATOM     26  C20 NON d   1      -3.912   3.381   0.754  0.00  0.00     0.009 A 
ENDBRANCH  14  21
ENDBRANCH   2  14
TORSDOF 6
