REMARK  7 active torsions:
REMARK  status: ('A' for Active; 'I' for Inactive)
REMARK    1  A    between atoms: O1_2  and  C2_3 
REMARK    2  A    between atoms: C2_3  and  C3_4 
REMARK    3  A    between atoms: C8_11  and  C9_12 
REMARK       I    between atoms: C9_12  and  N2_14 
REMARK    4  A    between atoms: N2_14  and  C10_15 
REMARK    5  A    between atoms: C12_17  and  C13_18 
REMARK    6  A    between atoms: C19_24  and  O3_25 
REMARK    7  A    between atoms: C20_26  and  N3_27 
ROOT
ATOM      1  C3  NON d   1       6.194   2.225  -0.009  0.00  0.00    -0.017 A 
ATOM      2  C4  NON d   1       7.413   1.446  -0.014  0.00  0.00     0.037 A 
ATOM      3  C5  NON d   1       7.454   0.000   0.000  0.00  0.00     0.032 A 
ATOM      4  C6  NON d   1       8.788  -0.770   0.000  0.00  0.00     0.070 C 
ATOM      5  N1  NON d   1       6.310  -0.706   0.081  0.00  0.00    -0.246 NA
ATOM      6  C7  NON d   1       5.145   0.001   0.078  0.00  0.00     0.112 A 
ATOM      7  S1  NON d   1       3.653  -0.876   0.169  0.00  0.00    -0.062 SA
ATOM      8  C8  NON d   1       2.680   0.514   0.006  0.00  0.00     0.102 A 
ATOM      9  C20 NON d   1       3.521   1.650  -0.044  0.00  0.00     0.062 A 
ATOM     10  C21 NON d   1       4.979   1.397   0.012  0.00  0.00     0.036 A 
ENDROOT
BRANCH   8  11
ATOM     11  C9  NON d   1       1.181   0.454  -0.193  0.00  0.00     0.265 C 
ATOM     12  O2  NON d   1       0.671   1.376  -0.845  0.00  0.00    -0.267 OA
ATOM     13  N2  NON d   1       0.360  -0.640   0.289  0.00  0.00    -0.320 N 
ATOM     14  H10 NON d   1       0.836  -1.480   0.586  0.00  0.00     0.169 HD
BRANCH  13  15
ATOM     15  C10 NON d   1      -1.137  -0.694   0.265  0.00  0.00     0.069 C 
ATOM     16  C11 NON d   1      -1.942  -1.956   0.372  0.00  0.00     0.040 C 
ATOM     17  C12 NON d   1      -3.388  -2.004   0.180  0.00  0.00    -0.048 C 
ATOM     18  C17 NON d   1      -3.901  -0.718  -0.216  0.00  0.00     0.011 C 
ATOM     19  C18 NON d   1      -3.213   0.485  -0.166  0.00  0.00     0.039 C 
ATOM     20  C19 NON d   1      -1.870   0.496   0.124  0.00  0.00     0.092 C 
BRANCH  17  21
ATOM     21  C13 NON d   1      -4.513  -3.231   0.000  0.00  0.00    -0.024 C 
ATOM     22  C14 NON d   1      -5.283  -4.565   0.000  0.00  0.00     0.019 C 
ATOM     23  C15 NON d   1      -5.846  -2.461   0.000  0.00  0.00     0.019 C 
ATOM     24  C16 NON d   1      -3.926  -3.533  -1.475  0.00  0.00     0.019 C 
ENDBRANCH  17  21
BRANCH  20  25
ATOM     25  O3  NON d   1      -1.381   1.763   0.280  0.00  0.00    -0.358 OA
ATOM     26  H23 NON d   1      -0.691   1.860  -0.409  0.00  0.00     0.217 HD
ENDBRANCH  20  25
ENDBRANCH  13  15
ENDBRANCH   8  11
BRANCH   9  27
ATOM     27  N3  NON d   1       3.008   2.906  -0.161  0.00  0.00    -0.397 N 
ATOM     28  H24 NON d   1       3.567   3.683  -0.494  0.00  0.00     0.156 HD
ATOM     29  H25 NON d   1       2.023   3.017  -0.411  0.00  0.00     0.156 HD
ENDBRANCH   9  27
BRANCH   1  30
ATOM     30  C2  NON d   1       6.200   3.855  -0.047  0.00  0.00     0.206 C 
BRANCH  30  31
ATOM     31  O1  NON d   1       7.454   4.620   0.000  0.00  0.00    -0.391 OA
ATOM     32  C1  NON d   1       7.454   6.160   0.018  0.00  0.00     0.201 C 
ENDBRANCH  30  31
ENDBRANCH   1  30
TORSDOF 7
