@<TRIPOS>MOLECULE
*****
 41 43 0 0 0
SMALL
USER_CHARGES

@<TRIPOS>ATOM
      1 C1          5.1355   -3.1950    0.0000 C.3     1  NONAME1    -0.0334
      2 C2          5.1355   -4.7350    0.0000 C.ar    1  NONAME1    -0.0126
      3 C3          6.0196   -5.6705   -0.4867 C.ar    1  NONAME1    -0.0512
      4 C4          5.4369   -6.9809   -0.5104 C.ar    1  NONAME1    -0.0452
      5 C5          4.1226   -7.0085   -0.0645 C.ar    1  NONAME1     0.0381
      6 C6          3.1882   -8.1537    0.0144 C.ar    1  NONAME1     0.0832
      7 N1          3.8255   -9.2954    0.3701 N.ar    1  NONAME1    -0.2303
      8 C7          3.0988  -10.4018    0.5898 C.ar    1  NONAME1     0.1350
      9 N2          3.8597  -11.5214    0.9279 N.pl3   1  NONAME1    -0.3421
     10 C8          1.7016  -10.4152    0.5405 C.ar    1  NONAME1     0.0991
     11 C9          1.0026  -11.6117    0.9151 C.1     1  NONAME1     0.1032
     12 N3          0.4300  -12.5897    1.1734 N.1     1  NONAME1    -0.1907
     13 C10         1.0147   -9.2481    0.1213 C.ar    1  NONAME1     0.0078
     14 C11        -0.4783   -9.1976    0.0873 C.ar    1  NONAME1    -0.0162
     15 C12        -1.2452  -10.1066   -0.6654 C.ar    1  NONAME1    -0.0533
     16 C13        -2.6499  -10.0600   -0.6650 C.ar    1  NONAME1    -0.0491
     17 C14        -3.3221   -9.0776    0.0684 C.ar    1  NONAME1     0.0365
     18 C15        -4.8075   -8.9641    0.0783 C.2     1  NONAME1     0.2415
     19 N4         -5.5285  -10.1107   -0.1161 N.am    1  NONAME1    -0.3253
     20 O1         -5.3716   -7.8974    0.2883 O.2     1  NONAME1    -0.2704
     21 C16        -2.5779   -8.1486    0.7995 C.ar    1  NONAME1    -0.0491
     22 C17        -1.1787   -8.2240    0.8256 C.ar    1  NONAME1    -0.0533
     23 C18         1.8013   -8.1112   -0.2280 C.ar    1  NONAME1    -0.0149
     24 C19         1.1580   -6.9015   -0.8676 C.3     1  NONAME1    -0.0370
     25 S1          3.7043   -5.4758    0.5891 S.2     1  NONAME1    -0.0919
     26 H1          6.2421   -3.1055    0.0389 H       1  NONAME1     0.0283
     27 H2          5.1355   -1.6550    0.0000 H       1  NONAME1     0.0283
     28 H3          4.8114   -3.1137   -1.0605 H       1  NONAME1     0.0283
     29 H4          7.0043   -5.4331   -0.8704 H       1  NONAME1     0.0626
     30 H5          5.9444   -7.8624   -0.8845 H       1  NONAME1     0.0630
     31 H6          3.6486  -12.3374    0.3623 H       1  NONAME1     0.1437
     32 H7          4.8432  -11.2611    0.8572 H       1  NONAME1     0.1437
     33 H8         -0.7596  -10.8749   -1.2656 H       1  NONAME1     0.0624
     34 H9         -3.1990  -10.7813   -1.2643 H       1  NONAME1     0.0625
     35 H10        -6.5308  -10.0350    0.0129 H       1  NONAME1     0.1453
     36 H11        -5.1156  -11.0279   -0.0241 H       1  NONAME1     0.1453
     37 H12        -3.0854   -7.3661    1.3614 H       1  NONAME1     0.0625
     38 H13        -0.6374   -7.4982    1.4313 H       1  NONAME1     0.0624
     39 H14         1.8447   -6.4080   -1.5631 H       1  NONAME1     0.0278
     40 H15         0.8295   -6.1863   -0.1081 H       1  NONAME1     0.0278
     41 H16         0.2962   -7.1850   -1.4816 H       1  NONAME1     0.0278
@<TRIPOS>BOND
     1     1     2    1
     2     2     3   ar
     3     3     4   ar
     4     4     5   ar
     5     5     6    1
     6     6     7   ar
     7     7     8   ar
     8     8     9    1
     9     8    10   ar
    10    10    11    1
    11    11    12    3
    12    10    13   ar
    13    13    14    1
    14    14    15   ar
    15    15    16   ar
    16    16    17   ar
    17    17    18    1
    18    18    19   am
    19    18    20    2
    20    17    21   ar
    21    21    22   ar
    22    14    22   ar
    23    13    23   ar
    24     6    23   ar
    25    23    24    1
    26     5    25   ar
    27     2    25   ar
    28     1    26    1
    29     1    27    1
    30     1    28    1
    31     3    29    1
    32     4    30    1
    33     9    31    1
    34     9    32    1
    35    15    33    1
    36    16    34    1
    37    19    35    1
    38    19    36    1
    39    21    37    1
    40    22    38    1
    41    24    39    1
    42    24    40    1
    43    24    41    1
