REMARK  5 active torsions:
REMARK  status: ('A' for Active; 'I' for Inactive)
REMARK       I    between atoms: C2_2  and  N1_4 
REMARK    1  A    between atoms: N1_4  and  C3_5 
REMARK    2  A    between atoms: C5_7  and  N2_8 
REMARK       I    between atoms: N2_8  and  C6_9 
REMARK    3  A    between atoms: C6_9  and  C7_11 
REMARK       I    between atoms: C7_11  and  N3_13 
REMARK    4  A    between atoms: C8_14  and  N3_13 
REMARK    5  A    between atoms: C8_14  and  C10_16 
ROOT
ATOM      1  N2  NON d   1      -1.161   3.100   0.061  0.00  0.00    -0.319 N 
ATOM      2  C6  NON d   1       0.127   3.707   0.167  0.00  0.00     0.314 C 
ATOM      3  O2  NON d   1       0.355   4.892   0.371  0.00  0.00    -0.262 OA
ATOM      4  H6  NON d   1      -1.121   2.086   0.006  0.00  0.00     0.169 HD
ENDROOT
BRANCH   1   5
ATOM      5  C5  NON d   1      -2.510   3.670   0.025  0.00  0.00     0.037 A 
ATOM      6  C4  NON d   1      -2.821   5.013  -0.207  0.00  0.00     0.059 A 
ATOM      7  C3  NON d   1      -4.188   5.495  -0.233  0.00  0.00     0.042 A 
ATOM      8  C17 NON d   1      -5.335   4.620   0.000  0.00  0.00    -0.035 A 
ATOM      9  C16 NON d   1      -5.019   3.277   0.188  0.00  0.00     0.011 A 
ATOM     10  C18 NON d   1      -6.668   5.390   0.000  0.00  0.00     0.050 C 
ATOM     11  C15 NON d   1      -3.641   2.822   0.187  0.00  0.00     0.030 A 
BRANCH   7  12
ATOM     12  N1  NON d   1      -4.342   6.912  -0.525  0.00  0.00    -0.327 N 
ATOM     13  C2  NON d   1      -5.335   7.700   0.000  0.00  0.00     0.218 C 
ATOM     14  C1  NON d   1      -5.335   9.240   0.000  0.00  0.00     0.117 C 
ATOM     15  O1  NON d   1      -6.112   7.348   0.904  0.00  0.00    -0.274 OA
ATOM     16  H4  NON d   1      -3.503   7.391  -0.829  0.00  0.00     0.169 HD
ENDBRANCH   7  12
ENDBRANCH   1   5
BRANCH   2  17
ATOM     17  C7  NON d   1       1.375   2.687  -0.036  0.00  0.00     0.310 C 
ATOM     18  O3  NON d   1       1.120   1.654  -0.652  0.00  0.00    -0.262 OA
ATOM     19  N3  NON d   1       2.692   3.017   0.455  0.00  0.00    -0.344 N 
ATOM     20  H7  NON d   1       2.781   3.961   0.812  0.00  0.00     0.163 HD
BRANCH  19  21
ATOM     21  C8  NON d   1       4.001   2.310   0.000  0.00  0.00     0.121 C 
ATOM     22  C9  NON d   1       4.001   0.770   0.000  0.00  0.00     0.038 C 
BRANCH  21  23
ATOM     23  C10 NON d   1       5.321   3.038   0.174  0.00  0.00     0.005 A 
ATOM     24  C11 NON d   1       5.588   4.379   0.389  0.00  0.00     0.018 A 
ATOM     25  C12 NON d   1       6.986   4.698   0.288  0.00  0.00     0.015 A 
ATOM     26  C13 NON d   1       7.772   3.598   0.000  0.00  0.00    -0.021 A 
ATOM     27  C14 NON d   1       9.304   3.437   0.000  0.00  0.00     0.056 C 
ATOM     28  S1  NON d   1       6.801   2.201  -0.185  0.00  0.00    -0.098 SA
ENDBRANCH  21  23
ENDBRANCH  19  21
ENDBRANCH   2  17
TORSDOF 5
