@<TRIPOS>MOLECULE
*****
 55 55 0 0 0
SMALL
USER_CHARGES

@<TRIPOS>ATOM
      1 C1          9.9871  -21.9179    2.2916 C.3     1  NONAME1    -0.0622
      2 C2         11.3206  -22.6875    2.3282 C.3     1  NONAME1    -0.0214
      3 C3         12.6011  -21.8038    2.5485 C.3     1  NONAME1     0.0922
      4 O1         13.1014  -21.0774    1.3882 O.3     1  NONAME1    -0.4646
      5 C4         14.3221  -20.4468    1.5958 C.2     1  NONAME1     0.3075
      6 O2         14.9149  -20.4364    2.6688 O.2     1  NONAME1    -0.2508
      7 C5         14.8342  -19.7056    0.3549 C.3     1  NONAME1     0.0532
      8 C6         16.2017  -18.9617    0.5370 C.3     1  NONAME1     0.0344
      9 C7         17.4337  -19.8032    0.1591 C.2     1  NONAME1     0.2190
     10 O3         17.2826  -20.9408   -0.2788 O.2     1  NONAME1    -0.2754
     11 N1         18.6858  -19.1346    0.2546 N.am    1  NONAME1    -0.2667
     12 C8         19.9833  -19.6944    0.2041 C.2     1  NONAME1     0.1530
     13 S1         20.3182  -21.3460    0.1912 S.2     1  NONAME1    -0.0170
     14 N2         21.0330  -18.7443    0.2088 N.am    1  NONAME1    -0.2455
     15 N3         22.3902  -19.2274    0.0696 N.am    1  NONAME1    -0.2351
     16 C9         23.5200  -18.4047    0.0848 C.2     1  NONAME1     0.2295
     17 O4         23.4761  -17.1813    0.1583 O.2     1  NONAME1    -0.2743
     18 C10        24.8240  -19.2195   -0.0086 C.3     1  NONAME1     0.0336
     19 C11        26.1575  -18.4444   -0.0016 C.3     1  NONAME1     0.0326
     20 C12        27.3604  -19.3701   -0.2909 C.2     1  NONAME1     0.2177
     21 O5         27.1963  -20.4417   -0.8638 O.2     1  NONAME1    -0.2755
     22 N4         28.5860  -18.8266    0.0764 N.am    1  NONAME1    -0.2852
     23 C13        29.9001  -19.3927   -0.0060 C.ar    1  NONAME1     0.0377
     24 C14        30.9416  -18.4380   -0.0543 C.ar    1  NONAME1    -0.0401
     25 C15        32.2856  -18.8037   -0.1761 C.ar    1  NONAME1    -0.0586
     26 C16        32.6242  -20.1436   -0.2596 C.ar    1  NONAME1    -0.0430
     27 C17        31.6226  -21.1125   -0.1804 C.ar    1  NONAME1     0.0456
     28 Cl1        32.1551  -22.7609   -0.2998 Cl      1  NONAME1    -0.0832
     29 C18        30.2551  -20.7635   -0.0044 C.ar    1  NONAME1    -0.0110
     30 C19        29.2638  -21.8727    0.2210 C.3     1  NONAME1    -0.0366
     31 H1         10.0891  -21.4858    3.3081 H       1  NONAME1     0.0231
     32 H2          8.6537  -21.1484    2.2549 H       1  NONAME1     0.0231
     33 H3          9.3492  -22.8236    2.3532 H       1  NONAME1     0.0231
     34 H4         11.2854  -23.4360    3.1302 H       1  NONAME1     0.0295
     35 H5         11.4398  -23.2081    1.3709 H       1  NONAME1     0.0295
     36 H6         12.4197  -21.0839    3.3533 H       1  NONAME1     0.0697
     37 H7         13.4015  -22.4860    2.8613 H       1  NONAME1     0.0697
     38 H8         14.0779  -18.9439    0.1229 H       1  NONAME1     0.0382
     39 H9         14.8796  -20.4063   -0.4846 H       1  NONAME1     0.0382
     40 H10        16.3201  -18.5819    1.5573 H       1  NONAME1     0.0364
     41 H11        16.2052  -18.0978   -0.1434 H       1  NONAME1     0.0364
     42 H12        18.6491  -18.1529    0.4880 H       1  NONAME1     0.1565
     43 H13        20.9080  -17.7589   -0.0150 H       1  NONAME1     0.1718
     44 H14        22.4724  -20.2468    0.0438 H       1  NONAME1     0.1728
     45 H15        24.8324  -19.9235    0.8327 H       1  NONAME1     0.0363
     46 H16        24.7565  -19.8124   -0.9284 H       1  NONAME1     0.0363
     47 H17        26.3026  -17.9542    0.9677 H       1  NONAME1     0.0363
     48 H18        26.1494  -17.6663   -0.7738 H       1  NONAME1     0.0363
     49 H19        28.5687  -17.8268    0.2393 H       1  NONAME1     0.1548
     50 H20        30.7193  -17.3732   -0.0234 H       1  NONAME1     0.0636
     51 H21        33.0633  -18.0449   -0.2225 H       1  NONAME1     0.0619
     52 H22        33.6669  -20.4331   -0.3749 H       1  NONAME1     0.0632
     53 H23        28.4567  -21.5532    0.8845 H       1  NONAME1     0.0279
     54 H24        28.8717  -22.2330   -0.7340 H       1  NONAME1     0.0279
     55 H25        29.7136  -22.7233    0.7441 H       1  NONAME1     0.0279
@<TRIPOS>BOND
     1     1     2    1
     2     2     3    1
     3     3     4    1
     4     4     5    1
     5     5     6    2
     6     5     7    1
     7     7     8    1
     8     8     9    1
     9     9    10    2
    10     9    11   am
    11    11    12    1
    12    12    13    2
    13    12    14    1
    14    14    15    1
    15    15    16   am
    16    16    17    2
    17    16    18    1
    18    18    19    1
    19    19    20    1
    20    20    21    2
    21    20    22   am
    22    22    23    1
    23    23    24   ar
    24    24    25   ar
    25    25    26   ar
    26    26    27   ar
    27    27    28    1
    28    27    29   ar
    29    23    29   ar
    30    29    30    1
    31     1    31    1
    32     1    32    1
    33     1    33    1
    34     2    34    1
    35     2    35    1
    36     3    36    1
    37     3    37    1
    38     7    38    1
    39     7    39    1
    40     8    40    1
    41     8    41    1
    42    11    42    1
    43    14    43    1
    44    15    44    1
    45    18    45    1
    46    18    46    1
    47    19    47    1
    48    19    48    1
    49    22    49    1
    50    24    50    1
    51    25    51    1
    52    26    52    1
    53    30    53    1
    54    30    54    1
    55    30    55    1
