REMARK  12 active torsions:
REMARK  status: ('A' for Active; 'I' for Inactive)
REMARK    1  A    between atoms: C2_2  and  O1_3 
REMARK    2  A    between atoms: O1_3  and  C3_4 
REMARK    3  A    between atoms: C3_4  and  C4_5 
REMARK    4  A    between atoms: C4_5  and  O2_6 
REMARK    5  A    between atoms: O2_6  and  C5_7 
REMARK    6  A    between atoms: C8_10  and  C9_11 
REMARK       I    between atoms: C9_11  and  N1_13 
REMARK    7  A    between atoms: N1_13  and  C10_14 
REMARK    8  A    between atoms: C10_14  and  N2_16 
REMARK    9  A    between atoms: N2_16  and  N3_17 
REMARK       I    between atoms: N3_17  and  C11_18 
REMARK   10  A    between atoms: C11_18  and  C12_20 
REMARK   11  A    between atoms: C12_20  and  O5_21 
REMARK   12  A    between atoms: O5_21  and  C13_22 
ROOT
ATOM      1  C10 NON d   1      14.416  -3.874   0.059  0.00  0.00     0.193 C 
ATOM      2  S1  NON d   1      14.526  -5.559   0.132  0.00  0.00    -0.039 SA
ENDROOT
BRANCH   1   3
ATOM      3  N1  NON d   1      13.196  -3.116   0.029  0.00  0.00    -0.298 N 
ATOM      4  C9  NON d   1      11.859  -3.630  -0.025  0.00  0.00     0.257 C 
ATOM      5  O3  NON d   1      11.641  -4.829  -0.213  0.00  0.00    -0.267 OA
ATOM      6  H12 NON d   1      13.297  -2.118   0.114  0.00  0.00     0.171 HD
BRANCH   4   7
ATOM      7  C8  NON d   1      10.589  -2.769   0.095  0.00  0.00     0.032 A 
ATOM      8  C7  NON d   1      10.492  -1.378   0.123  0.00  0.00     0.020 A 
ATOM      9  C6  NON d   1       9.207  -0.728   0.199  0.00  0.00     0.038 A 
ATOM     10  C5  NON d   1       7.975  -1.425   0.262  0.00  0.00     0.068 A 
ATOM     11  C24 NON d   1       8.071  -2.810   0.240  0.00  0.00     0.038 A 
ATOM     12  C23 NON d   1       9.345  -3.456   0.155  0.00  0.00     0.020 A 
BRANCH  10  13
ATOM     13  O2  NON d   1       6.810  -0.665   0.316  0.00  0.00    -0.349 OA
BRANCH  13  14
ATOM     14  C4  NON d   1       5.500  -1.307   0.469  0.00  0.00     0.201 C 
BRANCH  14  15
ATOM     15  C3  NON d   1       4.240  -0.353   0.203  0.00  0.00     0.194 C 
BRANCH  15  16
ATOM     16  O1  NON d   1       3.518   0.098   1.389  0.00  0.00    -0.389 OA
BRANCH  16  17
ATOM     17  C2  NON d   1       2.334   0.963   1.155  0.00  0.00     0.163 C 
ATOM     18  C1  NON d   1       1.009   0.179   1.206  0.00  0.00     0.033 C 
ENDBRANCH  16  17
ENDBRANCH  15  16
ENDBRANCH  14  15
ENDBRANCH  13  14
ENDBRANCH  10  13
ENDBRANCH   4   7
ENDBRANCH   1   3
BRANCH   1  19
ATOM     19  N2  NON d   1      15.607  -3.106   0.045  0.00  0.00    -0.273 N 
ATOM     20  H13 NON d   1      15.658  -2.101  -0.106  0.00  0.00     0.189 HD
BRANCH  19  21
ATOM     21  N3  NON d   1      16.908  -3.790   0.034  0.00  0.00    -0.266 N 
ATOM     22  C11 NON d   1      18.126  -3.104  -0.018  0.00  0.00     0.260 C 
ATOM     23  O4  NON d   1      18.168  -1.875  -0.077  0.00  0.00    -0.269 OA
ATOM     24  H14 NON d   1      16.860  -4.808   0.080  0.00  0.00     0.190 HD
BRANCH  22  25
ATOM     25  C12 NON d   1      19.407  -4.033  -0.002  0.00  0.00     0.280 C 
BRANCH  25  26
ATOM     26  O5  NON d   1      20.658  -3.336  -0.002  0.00  0.00    -0.342 OA
BRANCH  26  27
ATOM     27  C13 NON d   1      21.847  -4.028   0.002  0.00  0.00     0.070 A 
ATOM     28  C14 NON d   1      22.994  -3.223   0.009  0.00  0.00     0.037 A 
ATOM     29  C15 NON d   1      24.286  -3.777   0.011  0.00  0.00     0.015 A 
ATOM     30  C16 NON d   1      24.475  -5.165   0.005  0.00  0.00    -0.026 A 
ATOM     31  C17 NON d   1      25.767  -5.735  -0.003  0.00  0.00     0.012 A 
ATOM     32  C21 NON d   1      23.332  -6.001  -0.007  0.00  0.00    -0.023 A 
ATOM     33  C18 NON d   1      25.942  -7.118  -0.015  0.00  0.00     0.001 A 
ATOM     34  C19 NON d   1      24.830  -7.950  -0.021  0.00  0.00     0.001 A 
ATOM     35  C20 NON d   1      23.541  -7.392  -0.017  0.00  0.00     0.012 A 
ATOM     36  C22 NON d   1      22.029  -5.416  -0.008  0.00  0.00     0.049 A 
ENDBRANCH  26  27
ENDBRANCH  25  26
ENDBRANCH  22  25
ENDBRANCH  19  21
ENDBRANCH   1  19
TORSDOF 12
