REMARK  4 active torsions:
REMARK  status: ('A' for Active; 'I' for Inactive)
REMARK       I    between atoms: C1_2  and  N1_3 
REMARK       I    between atoms: C1_2  and  N2_14 
REMARK    1  A    between atoms: N1_3  and  C2_4 
REMARK    2  A    between atoms: C2_4  and  C3_5 
REMARK    3  A    between atoms: C6_8  and  C7_9 
REMARK    4  A    between atoms: N2_14  and  C10_15 
ROOT
ATOM      1  O1  NON d   1       3.697  -6.920  -0.439  0.00  0.00    -0.247 OA
ATOM      2  C1  NON d   1       3.774  -5.727  -0.172  0.00  0.00     0.320 C 
ATOM      3  N1  NON d   1       2.658  -4.931  -0.004  0.00  0.00    -0.339 N 
ATOM      4  N2  NON d   1       4.936  -5.004  -0.019  0.00  0.00    -0.309 N 
ATOM      5  H1  NON d   1       2.745  -4.212   0.698  0.00  0.00     0.164 HD
ATOM      6  H8  NON d   1       4.820  -4.002  -0.067  0.00  0.00     0.170 HD
ENDROOT
BRANCH   3   7
ATOM      7  C2  NON d   1       1.363  -5.578  -0.066  0.00  0.00     0.162 C 
BRANCH   7   8
ATOM      8  C3  NON d   1       0.165  -4.664  -0.027  0.00  0.00    -0.040 A 
ATOM      9  C4  NON d   1      -1.103  -5.265   0.055  0.00  0.00     0.010 A 
ATOM     10  C5  NON d   1      -2.268  -4.494   0.076  0.00  0.00     0.019 A 
ATOM     11  C6  NON d   1      -2.205  -3.096   0.019  0.00  0.00     0.040 A 
ATOM     12  C8  NON d   1      -0.939  -2.497  -0.069  0.00  0.00     0.019 A 
ATOM     13  C9  NON d   1       0.232  -3.268  -0.100  0.00  0.00     0.010 A 
BRANCH  11  14
ATOM     14  C7  NON d   1      -3.470  -2.259   0.045  0.00  0.00     0.209 C 
ATOM     15  O2  NON d   1      -3.329  -0.996   0.011  0.00  0.00    -0.644 OA
ATOM     16  O3  NON d   1      -4.578  -2.881   0.102  0.00  0.00    -0.644 OA
ENDBRANCH  11  14
ENDBRANCH   7   8
ENDBRANCH   3   7
BRANCH   4  17
ATOM     17  C10 NON d   1       6.254  -5.510  -0.018  0.00  0.00     0.038 A 
ATOM     18  C11 NON d   1       7.303  -4.583  -0.037  0.00  0.00     0.031 A 
ATOM     19  C12 NON d   1       8.634  -5.014  -0.026  0.00  0.00     0.028 A 
ATOM     20  C13 NON d   1       8.932  -6.378   0.007  0.00  0.00     0.055 A 
ATOM     21 Cl1  NON d   1      10.597  -6.839   0.021  0.00  0.00    -0.083 Cl
ATOM     22  C14 NON d   1       7.893  -7.310   0.032  0.00  0.00     0.058 A 
ATOM     23 Cl2  NON d   1       8.182  -9.014   0.083  0.00  0.00    -0.082 Cl
ATOM     24  C15 NON d   1       6.561  -6.874   0.022  0.00  0.00     0.055 A 
ENDBRANCH   4  17
TORSDOF 4
