REMARK  4 active torsions:
REMARK  status: ('A' for Active; 'I' for Inactive)
REMARK    1  A    between atoms: N4_9  and  C4_8 
REMARK    2  A    between atoms: N5_10  and  C5_11 
REMARK    3  A    between atoms: C5_11  and  C6_12 
REMARK    4  A    between atoms: C10_16  and  N6_17 
ROOT
ATOM      1  N4  NON d   1       1.102   1.442   0.552  0.00  0.00     0.041 NA
ATOM      2  N5  NON d   1       0.365   1.576  -0.452  0.00  0.00    -0.172 NA
ENDROOT
BRANCH   1   3
ATOM      3  C4  NON d   1       2.430   1.337   0.288  0.00  0.00     0.769 A 
ATOM      4  N3  NON d   1       3.128   0.176   0.265  0.00  0.00    -0.037 NA
ATOM      5  C3  NON d   1       4.423   0.495   0.107  0.00  0.00     0.204 A 
ATOM      6  N2  NON d   1       5.436  -0.411   0.051  0.00  0.00    -0.221 NA
ATOM      7  C12 NON d   1       4.517   1.877   0.040  0.00  0.00     0.192 A 
ATOM      8  C2  NON d   1       6.579   0.174  -0.070  0.00  0.00     0.212 A 
ATOM      9  N1  NON d   1       6.800   1.529  -0.146  0.00  0.00    -0.316 N 
ATOM     10  C1  NON d   1       5.804   2.497  -0.102  0.00  0.00     0.279 A 
ATOM     11  H1  NON d   1       7.732   1.896  -0.235  0.00  0.00     0.170 HD
ATOM     12  O1  NON d   1       6.160   3.678  -0.182  0.00  0.00    -0.265 OA
ATOM     13  N7  NON d   1       3.267   2.395   0.151  0.00  0.00    -0.050 NA
ENDBRANCH   1   3
BRANCH   2  14
ATOM     14  C5  NON d   1      -1.035   1.771  -0.068  0.00  0.00     0.212 C 
BRANCH  14  15
ATOM     15  C6  NON d   1      -1.885   0.515  -0.083  0.00  0.00    -0.034 A 
ATOM     16  C7  NON d   1      -1.323  -0.771  -0.069  0.00  0.00     0.009 A 
ATOM     17  C8  NON d   1      -2.131  -1.910  -0.041  0.00  0.00     0.003 A 
ATOM     18  C9  NON d   1      -3.518  -1.784  -0.018  0.00  0.00     0.036 A 
ATOM     19  C10 NON d   1      -4.088  -0.505  -0.022  0.00  0.00     0.103 A 
ATOM     20  C11 NON d   1      -3.283   0.641  -0.052  0.00  0.00     0.045 A 
BRANCH  19  21
ATOM     21  N6  NON d   1      -5.547  -0.364   0.015  0.00  0.00    -0.116 N 
ATOM     22  O2  NON d   1      -6.226  -1.400   0.059  0.00  0.00    -0.532 OA
ATOM     23  O3  NON d   1      -6.025   0.781   0.001  0.00  0.00    -0.532 OA
ENDBRANCH  19  21
ENDBRANCH  14  15
ENDBRANCH   2  14
TORSDOF 4
