@<TRIPOS>MOLECULE
*****
 50 52 0 0 0
SMALL
USER_CHARGES

@<TRIPOS>ATOM
      1 O1          2.0309   -7.5794    0.7263 O.2     1  NONAME1    -0.2743
      2 C1          1.9322   -8.6398    0.1109 C.2     1  NONAME1     0.2291
      3 C2          0.6152   -9.2854   -0.2755 C.3     1  NONAME1     0.0257
      4 C3         -0.6384   -8.4659    0.0783 C.3     1  NONAME1    -0.0408
      5 C4         -1.2105   -7.5953   -1.0597 C.3     1  NONAME1    -0.0272
      6 C5         -0.5434   -6.2866   -1.4159 C.ar    1  NONAME1    -0.0473
      7 C6         -0.7715   -5.7335   -2.6881 C.ar    1  NONAME1    -0.0586
      8 C7         -0.1945   -4.5155   -3.0606 C.ar    1  NONAME1    -0.0615
      9 C8          0.6202   -3.8283   -2.1661 C.ar    1  NONAME1    -0.0617
     10 C9          0.8199   -4.3391   -0.8880 C.ar    1  NONAME1    -0.0615
     11 C10         0.2177   -5.5425   -0.5094 C.ar    1  NONAME1    -0.0586
     12 N1          3.0624   -9.3480   -0.2636 N.am    1  NONAME1    -0.2342
     13 N2          4.2905   -8.7172   -0.0222 N.am    1  NONAME1    -0.2304
     14 C11         5.4994   -9.3604   -0.2240 C.2     1  NONAME1     0.2602
     15 O2          5.5817  -10.5557   -0.4927 O.2     1  NONAME1    -0.2687
     16 C12         6.7327   -8.5025   -0.1084 C.ar    1  NONAME1     0.0399
     17 C13         6.6294   -7.1039   -0.0772 C.ar    1  NONAME1    -0.0495
     18 C14         7.7689   -6.3156    0.0073 C.ar    1  NONAME1    -0.0593
     19 C15         9.0269   -6.9098    0.0357 C.ar    1  NONAME1    -0.0404
     20 C16         9.1796   -8.2991   -0.0227 C.ar    1  NONAME1     0.0345
     21 N3         10.4592   -8.9202   -0.0255 N.am    1  NONAME1    -0.2790
     22 C17        11.6942   -8.2728   -0.0336 C.2     1  NONAME1     0.2835
     23 O3         11.8479   -7.0528   -0.0542 O.2     1  NONAME1    -0.2665
     24 C18        12.8595   -9.1381   -0.0251 C.ar    1  NONAME1     0.1893
     25 C19        14.2010   -8.7935   -0.0275 C.ar    1  NONAME1    -0.0113
     26 C20        14.9346   -9.9988   -0.0102 C.ar    1  NONAME1    -0.0231
     27 C21        14.0018  -11.0081   -0.0013 C.ar    1  NONAME1     0.0928
     28 O4         12.7374  -10.5014   -0.0114 O.2     1  NONAME1    -0.4583
     29 C22         8.0177   -9.0949   -0.0859 C.ar    1  NONAME1    -0.0283
     30 H1          0.5692  -10.2277    0.2860 H       1  NONAME1     0.0359
     31 H2          0.6302   -9.5370   -1.3412 H       1  NONAME1     0.0359
     32 H3         -1.4260   -9.1953    0.3153 H       1  NONAME1     0.0273
     33 H4         -0.4969   -7.8816    0.9933 H       1  NONAME1     0.0273
     34 H5         -2.2470   -7.3458   -0.7930 H       1  NONAME1     0.0313
     35 H6         -1.2696   -8.2165   -1.9634 H       1  NONAME1     0.0313
     36 H7         -1.4138   -6.2465   -3.4011 H       1  NONAME1     0.0620
     37 H8         -0.3827   -4.1037   -4.0485 H       1  NONAME1     0.0618
     38 H9          1.0863   -2.8912   -2.4569 H       1  NONAME1     0.0618
     39 H10         1.4405   -3.8026   -0.1753 H       1  NONAME1     0.0618
     40 H11         0.3654   -5.8835    0.5111 H       1  NONAME1     0.0620
     41 H12         3.0756  -10.3010   -0.6186 H       1  NONAME1     0.1728
     42 H13         4.1985   -7.7651    0.3241 H       1  NONAME1     0.1731
     43 H14         5.6804   -6.5826   -0.1358 H       1  NONAME1     0.0625
     44 H15         7.6860   -5.2314    0.0372 H       1  NONAME1     0.0618
     45 H16         9.8715   -6.2332    0.0990 H       1  NONAME1     0.0636
     46 H17        10.4953   -9.9337   -0.0454 H       1  NONAME1     0.1552
     47 H18        14.5840   -7.7810   -0.0374 H       1  NONAME1     0.0657
     48 H19        16.0104  -10.1128   -0.0045 H       1  NONAME1     0.0649
     49 H20        14.0743  -12.0868    0.0093 H       1  NONAME1     0.1029
     50 H21         8.0958  -10.1796   -0.1321 H       1  NONAME1     0.0644
@<TRIPOS>BOND
     1     1     2    2
     2     2     3    1
     3     3     4    1
     4     4     5    1
     5     5     6    1
     6     6     7   ar
     7     7     8   ar
     8     8     9   ar
     9     9    10   ar
    10    10    11   ar
    11     6    11   ar
    12     2    12   am
    13    12    13    1
    14    13    14   am
    15    14    15    2
    16    14    16    1
    17    16    17   ar
    18    17    18   ar
    19    18    19   ar
    20    19    20   ar
    21    20    21    1
    22    21    22   am
    23    22    23    2
    24    22    24    1
    25    24    25   ar
    26    25    26   ar
    27    26    27   ar
    28    27    28   ar
    29    24    28   ar
    30    20    29   ar
    31    16    29   ar
    32     3    30    1
    33     3    31    1
    34     4    32    1
    35     4    33    1
    36     5    34    1
    37     5    35    1
    38     7    36    1
    39     8    37    1
    40     9    38    1
    41    10    39    1
    42    11    40    1
    43    12    41    1
    44    13    42    1
    45    17    43    1
    46    18    44    1
    47    19    45    1
    48    21    46    1
    49    25    47    1
    50    26    48    1
    51    27    49    1
    52    29    50    1
