@<TRIPOS>MOLECULE
*****
 43 45 0 0 0
SMALL
USER_CHARGES

@<TRIPOS>ATOM
      1 C1         -2.5725  -12.9528    1.1622 C.3     1  NONAME1    -0.0617
      2 C2         -2.2328  -12.0012    0.0000 C.3     1  NONAME1    -0.0328
      3 C3         -0.9050  -11.2754   -0.5165 C.3     1  NONAME1     0.0282
      4 C4          0.3974  -12.0933   -0.4532 C.2     1  NONAME1     0.2293
      5 O1          0.4368  -13.3212   -0.4896 O.2     1  NONAME1    -0.2743
      6 N1          1.5486  -11.3179   -0.3964 N.am    1  NONAME1    -0.2341
      7 N2          2.8208  -11.9452   -0.2945 N.am    1  NONAME1    -0.2291
      8 C5          3.9523  -11.1383   -0.1889 C.2     1  NONAME1     0.2779
      9 O2          3.8285   -9.9124   -0.1439 O.2     1  NONAME1    -0.2670
     10 C6          5.2502  -11.7865   -0.1424 C.ar    1  NONAME1     0.1222
     11 C7          6.5096  -11.2004   -0.0990 C.ar    1  NONAME1    -0.0041
     12 C8          7.4693  -12.2548   -0.0736 C.ar    1  NONAME1     0.0932
     13 C9          8.9453  -12.1723   -0.0405 C.ar    1  NONAME1     0.0021
     14 C10         9.6143  -10.9375   -0.0329 C.ar    1  NONAME1    -0.0525
     15 C11        11.0157  -10.8750   -0.0082 C.ar    1  NONAME1    -0.0611
     16 C12        11.7728  -12.0438    0.0099 C.ar    1  NONAME1    -0.0617
     17 C13        11.1285  -13.2794    0.0020 C.ar    1  NONAME1    -0.0611
     18 C14         9.7301  -13.3397   -0.0198 C.ar    1  NONAME1    -0.0525
     19 N3          6.8257  -13.4340   -0.0888 N.ar    1  NONAME1    -0.1732
     20 N4          5.5196  -13.1248   -0.1235 N.ar    1  NONAME1    -0.2719
     21 C15        -3.2268  -11.8196   -1.1622 C.3     1  NONAME1    -0.0380
     22 C16        -4.6917  -12.1698   -1.0589 C.3     1  NONAME1    -0.0497
     23 C17        -4.2604  -10.7324   -1.0287 C.3     1  NONAME1    -0.0497
     24 H1         -2.9163  -13.7863    0.5175 H       1  NONAME1     0.0233
     25 H2         -2.9123  -13.9043    2.3244 H       1  NONAME1     0.0233
     26 H3         -3.4307  -12.3563    1.5341 H       1  NONAME1     0.0233
     27 H4         -1.2388  -12.1828    1.1622 H       1  NONAME1     0.0305
     28 H5         -0.9975  -10.9487   -1.5596 H       1  NONAME1     0.0361
     29 H6         -0.7798  -10.3579    0.0751 H       1  NONAME1     0.0361
     30 H7          1.5453  -10.3011   -0.3130 H       1  NONAME1     0.1728
     31 H8          2.8179  -12.9566   -0.3758 H       1  NONAME1     0.1732
     32 H9          6.7010  -10.1357   -0.0936 H       1  NONAME1     0.0662
     33 H10         9.0633  -10.0015   -0.0473 H       1  NONAME1     0.0624
     34 H11        11.5177   -9.9099   -0.0046 H       1  NONAME1     0.0618
     35 H12        12.8583  -11.9944    0.0278 H       1  NONAME1     0.0618
     36 H13        11.7127  -14.1961    0.0197 H       1  NONAME1     0.0618
     37 H14         9.2515  -14.3176   -0.0228 H       1  NONAME1     0.0624
     38 H15         4.8629  -13.8963   -0.1297 H       1  NONAME1     0.1891
     39 H16        -2.7832  -12.0153   -2.1336 H       1  NONAME1     0.0303
     40 H17        -5.0759  -12.6135   -0.1493 H       1  NONAME1     0.0268
     41 H18        -5.1864  -12.5269   -1.9571 H       1  NONAME1     0.0268
     42 H19        -4.4660  -10.1164   -1.8961 H       1  NONAME1     0.0268
     43 H20        -4.3538  -10.2097   -0.0827 H       1  NONAME1     0.0268
@<TRIPOS>BOND
     1     2     1    1
     2     2     3    1
     3     3     4    1
     4     4     5    2
     5     4     6   am
     6     6     7    1
     7     7     8   am
     8     8     9    2
     9     8    10    1
    10    10    11   ar
    11    11    12   ar
    12    12    13    1
    13    13    14   ar
    14    14    15   ar
    15    15    16   ar
    16    16    17   ar
    17    17    18   ar
    18    13    18   ar
    19    12    19   ar
    20    19    20   ar
    21    10    20   ar
    22     2    21    1
    23    21    22    1
    24    22    23    1
    25    21    23    1
    26     1    24    1
    27     1    25    1
    28     1    26    1
    29     2    27    1
    30     3    28    1
    31     3    29    1
    32     6    30    1
    33     7    31    1
    34    11    32    1
    35    14    33    1
    36    15    34    1
    37    16    35    1
    38    17    36    1
    39    18    37    1
    40    20    38    1
    41    21    39    1
    42    22    40    1
    43    22    41    1
    44    23    42    1
    45    23    43    1
