@<TRIPOS>MOLECULE
*****
 47 48 0 0 0
SMALL
USER_CHARGES

@<TRIPOS>ATOM
      1 C1         -7.6624   -8.6516    1.1622 C.3     1  NONAME1    -0.0646
      2 C2         -6.6684   -8.4700    0.0000 C.3     1  NONAME1    -0.0450
      3 C3         -5.3347   -9.2400    0.0000 C.3     1  NONAME1     0.0328
      4 C4         -5.3347  -10.7800    0.0000 C.3     1  NONAME1    -0.0541
      5 C5         -4.0010   -8.4700    0.0000 C.2     1  NONAME1     0.2200
      6 O1         -4.1288   -7.2447    0.1085 O.2     1  NONAME1    -0.2752
      7 N1         -2.7731   -9.0942   -0.0818 N.am    1  NONAME1    -0.2853
      8 C6         -1.5089   -8.4041   -0.0840 C.ar    1  NONAME1     0.0337
      9 C7         -1.4231   -6.9997   -0.0675 C.ar    1  NONAME1    -0.0405
     10 C8         -0.2071   -6.3289   -0.0623 C.ar    1  NONAME1    -0.0597
     11 C9          0.9618   -7.0577   -0.0787 C.ar    1  NONAME1    -0.0570
     12 C10         0.9448   -8.4673   -0.0961 C.ar    1  NONAME1    -0.0286
     13 C11         2.3320   -9.0609   -0.0576 C.3     1  NONAME1     0.0372
     14 N2          2.5394  -10.4720   -0.0482 N.am    1  NONAME1    -0.3071
     15 C12         3.7310  -11.1579    0.0664 C.2     1  NONAME1     0.2496
     16 O2          3.5763  -12.3634    0.2857 O.2     1  NONAME1    -0.2700
     17 C13         5.1162  -10.5120   -0.0392 C.ar    1  NONAME1     0.1028
     18 C14         5.3574   -9.1950    0.1239 C.ar    1  NONAME1    -0.0423
     19 C15         6.6811   -8.6426    0.0999 C.ar    1  NONAME1    -0.0307
     20 C16         7.6998   -9.5072   -0.0274 C.ar    1  NONAME1     0.1475
     21 C17         9.1245   -8.9562    0.0294 C.3     1  NONAME1     0.4343
     22 F1          9.7008   -8.8634   -1.2016 F       1  NONAME1    -0.1644
     23 F2          9.9701   -9.6813    0.8123 F       1  NONAME1    -0.1644
     24 F3          9.1609   -7.6855    0.5414 F       1  NONAME1    -0.1644
     25 N3          7.5927  -10.8531   -0.1931 N.ar    1  NONAME1    -0.2044
     26 C18         6.3590  -11.3967   -0.2762 C.ar    1  NONAME1     0.2829
     27 O3          6.1952  -12.5831   -0.5485 O.2     1  NONAME1    -0.2651
     28 C19        -0.2992   -9.1371   -0.1007 C.ar    1  NONAME1    -0.0358
     29 H1         -8.3301   -7.8192    0.8571 H       1  NONAME1     0.0230
     30 H2         -8.6563   -8.8331    2.3244 H       1  NONAME1     0.0230
     31 H3         -6.9678   -8.2857    1.9467 H       1  NONAME1     0.0230
     32 H4         -6.4250   -7.3968   -0.0048 H       1  NONAME1     0.0270
     33 H5         -7.1838   -8.5749   -0.9755 H       1  NONAME1     0.0270
     34 H6         -6.6684  -10.0100    0.0000 H       1  NONAME1     0.0391
     35 H7         -4.7960  -10.8805   -0.9648 H       1  NONAME1     0.0237
     36 H8         -5.3347  -12.3200    0.0000 H       1  NONAME1     0.0237
     37 H9         -4.6396  -10.8855    0.8570 H       1  NONAME1     0.0237
     38 H10        -2.7392  -10.1036   -0.1143 H       1  NONAME1     0.1548
     39 H11        -2.2907   -6.3525   -0.0596 H       1  NONAME1     0.0636
     40 H12        -0.1802   -5.2434   -0.0407 H       1  NONAME1     0.0618
     41 H13         1.9093   -6.5194   -0.0662 H       1  NONAME1     0.0621
     42 H14         2.7637   -8.6980    0.8819 H       1  NONAME1     0.0512
     43 H15         2.8830   -8.6661   -0.9185 H       1  NONAME1     0.0512
     44 H16         1.7588  -11.0880    0.1250 H       1  NONAME1     0.1493
     45 H17         4.6197   -8.4455    0.3279 H       1  NONAME1     0.0627
     46 H18         6.8205   -7.5741    0.2190 H       1  NONAME1     0.0639
     47 H19        -0.3256  -10.2225   -0.1072 H       1  NONAME1     0.0639
@<TRIPOS>BOND
     1     1     2    1
     2     3     2    1
     3     3     4    1
     4     3     5    1
     5     5     6    2
     6     5     7   am
     7     7     8    1
     8     8     9   ar
     9     9    10   ar
    10    10    11   ar
    11    11    12   ar
    12    12    13    1
    13    13    14    1
    14    14    15   am
    15    15    16    2
    16    15    17    1
    17    17    18   ar
    18    18    19   ar
    19    19    20   ar
    20    20    21    1
    21    21    22    1
    22    21    23    1
    23    21    24    1
    24    20    25   ar
    25    25    26   ar
    26    17    26   ar
    27    26    27    2
    28    12    28   ar
    29     8    28   ar
    30     1    29    1
    31     1    30    1
    32     1    31    1
    33     2    32    1
    34     2    33    1
    35     3    34    1
    36     4    35    1
    37     4    36    1
    38     4    37    1
    39     7    38    1
    40     9    39    1
    41    10    40    1
    42    11    41    1
    43    13    42    1
    44    13    43    1
    45    14    44    1
    46    18    45    1
    47    19    46    1
    48    28    47    1
