REMARK  6 active torsions:
REMARK  status: ('A' for Active; 'I' for Inactive)
REMARK    1  A    between atoms: C6_6  and  C7_7 
REMARK       I    between atoms: C7_7  and  N1_9 
REMARK    2  A    between atoms: N1_9  and  C8_10 
REMARK    3  A    between atoms: C8_10  and  C9_11 
REMARK       I    between atoms: C9_11  and  N2_13 
REMARK    4  A    between atoms: N2_13  and  N3_14 
REMARK       I    between atoms: N3_14  and  C10_15 
REMARK    5  A    between atoms: C10_15  and  C11_17 
REMARK    6  A    between atoms: C16_22  and  O4_23 
ROOT
ATOM      1  C9  NON d   1       8.991 -10.315  -0.003  0.00  0.00     0.253 C 
ATOM      2  O2  NON d   1       8.948 -11.545   0.010  0.00  0.00    -0.270 OA
ATOM      3  N2  NON d   1      10.162  -9.580   0.004  0.00  0.00    -0.266 N 
ATOM      4  H10 NON d   1      10.193  -8.561  -0.011  0.00  0.00     0.190 HD
ENDROOT
BRANCH   1   5
ATOM      5  C8  NON d   1       7.742  -9.432  -0.025  0.00  0.00     0.227 C 
BRANCH   5   6
ATOM      6  N1  NON d   1       6.494 -10.181  -0.036  0.00  0.00    -0.348 N 
ATOM      7  C7  NON d   1       5.294  -9.499  -0.076  0.00  0.00     0.252 C 
ATOM      8  O1  NON d   1       5.266  -8.270  -0.120  0.00  0.00    -0.268 OA
ATOM      9  H7  NON d   1       6.561 -11.189   0.025  0.00  0.00     0.163 HD
BRANCH   7  10
ATOM     10  C6  NON d   1       4.007 -10.267  -0.057  0.00  0.00     0.032 A 
ATOM     11  C5  NON d   1       2.814  -9.528  -0.050  0.00  0.00     0.017 A 
ATOM     12  C4  NON d   1       1.570 -10.168  -0.033  0.00  0.00     0.002 A 
ATOM     13  C3  NON d   1       1.495 -11.560  -0.013  0.00  0.00     0.007 A 
ATOM     14  C2  NON d   1       2.667 -12.320   0.000  0.00  0.00    -0.061 A 
ATOM     15  C1  NON d   1       2.667 -13.860   0.000  0.00  0.00     0.048 C 
ATOM     16  C17 NON d   1       3.923 -11.664  -0.043  0.00  0.00     0.023 A 
ENDBRANCH   7  10
ENDBRANCH   5   6
ENDBRANCH   1   5
BRANCH   3  17
ATOM     17  N3  NON d   1      11.402 -10.223   0.017  0.00  0.00    -0.263 N 
ATOM     18  C10 NON d   1      12.543  -9.445   0.005  0.00  0.00     0.272 C 
ATOM     19  O3  NON d   1      12.485  -8.216  -0.003  0.00  0.00    -0.266 OA
ATOM     20  H11 NON d   1      11.431 -11.244   0.016  0.00  0.00     0.190 HD
BRANCH  18  21
ATOM     21  C11 NON d   1      13.865 -10.148   0.005  0.00  0.00     0.066 A 
ATOM     22  C12 NON d   1      15.020  -9.345   0.001  0.00  0.00     0.020 A 
ATOM     23  C13 NON d   1      16.294  -9.919  -0.002  0.00  0.00     0.001 A 
ATOM     24  C14 NON d   1      16.431 -11.304   0.000  0.00  0.00     0.003 A 
ATOM     25  C15 NON d   1      15.297 -12.117   0.005  0.00  0.00     0.037 A 
ATOM     26  C16 NON d   1      14.020 -11.542   0.008  0.00  0.00     0.081 A 
BRANCH  26  27
ATOM     27  O4  NON d   1      12.927 -12.368   0.012  0.00  0.00    -0.360 OA
ATOM     28  H16 NON d   1      13.229 -13.294   0.012  0.00  0.00     0.217 HD
ENDBRANCH  26  27
ENDBRANCH  18  21
ENDBRANCH   3  17
TORSDOF 6
