@<TRIPOS>MOLECULE
*****
 46 47 0 0 0
SMALL
USER_CHARGES

@<TRIPOS>ATOM
      1 O1          6.8405  -11.2523    0.1374 O.2     1  NONAME1    -0.2743
      2 C1          6.8261  -10.0236    0.0673 C.2     1  NONAME1     0.2291
      3 C2          5.5477   -9.1924    0.0047 C.3     1  NONAME1     0.0256
      4 C3          4.3273  -10.1042   -0.1648 C.3     1  NONAME1    -0.0419
      5 C4          2.9325   -9.4552   -0.2619 C.3     1  NONAME1    -0.0406
      6 C5          2.8868   -8.1189   -1.0104 C.3     1  NONAME1    -0.0502
      7 C6          1.4388   -7.6770   -1.2325 C.3     1  NONAME1    -0.0528
      8 C7          0.6328   -7.6213    0.0648 C.3     1  NONAME1    -0.0530
      9 C8          0.7876   -8.8729    0.9261 C.3     1  NONAME1    -0.0528
     10 C9          2.2493   -9.2929    1.1045 C.3     1  NONAME1    -0.0502
     11 N1          7.9948   -9.2898    0.0512 N.am    1  NONAME1    -0.2343
     12 N2          9.2068  -10.0000    0.0420 N.am    1  NONAME1    -0.2316
     13 C10        10.4000   -9.3047   -0.0389 C.2     1  NONAME1     0.2667
     14 O2         10.4361   -8.0781   -0.1160 O.2     1  NONAME1    -0.2705
     15 C11        11.6370  -10.2160   -0.0237 C.3     1  NONAME1     0.1666
     16 O3         12.8416   -9.4609   -0.0112 O.3     1  NONAME1    -0.4826
     17 C12        14.0252  -10.1470   -0.0060 C.ar    1  NONAME1     0.1239
     18 C13        15.1684   -9.3366   -0.0150 C.ar    1  NONAME1    -0.0197
     19 C14        16.4477   -9.8971   -0.0102 C.ar    1  NONAME1    -0.0556
     20 C15        16.5915  -11.2823    0.0022 C.ar    1  NONAME1    -0.0262
     21 C16        15.4558  -12.0839    0.0127 C.ar    1  NONAME1     0.1269
     22 F1         15.5947  -13.4167    0.0266 F       1  NONAME1    -0.2054
     23 C17        14.1748  -11.5324    0.0089 C.ar    1  NONAME1     0.0153
     24 H1          5.4665   -8.6049    0.9250 H       1  NONAME1     0.0359
     25 H2          5.6322   -8.5078   -0.8465 H       1  NONAME1     0.0359
     26 H3          4.4786  -10.6828   -1.0871 H       1  NONAME1     0.0272
     27 H4          4.3159  -10.8494    0.6419 H       1  NONAME1     0.0272
     28 H5          2.3210  -10.1726   -0.8296 H       1  NONAME1     0.0301
     29 H6          3.4133   -7.3445   -0.4383 H       1  NONAME1     0.0268
     30 H7          3.3892   -8.2066   -1.9800 H       1  NONAME1     0.0268
     31 H8          0.9549   -8.3736   -1.9285 H       1  NONAME1     0.0265
     32 H9          1.4235   -6.6917   -1.7127 H       1  NONAME1     0.0265
     33 H10        -0.4281   -7.4768   -0.1756 H       1  NONAME1     0.0265
     34 H11         0.9443   -6.7453    0.6455 H       1  NONAME1     0.0265
     35 H12         0.2321   -9.6983    0.4625 H       1  NONAME1     0.0265
     36 H13         0.3293   -8.7012    1.9070 H       1  NONAME1     0.0265
     37 H14         2.2763  -10.2383    1.6589 H       1  NONAME1     0.0268
     38 H15         2.7791   -8.5479    1.7104 H       1  NONAME1     0.0268
     39 H16         8.0473   -8.2803   -0.0752 H       1  NONAME1     0.1728
     40 H17         9.1321  -11.0157    0.0905 H       1  NONAME1     0.1729
     41 H18        11.5766  -10.8401    0.8764 H       1  NONAME1     0.0795
     42 H19        11.5941  -10.8379   -0.9262 H       1  NONAME1     0.0795
     43 H20        15.0581   -8.2547   -0.0248 H       1  NONAME1     0.0654
     44 H21        17.3258   -9.2554   -0.0196 H       1  NONAME1     0.0620
     45 H22        17.5761  -11.7411    0.0042 H       1  NONAME1     0.0646
     46 H23        13.3343  -12.2143    0.0197 H       1  NONAME1     0.0683
@<TRIPOS>BOND
     1     1     2    2
     2     2     3    1
     3     3     4    1
     4     4     5    1
     5     5     6    1
     6     6     7    1
     7     7     8    1
     8     8     9    1
     9     9    10    1
    10     5    10    1
    11     2    11   am
    12    11    12    1
    13    12    13   am
    14    13    14    2
    15    13    15    1
    16    15    16    1
    17    16    17    1
    18    17    18   ar
    19    18    19   ar
    20    19    20   ar
    21    20    21   ar
    22    21    22    1
    23    21    23   ar
    24    17    23   ar
    25     3    24    1
    26     3    25    1
    27     4    26    1
    28     4    27    1
    29     5    28    1
    30     6    29    1
    31     6    30    1
    32     7    31    1
    33     7    32    1
    34     8    33    1
    35     8    34    1
    36     9    35    1
    37     9    36    1
    38    10    37    1
    39    10    38    1
    40    11    39    1
    41    12    40    1
    42    15    41    1
    43    15    42    1
    44    18    43    1
    45    19    44    1
    46    20    45    1
    47    23    46    1
