@<TRIPOS>MOLECULE
*****
 48 49 0 0 0
SMALL
USER_CHARGES

@<TRIPOS>ATOM
      1 C1         -6.6685   -6.9301   -0.0145 C.3     1  NONAME1    -0.0646
      2 C2         -6.6684   -8.4700    0.0000 C.3     1  NONAME1    -0.0450
      3 C3         -5.3347   -9.2400    0.0000 C.3     1  NONAME1     0.0328
      4 C4         -5.3347  -10.7800    0.0000 C.3     1  NONAME1    -0.0541
      5 C5         -4.0010   -8.4700    0.0000 C.2     1  NONAME1     0.2200
      6 O1         -4.0552   -7.3124    0.4306 O.2     1  NONAME1    -0.2752
      7 N1         -2.8022   -9.0883   -0.3132 N.am    1  NONAME1    -0.2853
      8 C6         -1.5339   -8.4117   -0.2901 C.ar    1  NONAME1     0.0337
      9 C7         -1.4558   -7.0083   -0.3114 C.ar    1  NONAME1    -0.0405
     10 C8         -0.2445   -6.3361   -0.2230 C.ar    1  NONAME1    -0.0597
     11 C9          0.9246   -7.0639   -0.1473 C.ar    1  NONAME1    -0.0570
     12 C10         0.9145   -8.4746   -0.1692 C.ar    1  NONAME1    -0.0286
     13 C11         2.2992   -9.0636   -0.0997 C.3     1  NONAME1     0.0372
     14 N2          2.5180  -10.4752   -0.0750 N.am    1  NONAME1    -0.3071
     15 C12         3.7023  -11.1648   -0.0055 C.2     1  NONAME1     0.2496
     16 O2          3.5747  -12.3890    0.0697 O.2     1  NONAME1    -0.2700
     17 C13         5.0839  -10.5263   -0.0067 C.ar    1  NONAME1     0.1009
     18 C14         5.3556   -9.2067    0.0510 C.ar    1  NONAME1    -0.0425
     19 C15         6.6886   -8.6483    0.0843 C.ar    1  NONAME1    -0.0328
     20 C16         7.7646   -9.4443    0.0557 C.ar    1  NONAME1     0.1227
     21 C17         9.1807   -8.9162    0.1189 C.3     1  NONAME1     0.4323
     22 F1          9.7142   -8.7718   -1.1195 F       1  NONAME1    -0.1645
     23 F2          9.9992   -9.7518    0.8076 F       1  NONAME1    -0.1645
     24 F3          9.2537   -7.7024    0.7243 F       1  NONAME1    -0.1645
     25 N3          7.5488  -10.8063   -0.0043 N.ar    1  NONAME1    -0.3183
     26 C18         6.3135  -11.4208   -0.0411 C.ar    1  NONAME1     0.2613
     27 O3          6.2797  -12.6454   -0.1005 O.2     1  NONAME1    -0.2671
     28 C19        -0.3259   -9.1460   -0.2442 C.ar    1  NONAME1    -0.0358
     29 H1         -7.7741   -6.8228   -0.0164 H       1  NONAME1     0.0230
     30 H2         -6.6685   -5.3901   -0.0291 H       1  NONAME1     0.0230
     31 H3         -6.3014   -6.8351   -1.0584 H       1  NONAME1     0.0230
     32 H4         -7.2820   -8.7080   -0.8972 H       1  NONAME1     0.0270
     33 H5         -7.2156   -8.6697    0.9449 H       1  NONAME1     0.0270
     34 H6         -6.6684  -10.0100    0.0000 H       1  NONAME1     0.0391
     35 H7         -4.8456  -10.8812   -0.9909 H       1  NONAME1     0.0237
     36 H8         -5.3347  -12.3200    0.0000 H       1  NONAME1     0.0237
     37 H9         -4.5962  -10.8855    0.8201 H       1  NONAME1     0.0237
     38 H10        -2.7823  -10.0959   -0.3856 H       1  NONAME1     0.1548
     39 H11        -2.3356   -6.3804   -0.4033 H       1  NONAME1     0.0636
     40 H12        -0.2203   -5.2503   -0.2124 H       1  NONAME1     0.0618
     41 H13         1.8657   -6.5194   -0.0760 H       1  NONAME1     0.0621
     42 H14         2.7465   -8.6799    0.8251 H       1  NONAME1     0.0512
     43 H15         2.8440   -8.6875   -0.9740 H       1  NONAME1     0.0512
     44 H16         1.7186  -11.0942   -0.0262 H       1  NONAME1     0.1493
     45 H17         4.6102   -8.4330    0.0925 H       1  NONAME1     0.0627
     46 H18         6.7892   -7.5660    0.1377 H       1  NONAME1     0.0638
     47 H19         8.3405  -11.4439   -0.0075 H       1  NONAME1     0.1689
     48 H20        -0.3581  -10.2311   -0.2422 H       1  NONAME1     0.0639
@<TRIPOS>BOND
     1     1     2    1
     2     3     2    1
     3     3     4    1
     4     3     5    1
     5     5     6    2
     6     5     7   am
     7     7     8    1
     8     8     9   ar
     9     9    10   ar
    10    10    11   ar
    11    11    12   ar
    12    12    13    1
    13    13    14    1
    14    14    15   am
    15    15    16    2
    16    15    17    1
    17    17    18   ar
    18    18    19   ar
    19    19    20   ar
    20    20    21    1
    21    21    22    1
    22    21    23    1
    23    21    24    1
    24    20    25   ar
    25    25    26   ar
    26    17    26   ar
    27    26    27    2
    28    12    28   ar
    29     8    28   ar
    30     1    29    1
    31     1    30    1
    32     1    31    1
    33     2    32    1
    34     2    33    1
    35     3    34    1
    36     4    35    1
    37     4    36    1
    38     4    37    1
    39     7    38    1
    40     9    39    1
    41    10    40    1
    42    11    41    1
    43    13    42    1
    44    13    43    1
    45    14    44    1
    46    18    45    1
    47    19    46    1
    48    25    47    1
    49    28    48    1
