REMARK  8 active torsions:
REMARK  status: ('A' for Active; 'I' for Inactive)
REMARK    1  A    between atoms: O1_2  and  C2_3 
REMARK    2  A    between atoms: C3_5  and  C2_3 
REMARK    3  A    between atoms: C3_5  and  C4_6 
REMARK    4  A    between atoms: C3_5  and  N1_14 
REMARK    5  A    between atoms: C4_6  and  C5_7 
REMARK    6  A    between atoms: C8_10  and  O3_11 
REMARK    7  A    between atoms: C12_16  and  C11_15 
REMARK    8  A    between atoms: C13_17  and  O4_18 
ROOT
ATOM      1  C3  NON d   1       2.125  -4.173   0.575  0.00  0.00     0.211 C 
ENDROOT
BRANCH   1   2
ATOM      2  C2  NON d   1       0.929  -5.028   0.121  0.00  0.00     0.283 C 
ATOM      3  O2  NON d   1      -0.206  -4.587  -0.040  0.00  0.00    -0.263 OA
BRANCH   2   4
ATOM      4  O1  NON d   1       1.246  -6.351   0.045  0.00  0.00    -0.325 OA
ATOM      5  C1  NON d   1       0.167  -7.254  -0.200  0.00  0.00     0.213 C 
ENDBRANCH   2   4
ENDBRANCH   1   2
BRANCH   1   6
ATOM      6  C4  NON d   1       3.507  -4.846   0.346  0.00  0.00     0.076 C 
BRANCH   6   7
ATOM      7  C5  NON d   1       3.965  -5.949   1.308  0.00  0.00    -0.056 A 
ATOM      8  C6  NON d   1       5.185  -6.606   1.044  0.00  0.00     0.010 A 
ATOM      9  C7  NON d   1       5.665  -7.623   1.881  0.00  0.00     0.037 A 
ATOM     10  C8  NON d   1       4.925  -7.998   2.995  0.00  0.00     0.065 A 
ATOM     11  C9  NON d   1       3.722  -7.369   3.281  0.00  0.00     0.037 A 
ATOM     12  C10 NON d   1       3.248  -6.348   2.446  0.00  0.00     0.010 A 
BRANCH  10  13
ATOM     13  O3  NON d   1       5.346  -8.983   3.841  0.00  0.00    -0.361 OA
ATOM     14  H9  NON d   1       6.215  -9.299   3.542  0.00  0.00     0.217 HD
ENDBRANCH  10  13
ENDBRANCH   6   7
ENDBRANCH   1   6
BRANCH   1  15
ATOM     15  N1  NON d   1       2.087  -2.870  -0.159  0.00  0.00    -0.285 NA
ATOM     16  C11 NON d   1       1.407  -1.938   0.436  0.00  0.00     0.133 C 
BRANCH  16  17
ATOM     17  C12 NON d   1       1.320  -0.465   0.103  0.00  0.00     0.102 C 
ATOM     18  C13 NON d   1       0.113   0.153   0.082  0.00  0.00     0.163 C 
ATOM     19  N2  NON d   1       0.000   1.540   0.000  0.00  0.00    -0.282 N 
ATOM     20  C14 NON d   1      -1.334   2.310   0.000  0.00  0.00     0.163 C 
ATOM     21  C15 NON d   1       1.141   2.335  -0.213  0.00  0.00     0.353 C 
ATOM     22  O5  NON d   1       1.024   3.541  -0.447  0.00  0.00    -0.244 OA
ATOM     23  N3  NON d   1       2.371   1.754  -0.134  0.00  0.00    -0.153 NA
ATOM     24  C16 NON d   1       2.483   0.480   0.032  0.00  0.00     0.287 C 
ATOM     25  O6  NON d   1       3.535  -0.165   0.185  0.00  0.00    -0.265 OA
BRANCH  18  26
ATOM     26  O4  NON d   1      -1.089  -0.531   0.118  0.00  0.00    -0.345 OA
ATOM     27  H13 NON d   1      -0.915  -1.438  -0.193  0.00  0.00     0.219 HD
ENDBRANCH  18  26
ENDBRANCH  16  17
ENDBRANCH   1  15
TORSDOF 8
