@<TRIPOS>MOLECULE
*****
 48 51 0 0 0
SMALL
USER_CHARGES

@<TRIPOS>ATOM
      1 C1          8.4164  -10.9749    0.3858 C.3     1  NONAME1    -0.0593
      2 C2          6.9329  -10.7692    0.1301 C.3     1  NONAME1    -0.0068
      3 C3          6.5382   -9.3750   -0.2604 C.ar    1  NONAME1     0.0784
      4 N1          5.4774   -8.7663    0.2272 N.ar    1  NONAME1    -0.2474
      5 C4          5.2349   -7.5706   -0.4433 C.ar    1  NONAME1     0.0660
      6 C5          3.9496   -6.8529   -0.1449 C.3     1  NONAME1     0.0573
      7 N2          4.0010   -5.3900    0.0000 N.am    1  NONAME1    -0.2947
      8 C6          5.3347   -4.6200    0.0000 C.3     1  NONAME1     0.0039
      9 C7          2.8288   -4.7012   -0.4263 C.2     1  NONAME1     0.2474
     10 O1          1.7855   -5.3086   -0.6788 O.2     1  NONAME1    -0.2700
     11 C8          2.7556   -3.1949   -0.5223 C.ar    1  NONAME1     0.0481
     12 C9          1.5666   -2.6410   -0.0112 C.ar    1  NONAME1    -0.0230
     13 C10         1.4145   -1.2643    0.0383 C.ar    1  NONAME1     0.0725
     14 C11         0.1332   -0.5582    0.2866 C.ar    1  NONAME1     0.0032
     15 C12        -1.1069   -1.2111    0.3106 C.ar    1  NONAME1    -0.0344
     16 C13        -2.2721   -0.4647    0.4413 C.ar    1  NONAME1     0.0282
     17 N3         -2.3019    0.8775    0.5525 N.ar    1  NONAME1    -0.2632
     18 C14        -1.1107    1.5037    0.5309 C.ar    1  NONAME1     0.0282
     19 C15         0.1020    0.8433    0.4082 C.ar    1  NONAME1    -0.0344
     20 N4          2.4628   -0.4531   -0.2285 N.ar    1  NONAME1    -0.2467
     21 C16         3.5788   -0.9572   -0.7615 C.ar    1  NONAME1     0.0724
     22 C17         4.6074   -0.0641   -1.0344 C.ar    1  NONAME1    -0.0357
     23 C18         5.7605   -0.4587   -1.7070 C.ar    1  NONAME1    -0.0597
     24 C19         5.8543   -1.7564   -2.1831 C.ar    1  NONAME1    -0.0611
     25 C20         4.8371   -2.6702   -1.8949 C.ar    1  NONAME1    -0.0518
     26 C21         3.7362   -2.3197   -1.0675 C.ar    1  NONAME1     0.0125
     27 C22         6.1756   -7.2760   -1.4141 C.ar    1  NONAME1     0.0002
     28 S1          7.3683   -8.5036   -1.4866 S.2     1  NONAME1    -0.0802
     29 H1          8.5950  -11.9951    0.7436 H       1  NONAME1     0.0233
     30 H2          9.0048  -10.8443   -0.5284 H       1  NONAME1     0.0233
     31 H3          8.7938  -10.2779    1.1402 H       1  NONAME1     0.0233
     32 H4          6.5982  -11.4625   -0.6512 H       1  NONAME1     0.0331
     33 H5          6.3842  -11.0418    1.0404 H       1  NONAME1     0.0331
     34 H6          3.2558   -7.1127   -0.9547 H       1  NONAME1     0.0529
     35 H7          3.5119   -7.2385    0.7828 H       1  NONAME1     0.0529
     36 H8          5.8563   -5.3416    0.6582 H       1  NONAME1     0.0429
     37 H9          6.6684   -3.8500    0.0000 H       1  NONAME1     0.0429
     38 H10         4.9836   -3.8433    0.7088 H       1  NONAME1     0.0429
     39 H11         0.7680   -3.3031    0.3093 H       1  NONAME1     0.0647
     40 H12        -1.1979   -2.2851    0.1950 H       1  NONAME1     0.0639
     41 H13        -3.2453   -0.9478    0.4429 H       1  NONAME1     0.0830
     42 H14        -1.1503    2.5868    0.6025 H       1  NONAME1     0.0830
     43 H15         1.0161    1.4304    0.3782 H       1  NONAME1     0.0639
     44 H16         4.5023    0.9719   -0.7181 H       1  NONAME1     0.0639
     45 H17         6.5559    0.2595   -1.8894 H       1  NONAME1     0.0618
     46 H18         6.7221   -2.0625   -2.7621 H       1  NONAME1     0.0618
     47 H19         4.9202   -3.6756   -2.3012 H       1  NONAME1     0.0624
     48 H20         6.2083   -6.4345   -2.0898 H       1  NONAME1     0.0712
@<TRIPOS>BOND
     1     1     2    1
     2     2     3    1
     3     3     4   ar
     4     4     5   ar
     5     5     6    1
     6     6     7    1
     7     7     8    1
     8     7     9   am
     9     9    10    2
    10     9    11    1
    11    11    12   ar
    12    12    13   ar
    13    13    14    1
    14    14    15   ar
    15    15    16   ar
    16    16    17   ar
    17    17    18   ar
    18    18    19   ar
    19    14    19   ar
    20    13    20   ar
    21    20    21   ar
    22    21    22   ar
    23    22    23   ar
    24    23    24   ar
    25    24    25   ar
    26    25    26   ar
    27    11    26   ar
    28    21    26   ar
    29     5    27   ar
    30    27    28   ar
    31     3    28   ar
    32     1    29    1
    33     1    30    1
    34     1    31    1
    35     2    32    1
    36     2    33    1
    37     6    34    1
    38     6    35    1
    39     8    36    1
    40     8    37    1
    41     8    38    1
    42    12    39    1
    43    15    40    1
    44    16    41    1
    45    18    42    1
    46    19    43    1
    47    22    44    1
    48    23    45    1
    49    24    46    1
    50    25    47    1
    51    27    48    1
