@<TRIPOS>MOLECULE
*****
 46 47 0 0 0
SMALL
USER_CHARGES

@<TRIPOS>ATOM
      1 C1          3.6537   -7.7801   -0.2543 C.3     1  NONAME1     0.0622
      2 O1          4.8226   -8.3160    0.3520 O.3     1  NONAME1    -0.2819
      3 N1          5.9264   -8.1011   -0.5239 N.am    1  NONAME1    -0.1787
      4 C2          6.9129   -7.3419    0.0821 C.2     1  NONAME1     0.3230
      5 O2          6.7833   -6.7220    1.1324 O.2     1  NONAME1    -0.2507
      6 N2          8.1101   -7.4329   -0.6102 N.am    1  NONAME1    -0.2912
      7 C3          9.3358   -6.9300    0.0000 C.3     1  NONAME1     0.0472
      8 C4          9.3358   -5.3900    0.0000 C.3     1  NONAME1    -0.0424
      9 C5         10.5656   -7.7857   -0.2890 C.ar    1  NONAME1    -0.0238
     10 C6         11.8440   -7.3735    0.1069 C.ar    1  NONAME1    -0.0531
     11 C7         12.8881   -8.3009    0.2349 C.ar    1  NONAME1    -0.0160
     12 C8         12.6952   -9.6605   -0.0338 C.ar    1  NONAME1     0.1623
     13 O3         13.7293  -10.4549    0.3780 O.3     1  NONAME1    -0.4852
     14 C9         14.0772  -11.6099   -0.3794 C.3     1  NONAME1     0.1004
     15 C10        15.5874  -11.8066   -0.2025 C.3     1  NONAME1    -0.0158
     16 C11        15.8010  -13.2890   -0.4306 C.3     1  NONAME1    -0.0496
     17 C12        14.6234  -13.9247    0.2864 C.3     1  NONAME1    -0.0496
     18 C13        13.4838  -12.9114    0.1826 C.3     1  NONAME1    -0.0158
     19 C14        11.4468  -10.0766   -0.4948 C.ar    1  NONAME1     0.1618
     20 O4         11.2070  -11.3994   -0.7595 O.3     1  NONAME1    -0.4914
     21 C15        10.1157  -11.9252    0.0008 C.3     1  NONAME1     0.0790
     22 C16        10.4090   -9.1401   -0.6476 C.ar    1  NONAME1    -0.0114
     23 H1          3.8228   -6.7604   -0.6138 H       1  NONAME1     0.0547
     24 H2          2.8563   -7.7595    0.4938 H       1  NONAME1     0.0547
     25 H3          3.3416   -8.4272   -1.0794 H       1  NONAME1     0.0547
     26 H4          6.2862   -8.9749   -0.8880 H       1  NONAME1     0.1840
     27 H5          8.0605   -7.4838   -1.6156 H       1  NONAME1     0.1509
     28 H6          9.1873   -7.1599    1.0693 H       1  NONAME1     0.0546
     29 H7         10.1941   -5.2651    0.6873 H       1  NONAME1     0.0251
     30 H8          9.3358   -3.8500    0.0000 H       1  NONAME1     0.0251
     31 H9          9.6839   -5.2872   -1.0488 H       1  NONAME1     0.0251
     32 H10        12.0359   -6.3511    0.4208 H       1  NONAME1     0.0622
     33 H11        13.8487   -7.9673    0.6222 H       1  NONAME1     0.0655
     34 H12        13.8454  -11.4878   -1.4453 H       1  NONAME1     0.0733
     35 H13        16.1653  -11.1873   -0.8948 H       1  NONAME1     0.0301
     36 H14        15.8982  -11.5282    0.8137 H       1  NONAME1     0.0301
     37 H15        16.7593  -13.6383   -0.0348 H       1  NONAME1     0.0266
     38 H16        15.7666  -13.5188   -1.5013 H       1  NONAME1     0.0266
     39 H17        14.3547  -14.8909   -0.1531 H       1  NONAME1     0.0266
     40 H18        14.8668  -14.0992    1.3409 H       1  NONAME1     0.0266
     41 H19        12.7325  -13.3101   -0.5068 H       1  NONAME1     0.0301
     42 H20        12.9979  -12.7660    1.1534 H       1  NONAME1     0.0301
     43 H21        10.0634  -11.4946    1.0077 H       1  NONAME1     0.0660
     44 H22         9.1744  -11.7698   -0.5353 H       1  NONAME1     0.0660
     45 H23        10.2693  -13.0037    0.1036 H       1  NONAME1     0.0660
     46 H24         9.4337   -9.5025   -0.9600 H       1  NONAME1     0.0659
@<TRIPOS>BOND
     1     1     2    1
     2     2     3    1
     3     3     4   am
     4     4     5    2
     5     4     6   am
     6     7     6    1
     7     7     8    1
     8     7     9    1
     9     9    10   ar
    10    10    11   ar
    11    11    12   ar
    12    12    13    1
    13    13    14    1
    14    14    15    1
    15    15    16    1
    16    16    17    1
    17    17    18    1
    18    14    18    1
    19    12    19   ar
    20    19    20    1
    21    20    21    1
    22    19    22   ar
    23     9    22   ar
    24     1    23    1
    25     1    24    1
    26     1    25    1
    27     3    26    1
    28     6    27    1
    29     7    28    1
    30     8    29    1
    31     8    30    1
    32     8    31    1
    33    10    32    1
    34    11    33    1
    35    14    34    1
    36    15    35    1
    37    15    36    1
    38    16    37    1
    39    16    38    1
    40    17    39    1
    41    17    40    1
    42    18    41    1
    43    18    42    1
    44    21    43    1
    45    21    44    1
    46    21    45    1
    47    22    46    1
