@<TRIPOS>MOLECULE
*****
 59 62 0 0 0
SMALL
USER_CHARGES

@<TRIPOS>ATOM
      1 C1          0.0000   -7.7000    0.0000 C.3     1  NONAME1    -0.0307
      2 C2          0.0000   -9.2400    0.0000 C.3     1  NONAME1     0.0868
      3 O1         -1.2976   -9.8430    0.0165 O.3     1  NONAME1    -0.4922
      4 C3         -1.2775  -11.2281    0.0229 C.ar    1  NONAME1     0.1212
      5 C4         -0.1082  -11.9987    0.1175 C.ar    1  NONAME1    -0.0199
      6 C5         -0.1642  -13.3874    0.1033 C.ar    1  NONAME1    -0.0576
      7 C6         -1.3933  -14.0213   -0.0098 C.ar    1  NONAME1    -0.0494
      8 C7         -2.5869  -13.2820   -0.1071 C.ar    1  NONAME1     0.0405
      9 C8         -3.8359  -14.0974   -0.2662 C.2     1  NONAME1     0.2484
     10 O2         -3.6894  -15.2767   -0.5839 O.2     1  NONAME1    -0.2699
     11 N1         -5.0571  -13.4879   -0.0409 N.am    1  NONAME1    -0.2808
     12 C9         -6.3375  -14.1217    0.0002 C.ar    1  NONAME1     0.0458
     13 C10        -6.4740  -15.5177   -0.0849 C.ar    1  NONAME1    -0.0397
     14 C11        -7.7192  -16.1437    0.0184 C.ar    1  NONAME1    -0.0600
     15 C12        -8.8610  -15.3889    0.2298 C.ar    1  NONAME1    -0.0609
     16 C13        -8.7592  -14.0013    0.3165 C.ar    1  NONAME1    -0.0478
     17 C14        -7.5142  -13.3491    0.1696 C.ar    1  NONAME1     0.0582
     18 C15        -7.4543  -11.8454    0.2186 C.2     1  NONAME1     0.2500
     19 O3         -6.3939  -11.3142    0.5362 O.2     1  NONAME1    -0.2698
     20 N2         -8.6221  -11.1823   -0.1361 N.am    1  NONAME1    -0.2815
     21 C16        -8.8798   -9.7950   -0.0916 C.ar    1  NONAME1     0.0338
     22 C17       -10.1689   -9.3620   -0.4252 C.ar    1  NONAME1    -0.0387
     23 C18       -10.5119   -7.9980   -0.3958 C.ar    1  NONAME1    -0.0388
     24 C19        -9.5759   -7.0308   -0.0330 C.ar    1  NONAME1     0.0314
     25 N3         -9.8266   -5.6487    0.0464 N.pl3   1  NONAME1    -0.3145
     26 C20       -10.9577   -4.8122    0.0594 C.ar    1  NONAME1     0.0313
     27 C21       -12.2712   -5.2437    0.2569 C.ar    1  NONAME1    -0.0405
     28 C22       -13.3433   -4.3400    0.2251 C.ar    1  NONAME1    -0.0600
     29 C23       -13.1154   -2.9839    0.0076 C.ar    1  NONAME1    -0.0616
     30 C24       -11.8161   -2.5300   -0.1802 C.ar    1  NONAME1    -0.0600
     31 C25       -10.7540   -3.4372   -0.1615 C.ar    1  NONAME1    -0.0405
     32 C26        -8.2865   -7.4813    0.2953 C.ar    1  NONAME1    -0.0388
     33 C27        -7.9385   -8.8392    0.2679 C.ar    1  NONAME1    -0.0387
     34 C28        -2.5223  -11.8770   -0.0812 C.ar    1  NONAME1    -0.0078
     35 H1          1.0816   -7.5993   -0.2239 H       1  NONAME1     0.0262
     36 H2          0.0000   -6.1600    0.0000 H       1  NONAME1     0.0262
     37 H3         -0.5910   -7.6003   -0.9330 H       1  NONAME1     0.0262
     38 H4          0.5410   -9.5364    0.9078 H       1  NONAME1     0.0694
     39 H5          0.5449   -9.5822   -0.8912 H       1  NONAME1     0.0694
     40 H6          0.8780  -11.5547    0.2002 H       1  NONAME1     0.0654
     41 H7          0.7471  -13.9753    0.1716 H       1  NONAME1     0.0619
     42 H8         -1.4156  -15.1104   -0.0275 H       1  NONAME1     0.0625
     43 H9         -5.0777  -12.4916    0.1761 H       1  NONAME1     0.1552
     44 H10        -5.6179  -16.1728   -0.2089 H       1  NONAME1     0.0636
     45 H11        -7.7803  -17.2280   -0.0463 H       1  NONAME1     0.0618
     46 H12        -9.8254  -15.8799    0.3377 H       1  NONAME1     0.0618
     47 H13        -9.6694  -13.4496    0.5318 H       1  NONAME1     0.0626
     48 H14        -9.3853  -11.7371   -0.4950 H       1  NONAME1     0.1551
     49 H15       -10.9375  -10.0758   -0.7106 H       1  NONAME1     0.0637
     50 H16       -11.5147   -7.7220   -0.7001 H       1  NONAME1     0.0637
     51 H17        -8.9657   -5.1164    0.1202 H       1  NONAME1     0.1522
     52 H18       -12.4958   -6.2808    0.4783 H       1  NONAME1     0.0636
     53 H19       -14.3581   -4.6972    0.3809 H       1  NONAME1     0.0618
     54 H20       -13.9466   -2.2838   -0.0099 H       1  NONAME1     0.0618
     55 H21       -11.6235   -1.4730   -0.3435 H       1  NONAME1     0.0618
     56 H22        -9.7484   -3.0554   -0.3192 H       1  NONAME1     0.0636
     57 H23        -7.5155   -6.7692    0.5822 H       1  NONAME1     0.0637
     58 H24        -6.9194   -9.1055    0.5258 H       1  NONAME1     0.0637
     59 H25        -3.4161  -11.2668   -0.1661 H       1  NONAME1     0.0662
@<TRIPOS>BOND
     1     1     2    1
     2     2     3    1
     3     3     4    1
     4     4     5   ar
     5     5     6   ar
     6     6     7   ar
     7     7     8   ar
     8     8     9    1
     9     9    10    2
    10     9    11   am
    11    11    12    1
    12    12    13   ar
    13    13    14   ar
    14    14    15   ar
    15    15    16   ar
    16    16    17   ar
    17    12    17   ar
    18    17    18    1
    19    18    19    2
    20    18    20   am
    21    20    21    1
    22    21    22   ar
    23    22    23   ar
    24    23    24   ar
    25    24    25    1
    26    25    26    1
    27    26    27   ar
    28    27    28   ar
    29    28    29   ar
    30    29    30   ar
    31    30    31   ar
    32    26    31   ar
    33    24    32   ar
    34    32    33   ar
    35    21    33   ar
    36     8    34   ar
    37     4    34   ar
    38     1    35    1
    39     1    36    1
    40     1    37    1
    41     2    38    1
    42     2    39    1
    43     5    40    1
    44     6    41    1
    45     7    42    1
    46    11    43    1
    47    13    44    1
    48    14    45    1
    49    15    46    1
    50    16    47    1
    51    20    48    1
    52    22    49    1
    53    23    50    1
    54    25    51    1
    55    27    52    1
    56    28    53    1
    57    29    54    1
    58    30    55    1
    59    31    56    1
    60    32    57    1
    61    33    58    1
    62    34    59    1
