@<TRIPOS>MOLECULE
*****
 41 42 0 0 0
SMALL
USER_CHARGES

@<TRIPOS>ATOM
      1 C1          8.0021   -7.7000    0.0000 C.3     1  NONAME1    -0.0189
      2 C2          8.0021   -9.2400    0.0000 C.3     1  NONAME1     0.1773
      3 O1          7.0151  -10.2505    0.4212 O.3     1  NONAME1    -0.4486
      4 C3          6.1489  -10.4875   -0.6122 C.2     1  NONAME1     0.3421
      5 O2          6.2844  -10.1215   -1.7703 O.2     1  NONAME1    -0.2449
      6 C4          4.8625  -11.0318   -0.1517 C.ar    1  NONAME1     0.0892
      7 C5          4.7701  -12.3988    0.1172 C.ar    1  NONAME1    -0.0442
      8 C6          3.5154  -12.9746    0.3623 C.ar    1  NONAME1    -0.0425
      9 C7          2.3555  -12.1927    0.3349 C.ar    1  NONAME1     0.0432
     10 Cl1         0.8239  -12.9211    0.6148 Cl      1  NONAME1    -0.0835
     11 C8          2.4277  -10.8301    0.0711 C.ar    1  NONAME1    -0.0123
     12 C9          3.6855  -10.2657   -0.1782 C.ar    1  NONAME1     0.1415
     13 N1          3.7203   -8.8385   -0.4277 N.pl3   1  NONAME1     0.0573
     14 O3          4.3749   -8.1496    0.3639 O.2     1  NONAME1    -0.1261
     15 O4          3.0099   -8.4075   -1.3441 O.2     1  NONAME1    -0.1261
     16 C10         9.3358  -10.0100    0.0000 C.2     1  NONAME1     0.2696
     17 O5          9.3899  -11.2415   -0.1072 O.2     1  NONAME1    -0.2702
     18 N2         10.4939   -9.2782    0.1514 N.am    1  NONAME1    -0.2311
     19 N3         11.7095   -9.9769    0.1110 N.am    1  NONAME1    -0.2303
     20 C11        12.8850   -9.2560    0.0570 C.2     1  NONAME1     0.2601
     21 O6         12.8825   -8.0255    0.0468 O.2     1  NONAME1    -0.2687
     22 C12        14.1687  -10.0224    0.0184 C.ar    1  NONAME1     0.0382
     23 C13        15.3656   -9.2888    0.0086 C.ar    1  NONAME1    -0.0496
     24 C14        16.6016   -9.9397   -0.0119 C.ar    1  NONAME1    -0.0610
     25 C15        16.6545  -11.3310   -0.0237 C.ar    1  NONAME1    -0.0617
     26 C16        15.4736  -12.0713   -0.0186 C.ar    1  NONAME1    -0.0610
     27 C17        14.2335  -11.4232    0.0020 C.ar    1  NONAME1    -0.0496
     28 H1          8.7036   -7.5919   -0.8509 H       1  NONAME1     0.0270
     29 H2          8.0021   -6.1600    0.0000 H       1  NONAME1     0.0270
     30 H3          8.5256   -7.5970    0.9726 H       1  NONAME1     0.0270
     31 H4          6.6684   -8.4700    0.0000 H       1  NONAME1     0.0830
     32 H5          5.6595  -13.0262    0.0958 H       1  NONAME1     0.0627
     33 H6          3.4440  -14.0439    0.5504 H       1  NONAME1     0.0632
     34 H7          1.5256  -10.2204    0.0472 H       1  NONAME1     0.0655
     35 H8         10.5654   -8.2625    0.1180 H       1  NONAME1     0.1729
     36 H9         11.6291  -10.9896    0.0770 H       1  NONAME1     0.1731
     37 H10        15.3405   -8.2004    0.0204 H       1  NONAME1     0.0625
     38 H11        17.5209   -9.3585   -0.0170 H       1  NONAME1     0.0618
     39 H12        17.6161  -11.8389   -0.0369 H       1  NONAME1     0.0618
     40 H13        15.5174  -13.1583   -0.0298 H       1  NONAME1     0.0618
     41 H14        13.3442  -12.0440    0.0049 H       1  NONAME1     0.0625
@<TRIPOS>BOND
     1     2     1    1
     2     2     3    1
     3     3     4    1
     4     4     5    2
     5     4     6    1
     6     6     7   ar
     7     7     8   ar
     8     8     9   ar
     9     9    10    1
    10     9    11   ar
    11    11    12   ar
    12     6    12   ar
    13    12    13    1
    14    13    14    2
    15    13    15    1
    16     2    16    1
    17    16    17    2
    18    16    18   am
    19    18    19    1
    20    19    20   am
    21    20    21    2
    22    20    22    1
    23    22    23   ar
    24    23    24   ar
    25    24    25   ar
    26    25    26   ar
    27    26    27   ar
    28    22    27   ar
    29     1    28    1
    30     1    29    1
    31     1    30    1
    32     2    31    1
    33     7    32    1
    34     8    33    1
    35    11    34    1
    36    18    35    1
    37    19    36    1
    38    23    37    1
    39    24    38    1
    40    25    39    1
    41    26    40    1
    42    27    41    1
