@<TRIPOS>MOLECULE
*****
 43 46 0 0 0
SMALL
USER_CHARGES

@<TRIPOS>ATOM
      1 O1          8.2755   -1.9123    0.8882 O.2     1  NONAME1    -0.2746
      2 C1          8.3643   -2.9694    0.2609 C.2     1  NONAME1     0.2271
      3 C2          7.1355   -3.7700   -0.1563 C.3     1  NONAME1     0.0709
      4 S1          5.5772   -2.8849    0.2323 S.3     1  NONAME1    -0.1437
      5 C3          5.2868   -1.9853   -1.3201 C.3     1  NONAME1     0.0522
      6 C4          6.0600   -0.7300   -1.5633 C.ar    1  NONAME1     0.1181
      7 N1          5.9254    0.0382   -2.6308 N.ar    1  NONAME1    -0.2316
      8 C5          6.8576    1.0382   -2.5008 C.ar    1  NONAME1     0.0891
      9 C6          7.1619    2.1046   -3.3591 C.ar    1  NONAME1    -0.0342
     10 C7          8.2221    2.9567   -3.0223 C.ar    1  NONAME1    -0.0596
     11 C8          8.9571    2.7560   -1.8514 C.ar    1  NONAME1    -0.0597
     12 C9          8.6440    1.7173   -0.9667 C.ar    1  NONAME1    -0.0363
     13 C10         7.5827    0.8839   -1.3281 C.ar    1  NONAME1     0.0662
     14 N2          7.0092   -0.2036   -0.7193 N.ar    1  NONAME1    -0.3411
     15 N3          9.5633   -3.5445   -0.1325 N.am    1  NONAME1    -0.2848
     16 C11        10.8148   -2.8841   -0.1081 C.ar    1  NONAME1     0.0340
     17 C12        10.9168   -1.4909   -0.1006 C.ar    1  NONAME1    -0.0404
     18 C13        12.1586   -0.8632   -0.0862 C.ar    1  NONAME1    -0.0594
     19 C14        13.3198   -1.6284   -0.0780 C.ar    1  NONAME1    -0.0524
     20 C15        13.2547   -3.0296   -0.1008 C.ar    1  NONAME1     0.0038
     21 C16        14.4872   -3.8280   -0.0748 C.ar    1  NONAME1     0.0925
     22 C17        15.8324   -3.3615   -0.0396 C.ar    1  NONAME1    -0.0165
     23 C18        16.6200   -4.4843   -0.0056 C.ar    1  NONAME1     0.0229
     24 N4         15.7588   -5.5356   -0.0207 N.ar    1  NONAME1    -0.2842
     25 N5         14.4667   -5.1730   -0.0689 N.ar    1  NONAME1    -0.1739
     26 C19        11.9884   -3.6482   -0.1338 C.ar    1  NONAME1    -0.0312
     27 H1          7.1345   -4.7053    0.4122 H       1  NONAME1     0.0471
     28 H2          7.1819   -4.0093   -1.2225 H       1  NONAME1     0.0471
     29 H3          4.2239   -1.7163   -1.3208 H       1  NONAME1     0.0456
     30 H4          5.4299   -2.6714   -2.1615 H       1  NONAME1     0.0456
     31 H5          6.5914    2.2502   -4.2692 H       1  NONAME1     0.0639
     32 H6          8.4773    3.7800   -3.6859 H       1  NONAME1     0.0618
     33 H7          9.7869    3.4208   -1.6203 H       1  NONAME1     0.0618
     34 H8          9.2083    1.5632   -0.0534 H       1  NONAME1     0.0639
     35 H9          7.3027   -0.6107    0.1638 H       1  NONAME1     0.1671
     36 H10         9.5790   -4.5413   -0.3139 H       1  NONAME1     0.1548
     37 H11        10.0364   -0.8598   -0.1328 H       1  NONAME1     0.0636
     38 H12        12.2163    0.2221   -0.0826 H       1  NONAME1     0.0618
     39 H13        14.2716   -1.1060   -0.0558 H       1  NONAME1     0.0624
     40 H14        16.1892   -2.3413   -0.0347 H       1  NONAME1     0.0654
     41 H15        17.6920   -4.6212    0.0319 H       1  NONAME1     0.0824
     42 H16        15.9809   -6.5253    0.0021 H       1  NONAME1     0.1882
     43 H17        11.9331   -4.7345   -0.1482 H       1  NONAME1     0.0643
@<TRIPOS>BOND
     1     1     2    2
     2     2     3    1
     3     3     4    1
     4     4     5    1
     5     5     6    1
     6     6     7   ar
     7     7     8   ar
     8     8     9   ar
     9     9    10   ar
    10    10    11   ar
    11    11    12   ar
    12    12    13   ar
    13     8    13   ar
    14    13    14   ar
    15     6    14   ar
    16     2    15   am
    17    15    16    1
    18    16    17   ar
    19    17    18   ar
    20    18    19   ar
    21    19    20   ar
    22    20    21    1
    23    21    22   ar
    24    22    23   ar
    25    23    24   ar
    26    24    25   ar
    27    21    25   ar
    28    20    26   ar
    29    16    26   ar
    30     3    27    1
    31     3    28    1
    32     5    29    1
    33     5    30    1
    34     9    31    1
    35    10    32    1
    36    11    33    1
    37    12    34    1
    38    14    35    1
    39    15    36    1
    40    17    37    1
    41    18    38    1
    42    19    39    1
    43    22    40    1
    44    23    41    1
    45    24    42    1
    46    26    43    1
