@<TRIPOS>MOLECULE
*****
 60 64 0 0 0
SMALL
USER_CHARGES

@<TRIPOS>ATOM
      1 C1          8.0876   10.8156    0.9758 C.3     1  NONAME1     0.0790
      2 O1          7.6022   10.2313   -0.2328 O.3     1  NONAME1    -0.4915
      3 C2          7.3959    8.8887   -0.0722 C.ar    1  NONAME1     0.1616
      4 C3          8.4911    8.0190   -0.0936 C.ar    1  NONAME1    -0.0146
      5 C4          8.3049    6.6276   -0.0082 C.ar    1  NONAME1    -0.0368
      6 C5          7.0238    6.0716    0.0923 C.ar    1  NONAME1     0.0373
      7 N1          6.8586    4.6792    0.1282 N.pl3   1  NONAME1    -0.2835
      8 C6          5.7265    3.8557    0.0910 C.ar    1  NONAME1     0.2213
      9 N2          5.9695    2.5315    0.1728 N.ar    1  NONAME1    -0.2219
     10 C7          4.9315    1.6486    0.1342 C.ar    1  NONAME1     0.0424
     11 C8          3.6200    2.1049    0.0083 C.ar    1  NONAME1     0.0446
     12 C9          2.2745    1.5735   -0.0645 C.ar    1  NONAME1     0.0102
     13 C10         1.7371    0.1996   -0.0022 C.ar    1  NONAME1    -0.0140
     14 C11         2.5843   -0.9131    0.0609 C.ar    1  NONAME1    -0.0539
     15 C12         2.0737   -2.2071    0.2170 C.ar    1  NONAME1    -0.0594
     16 C13         0.6998   -2.4165    0.3129 C.ar    1  NONAME1    -0.0404
     17 C14        -0.1761   -1.3398    0.1930 C.ar    1  NONAME1     0.0340
     18 N3         -1.5622   -1.5984    0.2944 N.am    1  NONAME1    -0.2852
     19 C15        -2.5633   -0.8576   -0.3094 C.2     1  NONAME1     0.2215
     20 O2         -2.3654    0.0968   -1.0615 O.2     1  NONAME1    -0.2751
     21 C16        -3.9833   -1.2182    0.0968 C.3     1  NONAME1     0.0495
     22 C17        -4.5279   -2.6229   -0.0647 C.ar    1  NONAME1    -0.0358
     23 C18        -3.7975   -3.7583   -0.4182 C.ar    1  NONAME1    -0.0400
     24 C19        -4.4383   -4.9943   -0.4318 C.ar    1  NONAME1     0.0278
     25 N4         -5.7463   -5.1750   -0.1572 N.ar    1  NONAME1    -0.2632
     26 C20        -6.4542   -4.0687    0.1353 C.ar    1  NONAME1     0.0278
     27 C21        -5.8979   -2.8000    0.1996 C.ar    1  NONAME1    -0.0400
     28 C22         0.3489   -0.0484    0.0337 C.ar    1  NONAME1    -0.0327
     29 C23         1.4422    2.6830   -0.1783 C.ar    1  NONAME1     0.0119
     30 N5          2.2042    3.8192   -0.1713 N.ar    1  NONAME1    -0.3451
     31 C24         3.5171    3.4835   -0.0626 C.ar    1  NONAME1     0.1438
     32 N6          4.5047    4.3808   -0.0285 N.ar    1  NONAME1    -0.1964
     33 C25         5.9530    6.9671    0.1004 C.ar    1  NONAME1     0.0049
     34 C26         6.1175    8.3575    0.0102 C.ar    1  NONAME1     0.1632
     35 O3          4.9239    9.0028    0.0000 O.3     1  NONAME1    -0.4914
     36 C27         4.9239   10.5428    0.0000 C.3     1  NONAME1     0.0790
     37 H1          9.1461   10.5800    1.1227 H       1  NONAME1     0.0660
     38 H2          7.9897   11.9013    0.8801 H       1  NONAME1     0.0660
     39 H3          7.4985   10.5007    1.8445 H       1  NONAME1     0.0660
     40 H4          9.4961    8.4162   -0.2036 H       1  NONAME1     0.0656
     41 H5          9.1799    5.9831   -0.0432 H       1  NONAME1     0.0637
     42 H6          7.6864    4.1085    0.2034 H       1  NONAME1     0.1550
     43 H7          5.2150    0.6077    0.2124 H       1  NONAME1     0.0838
     44 H8          3.6615   -0.8138   -0.0008 H       1  NONAME1     0.0624
     45 H9          2.7552   -3.0536    0.2636 H       1  NONAME1     0.0618
     46 H10         0.3296   -3.4304    0.4345 H       1  NONAME1     0.0636
     47 H11        -1.8244   -2.4774    0.7194 H       1  NONAME1     0.1548
     48 H12        -4.0902   -0.9273    1.1498 H       1  NONAME1     0.0407
     49 H13        -4.6382   -0.5546   -0.4860 H       1  NONAME1     0.0407
     50 H14        -2.7509   -3.7296   -0.6928 H       1  NONAME1     0.0635
     51 H15        -3.8936   -5.9039   -0.6714 H       1  NONAME1     0.0829
     52 H16        -7.5117   -4.2277    0.3266 H       1  NONAME1     0.0829
     53 H17        -6.5336   -1.9552    0.4509 H       1  NONAME1     0.0635
     54 H18        -0.3472    0.7827   -0.0107 H       1  NONAME1     0.0642
     55 H19         0.3682    2.7822   -0.2604 H       1  NONAME1     0.0814
     56 H20         1.8695    4.7707   -0.2305 H       1  NONAME1     0.1668
     57 H21         4.9318    6.6065    0.1706 H       1  NONAME1     0.0674
     58 H22         4.7023   10.6094   -1.0807 H       1  NONAME1     0.0660
     59 H23         4.9239   12.0828    0.0000 H       1  NONAME1     0.0660
     60 H24         3.9692   10.6047    0.5510 H       1  NONAME1     0.0660
@<TRIPOS>BOND
     1     1     2    1
     2     2     3    1
     3     3     4   ar
     4     4     5   ar
     5     5     6   ar
     6     6     7    1
     7     7     8    1
     8     8     9   ar
     9     9    10   ar
    10    10    11   ar
    11    11    12   ar
    12    12    13    1
    13    13    14   ar
    14    14    15   ar
    15    15    16   ar
    16    16    17   ar
    17    17    18    1
    18    18    19   am
    19    19    20    2
    20    19    21    1
    21    21    22    1
    22    22    23   ar
    23    23    24   ar
    24    24    25   ar
    25    25    26   ar
    26    26    27   ar
    27    22    27   ar
    28    17    28   ar
    29    13    28   ar
    30    12    29   ar
    31    29    30   ar
    32    30    31   ar
    33    11    31   ar
    34    31    32   ar
    35     8    32   ar
    36     6    33   ar
    37    33    34   ar
    38     3    34   ar
    39    34    35    1
    40    35    36    1
    41     1    37    1
    42     1    38    1
    43     1    39    1
    44     4    40    1
    45     5    41    1
    46     7    42    1
    47    10    43    1
    48    14    44    1
    49    15    45    1
    50    16    46    1
    51    18    47    1
    52    21    48    1
    53    21    49    1
    54    23    50    1
    55    24    51    1
    56    26    52    1
    57    27    53    1
    58    28    54    1
    59    29    55    1
    60    30    56    1
    61    33    57    1
    62    36    58    1
    63    36    59    1
    64    36    60    1
