@<TRIPOS>MOLECULE
*****
 54 56 0 0 0
SMALL
USER_CHARGES

@<TRIPOS>ATOM
      1 C1          5.7351  -12.4774    0.1630 C.3     1  NONAME1    -0.0307
      2 C2          5.6808  -10.9617    0.0897 C.3     1  NONAME1     0.0868
      3 O1          4.3200  -10.5442   -0.0531 O.3     1  NONAME1    -0.4922
      4 C3          4.1140   -9.1963   -0.1829 C.ar    1  NONAME1     0.1206
      5 C4          2.7802   -8.7669   -0.1554 C.ar    1  NONAME1    -0.0182
      6 C5          2.4535   -7.4043   -0.3117 C.ar    1  NONAME1    -0.0374
      7 C6          3.4549   -6.4518   -0.5120 C.ar    1  NONAME1     0.0280
      8 N1          3.1650   -5.0900   -0.6679 N.pl3   1  NONAME1    -0.3311
      9 C7          3.5154   -4.1639    0.4374 C.3     1  NONAME1     0.1255
     10 C8          2.9371   -2.7366    0.3258 C.3     1  NONAME1     0.0392
     11 C9          2.2051   -2.2910   -0.9342 C.2     1  NONAME1     0.1655
     12 O2          1.8949   -3.0600   -1.8404 O.2     1  NONAME1    -0.2920
     13 C10         1.7302   -0.8644   -1.0110 C.ar    1  NONAME1     0.0175
     14 C11         0.9366   -0.4745   -2.1012 C.ar    1  NONAME1    -0.0513
     15 C12         0.4162    0.8212   -2.1764 C.ar    1  NONAME1    -0.0611
     16 C13         0.6884    1.7432   -1.1673 C.ar    1  NONAME1    -0.0617
     17 C14         1.4881    1.3755   -0.0885 C.ar    1  NONAME1    -0.0611
     18 C15         2.0080    0.0773   -0.0093 C.ar    1  NONAME1    -0.0513
     19 C16         5.0302   -4.0433    0.6714 C.2     1  NONAME1     0.3284
     20 O3          5.5769   -4.3092    1.7380 O.2     1  NONAME1    -0.2487
     21 O4          5.6944   -3.6372   -0.4480 O.3     1  NONAME1    -0.4553
     22 C17         7.1117   -3.8183   -0.4052 C.3     1  NONAME1     0.1553
     23 C18         7.9435   -2.5773   -0.0522 C.2     1  NONAME1     0.2068
     24 O5          7.3916   -1.4946    0.1622 O.2     1  NONAME1    -0.2879
     25 C19         9.4031   -2.7213   -0.0332 C.ar    1  NONAME1     0.0580
     26 C20        10.3415   -1.7065    0.0598 C.ar    1  NONAME1    -0.0440
     27 C21        11.6848   -2.1908    0.0523 C.ar    1  NONAME1    -0.0540
     28 C22        11.7336   -3.5647   -0.0367 C.ar    1  NONAME1    -0.0236
     29 S1         10.1752   -4.2518   -0.1246 S.2     1  NONAME1    -0.0937
     30 C23         4.7794   -6.8985   -0.5323 C.ar    1  NONAME1    -0.0374
     31 C24         5.1107   -8.2459   -0.3665 C.ar    1  NONAME1    -0.0182
     32 H1          5.0397  -12.8629    0.9141 H       1  NONAME1     0.0262
     33 H2          5.4501  -12.9158   -0.7992 H       1  NONAME1     0.0262
     34 H3          6.7481  -12.8134    0.4068 H       1  NONAME1     0.0262
     35 H4          6.2787  -10.6457   -0.7732 H       1  NONAME1     0.0694
     36 H5          6.0993  -10.5412    1.0115 H       1  NONAME1     0.0694
     37 H6          1.9874   -9.4980   -0.0157 H       1  NONAME1     0.0655
     38 H7          1.4069   -7.1116   -0.2765 H       1  NONAME1     0.0637
     39 H8          2.2138   -4.9277   -1.0068 H       1  NONAME1     0.1469
     40 H9          3.1088   -4.5928    1.3649 H       1  NONAME1     0.0618
     41 H10         3.7373   -2.0116    0.5177 H       1  NONAME1     0.0369
     42 H11         2.2065   -2.6238    1.1388 H       1  NONAME1     0.0369
     43 H12         0.7061   -1.1818   -2.8961 H       1  NONAME1     0.0624
     44 H13        -0.2083    1.1091   -3.0192 H       1  NONAME1     0.0618
     45 H14         0.2763    2.7485   -1.2207 H       1  NONAME1     0.0618
     46 H15         1.7039    2.0936    0.6954 H       1  NONAME1     0.0618
     47 H16         2.6196   -0.1649    0.8533 H       1  NONAME1     0.0624
     48 H17         7.3745   -4.6350    0.2765 H       1  NONAME1     0.0782
     49 H18         7.3996   -4.1285   -1.4158 H       1  NONAME1     0.0782
     50 H19        10.0730   -0.6575    0.1240 H       1  NONAME1     0.0630
     51 H20        12.5679   -1.5676    0.1129 H       1  NONAME1     0.0623
     52 H21        12.6115   -4.1963   -0.0528 H       1  NONAME1     0.0693
     53 H22         5.5854   -6.2058   -0.7384 H       1  NONAME1     0.0637
     54 H23         6.1606   -8.5097   -0.4117 H       1  NONAME1     0.0655
@<TRIPOS>BOND
     1     1     2    1
     2     2     3    1
     3     3     4    1
     4     4     5   ar
     5     5     6   ar
     6     6     7   ar
     7     7     8    1
     8     9     8    1
     9     9    10    1
    10    10    11    1
    11    11    12    2
    12    11    13    1
    13    13    14   ar
    14    14    15   ar
    15    15    16   ar
    16    16    17   ar
    17    17    18   ar
    18    13    18   ar
    19     9    19    1
    20    19    20    2
    21    19    21    1
    22    21    22    1
    23    22    23    1
    24    23    24    2
    25    23    25    1
    26    25    26   ar
    27    26    27   ar
    28    27    28   ar
    29    28    29   ar
    30    25    29   ar
    31     7    30   ar
    32    30    31   ar
    33     4    31   ar
    34     1    32    1
    35     1    33    1
    36     1    34    1
    37     2    35    1
    38     2    36    1
    39     5    37    1
    40     6    38    1
    41     8    39    1
    42     9    40    1
    43    10    41    1
    44    10    42    1
    45    14    43    1
    46    15    44    1
    47    16    45    1
    48    17    46    1
    49    18    47    1
    50    22    48    1
    51    22    49    1
    52    26    50    1
    53    27    51    1
    54    28    52    1
    55    30    53    1
    56    31    54    1
