REMARK  8 active torsions:
REMARK  status: ('A' for Active; 'I' for Inactive)
REMARK    1  A    between atoms: C2_2  and  C3_3 
REMARK    2  A    between atoms: C3_3  and  C4_4 
REMARK    3  A    between atoms: C7_7  and  C8_8 
REMARK    4  A    between atoms: C8_8  and  C9_10 
REMARK    5  A    between atoms: C9_10  and  C10_11 
REMARK    6  A    between atoms: C10_11  and  C11_12 
REMARK       I    between atoms: C11_12  and  N1_14 
REMARK    7  A    between atoms: N1_14  and  N2_15 
REMARK       I    between atoms: N2_15  and  C12_16 
REMARK    8  A    between atoms: C12_16  and  C13_18 
ROOT
ATOM      1  C11 NON d   1       8.197  -8.197  -1.298  0.00  0.00     0.236 C 
ATOM      2  O2  NON d   1       7.529  -8.233  -2.328  0.00  0.00    -0.272 OA
ATOM      3  N1  NON d   1       9.300  -7.377  -1.150  0.00  0.00    -0.267 N 
ATOM      4  H14 NON d   1       9.934  -7.412  -0.353  0.00  0.00     0.190 HD
ENDROOT
BRANCH   1   5
ATOM      5  C10 NON d   1       7.935  -9.053  -0.075  0.00  0.00     0.112 C 
BRANCH   5   6
ATOM      6  C9  NON d   1       6.729  -9.979  -0.235  0.00  0.00     0.093 C 
BRANCH   6   7
ATOM      7  C8  NON d   1       5.410  -9.282   0.059  0.00  0.00     0.160 C 
ATOM      8  O1  NON d   1       5.355  -8.093   0.367  0.00  0.00    -0.292 OA
BRANCH   7   9
ATOM      9  C7  NON d   1       4.144 -10.080  -0.008  0.00  0.00     0.010 A 
ATOM     10  C6  NON d   1       2.922  -9.400   0.034  0.00  0.00     0.015 A 
ATOM     11  C5  NON d   1       1.714 -10.105  -0.001  0.00  0.00     0.008 A 
ATOM     12  C4  NON d   1       1.695 -11.507  -0.066  0.00  0.00    -0.058 A 
ATOM     13  C20 NON d   1       2.921 -12.181  -0.115  0.00  0.00     0.008 A 
ATOM     14  C19 NON d   1       4.134 -11.477  -0.087  0.00  0.00     0.015 A 
BRANCH  12  15
ATOM     15  C3  NON d   1       0.348 -12.201  -0.107  0.00  0.00     0.038 C 
BRANCH  15  16
ATOM     16  C2  NON d   1       0.344 -13.723   0.073  0.00  0.00     0.000 C 
ATOM     17  C1  NON d   1      -1.072 -14.282   0.060  0.00  0.00     0.005 C 
ENDBRANCH  15  16
ENDBRANCH  12  15
ENDBRANCH   7   9
ENDBRANCH   6   7
ENDBRANCH   5   6
ENDBRANCH   1   5
BRANCH   3  18
ATOM     18  N2  NON d   1       9.693  -6.575  -2.227  0.00  0.00    -0.263 N 
ATOM     19  C12 NON d   1      10.918  -5.938  -2.152  0.00  0.00     0.270 C 
ATOM     20  O3  NON d   1      11.670  -6.099  -1.192  0.00  0.00    -0.266 OA
ATOM     21  H15 NON d   1       9.027  -6.511  -2.991  0.00  0.00     0.190 HD
BRANCH  19  22
ATOM     22  C13 NON d   1      11.305  -5.029  -3.276  0.00  0.00     0.033 A 
ATOM     23  C14 NON d   1      12.552  -4.380  -3.194  0.00  0.00     0.020 A 
ATOM     24  C15 NON d   1      12.968  -3.501  -4.198  0.00  0.00     0.043 A 
ATOM     25  C16 NON d   1      12.139  -3.268  -5.287  0.00  0.00     0.116 A 
ATOM     26  F1  NON d   1      12.530  -2.423  -6.249  0.00  0.00    -0.206 F 
ATOM     27  C17 NON d   1      10.906  -3.901  -5.390  0.00  0.00     0.043 A 
ATOM     28  C18 NON d   1      10.484  -4.781  -4.387  0.00  0.00     0.020 A 
ENDBRANCH  19  22
ENDBRANCH   3  18
TORSDOF 8
