@<TRIPOS>MOLECULE
*****
 30 32 0 0 0
SMALL
USER_CHARGES

@<TRIPOS>ATOM
      1 O1          6.1597    3.6781   -0.1818 O.2     1  NONAME1    -0.2654
      2 C1          5.8043    2.4966   -0.1019 C.ar    1  NONAME1     0.2791
      3 N1          6.7996    1.5288   -0.1457 N.ar    1  NONAME1    -0.3116
      4 C2          6.5792    0.1737   -0.0703 C.ar    1  NONAME1     0.0985
      5 N2          5.4356   -0.4111    0.0510 N.ar    1  NONAME1    -0.2162
      6 C3          4.4228    0.4954    0.1068 C.ar    1  NONAME1     0.1888
      7 N3          3.1281    0.1759    0.2653 N.ar    1  NONAME1    -0.1879
      8 C4          2.4299    1.3374    0.2877 C.ar    1  NONAME1     0.2716
      9 N4          1.1021    1.4423    0.5518 N.2     1  NONAME1    -0.1131
     10 N5          0.3655    1.5759   -0.4522 N.2     1  NONAME1    -0.1794
     11 C5         -1.0352    1.7707   -0.0683 C.3     1  NONAME1     0.0859
     12 C6         -1.8854    0.5153   -0.0828 C.ar    1  NONAME1    -0.0223
     13 C7         -1.3227   -0.7712   -0.0687 C.ar    1  NONAME1    -0.0566
     14 C8         -2.1312   -1.9104   -0.0412 C.ar    1  NONAME1    -0.0593
     15 C9         -3.5183   -1.7835   -0.0183 C.ar    1  NONAME1    -0.0315
     16 C10        -4.0882   -0.5048   -0.0216 C.ar    1  NONAME1     0.1265
     17 N6         -5.5467   -0.3639    0.0155 N.pl3   1  NONAME1     0.0564
     18 O2         -6.2263   -1.4003    0.0588 O.2     1  NONAME1    -0.1261
     19 O3         -6.0246    0.7807    0.0013 O.2     1  NONAME1    -0.1261
     20 C11        -3.2831    0.6412   -0.0516 C.ar    1  NONAME1    -0.0265
     21 N7          3.2667    2.3946    0.1512 N.ar    1  NONAME1    -0.2008
     22 C12         4.5168    1.8769    0.0397 C.ar    1  NONAME1     0.1758
     23 H1          7.7318    1.8961   -0.2354 H       1  NONAME1     0.1698
     24 H2          7.5069   -0.4169   -0.1248 H       1  NONAME1     0.1028
     25 H3         -1.1133    2.2326    0.9255 H       1  NONAME1     0.0576
     26 H4         -1.4652    2.4829   -0.7831 H       1  NONAME1     0.0576
     27 H5         -0.2378   -0.8986   -0.0737 H       1  NONAME1     0.0621
     28 H6         -1.6672   -2.8941   -0.0316 H       1  NONAME1     0.0618
     29 H7         -4.1304   -2.6815    0.0076 H       1  NONAME1     0.0640
     30 H8         -3.7281    1.6344   -0.0449 H       1  NONAME1     0.0644
@<TRIPOS>BOND
     1     1     2    2
     2     2     3   ar
     3     3     4   ar
     4     4     5   ar
     5     5     6   ar
     6     6     7   ar
     7     7     8   ar
     8     9     8    1
     9     9    10    2
    10    10    11    1
    11    11    12    1
    12    12    13   ar
    13    13    14   ar
    14    14    15   ar
    15    15    16   ar
    16    16    17    1
    17    17    18    1
    18    17    19    2
    19    16    20   ar
    20    12    20   ar
    21     8    21   ar
    22    21    22   ar
    23     2    22   ar
    24     6    22   ar
    25     3    23    1
    26     4    24    1
    27    11    25    1
    28    11    26    1
    29    13    27    1
    30    14    28    1
    31    15    29    1
    32    20    30    1
