@<TRIPOS>MOLECULE
*****
 57 59 0 0 0
SMALL
USER_CHARGES

@<TRIPOS>ATOM
      1 C1         -6.6684   -6.9300    0.0000 C.3     1  NONAME1     0.0820
      2 O1         -6.6684   -8.4700    0.0000 O.3     1  NONAME1    -0.4644
      3 C2         -7.9342   -9.1008   -0.0650 C.2     1  NONAME1     0.3390
      4 O2         -8.9766   -8.4588   -0.1356 O.2     1  NONAME1    -0.2450
      5 C3         -8.0022  -10.6713   -0.0300 C.ar    1  NONAME1     0.0607
      6 C4         -6.8131  -11.3880    0.0192 C.ar    1  NONAME1    -0.0477
      7 C5         -6.8408  -12.7941    0.0481 C.ar    1  NONAME1    -0.0592
      8 C6         -8.0450  -13.5393    0.0304 C.ar    1  NONAME1    -0.0404
      9 C7         -9.2947  -12.9224   -0.0172 C.ar    1  NONAME1     0.0344
     10 N1        -10.5589  -13.7273   -0.0313 N.am    1  NONAME1    -0.2820
     11 C8        -10.6966  -15.1578   -0.0093 C.2     1  NONAME1     0.2411
     12 O3         -9.7519  -15.9465    0.0187 O.2     1  NONAME1    -0.2705
     13 C9        -12.1494  -15.8066   -0.0218 C.2     1  NONAME1     0.0010
     14 C10       -12.3839  -17.1681   -0.0065 C.2     1  NONAME1    -0.0496
     15 C11       -13.6563  -18.0722   -0.0079 C.ar    1  NONAME1    -0.0212
     16 C12       -13.6317  -19.4960   -0.0069 C.ar    1  NONAME1    -0.0508
     17 C13       -14.8189  -20.3785   -0.0032 C.ar    1  NONAME1    -0.0128
     18 C14       -16.1399  -19.8885   -0.0011 C.ar    1  NONAME1     0.1981
     19 O4        -17.3378  -20.7900    0.0000 O.3     1  NONAME1    -0.3386
     20 S1        -17.3378  -22.3300    0.0000 S.O2    1  NONAME1     0.1511
     21 O5        -18.2726  -22.3457   -1.1372 O.2     1  NONAME1    -0.1314
     22 O6        -17.8068  -22.3504    1.3955 O.2     1  NONAME1    -0.1314
     23 C15       -17.3378  -23.8700    0.0000 C.ar    1  NONAME1     0.1281
     24 C16       -16.1911  -24.6739   -0.1991 C.ar    1  NONAME1    -0.0332
     25 C17       -16.1905  -26.1461   -0.2043 C.ar    1  NONAME1    -0.0569
     26 C18       -17.3378  -26.9500    0.0000 C.ar    1  NONAME1    -0.0503
     27 C19       -17.3378  -28.4900    0.0000 C.3     1  NONAME1    -0.0397
     28 C20       -18.4916  -26.1654    0.1735 C.ar    1  NONAME1    -0.0569
     29 C21       -18.4835  -24.7074    0.1802 C.ar    1  NONAME1    -0.0332
     30 C22       -16.1590  -18.4150   -0.0004 C.ar    1  NONAME1     0.1650
     31 O7        -17.3378  -17.7100    0.0000 O.3     1  NONAME1    -0.4913
     32 C23       -17.3378  -16.1700    0.0000 C.3     1  NONAME1     0.0790
     33 C24       -14.9543  -17.5785   -0.0017 C.ar    1  NONAME1    -0.0091
     34 C25        -9.2472  -11.4640   -0.0481 C.ar    1  NONAME1    -0.0265
     35 H1         -5.5914   -6.8693   -0.2341 H       1  NONAME1     0.0661
     36 H2         -6.6684   -5.3900    0.0000 H       1  NONAME1     0.0661
     37 H3         -6.7830   -6.8628    1.0970 H       1  NONAME1     0.0661
     38 H4         -5.8530  -10.8778    0.0344 H       1  NONAME1     0.0626
     39 H5         -5.8967  -13.3381    0.0858 H       1  NONAME1     0.0618
     40 H6         -7.9480  -14.6210    0.0569 H       1  NONAME1     0.0636
     41 H7        -11.4068  -13.1785   -0.0611 H       1  NONAME1     0.1551
     42 H8        -12.9616  -15.0918   -0.0407 H       1  NONAME1     0.0670
     43 H9        -11.4866  -17.7938    0.0120 H       1  NONAME1     0.0625
     44 H10       -12.6585  -19.9925   -0.0070 H       1  NONAME1     0.0625
     45 H11       -14.6170  -21.4461    0.0037 H       1  NONAME1     0.0656
     46 H12       -15.2242  -24.1949   -0.3636 H       1  NONAME1     0.0638
     47 H13       -15.2307  -26.6388   -0.3702 H       1  NONAME1     0.0621
     48 H14       -18.1811  -28.5878    0.7150 H       1  NONAME1     0.0278
     49 H15       -17.3378  -30.0300    0.0000 H       1  NONAME1     0.0278
     50 H16       -16.4083  -28.5784    0.6008 H       1  NONAME1     0.0278
     51 H17       -19.4558  -26.6536    0.3212 H       1  NONAME1     0.0621
     52 H18       -19.4510  -24.2190    0.3357 H       1  NONAME1     0.0638
     53 H19       -17.4966  -16.1029   -1.0919 H       1  NONAME1     0.0660
     54 H20       -17.3378  -14.6300    0.0000 H       1  NONAME1     0.0660
     55 H21       -18.3235  -16.1084    0.4935 H       1  NONAME1     0.0660
     56 H22       -15.0529  -16.4979    0.0030 H       1  NONAME1     0.0661
     57 H23       -10.1844  -10.9093   -0.0872 H       1  NONAME1     0.0644
@<TRIPOS>BOND
     1     1     2    1
     2     2     3    1
     3     3     4    2
     4     3     5    1
     5     5     6   ar
     6     6     7   ar
     7     7     8   ar
     8     8     9   ar
     9     9    10    1
    10    10    11   am
    11    11    12    2
    12    11    13    1
    13    13    14    2
    14    14    15    1
    15    15    16   ar
    16    16    17   ar
    17    17    18   ar
    18    18    19    1
    19    19    20    1
    20    20    21    2
    21    20    22    2
    22    20    23    1
    23    23    24   ar
    24    24    25   ar
    25    25    26   ar
    26    26    27    1
    27    26    28   ar
    28    28    29   ar
    29    23    29   ar
    30    18    30   ar
    31    30    31    1
    32    31    32    1
    33    30    33   ar
    34    15    33   ar
    35     9    34   ar
    36     5    34   ar
    37     1    35    1
    38     1    36    1
    39     1    37    1
    40     6    38    1
    41     7    39    1
    42     8    40    1
    43    10    41    1
    44    13    42    1
    45    14    43    1
    46    16    44    1
    47    17    45    1
    48    24    46    1
    49    25    47    1
    50    27    48    1
    51    27    49    1
    52    27    50    1
    53    28    51    1
    54    29    52    1
    55    32    53    1
    56    32    54    1
    57    32    55    1
    58    33    56    1
    59    34    57    1
