@<TRIPOS>MOLECULE
*****
 60 62 0 0 0
SMALL
USER_CHARGES

@<TRIPOS>ATOM
      1 C1         -0.4126  -17.2421    0.0000 C.3     1  NONAME1    -0.0397
      2 C2          0.3574  -15.9084    0.0000 C.ar    1  NONAME1    -0.0501
      3 C3         -0.1606  -14.6129    0.1986 C.ar    1  NONAME1    -0.0571
      4 C4          0.6668  -13.3854    0.3232 C.ar    1  NONAME1    -0.0400
      5 C5          2.0831  -13.3379    0.2273 C.ar    1  NONAME1     0.0364
      6 N1          2.8793  -12.1092    0.4220 N.am    1  NONAME1    -0.2837
      7 C6          4.2074  -11.9074    0.0000 C.2     1  NONAME1     0.2375
      8 O1          4.7466  -12.6233   -0.8731 O.2     1  NONAME1    -0.2734
      9 C7          4.9774  -10.5737    0.0000 C.3     1  NONAME1     0.1000
     10 C8          4.0982   -9.3282    0.5888 C.3     1  NONAME1    -0.0236
     11 C9          4.9773   -7.9064   -0.0145 C.3     1  NONAME1    -0.0446
     12 C10         4.2525   -7.0413   -1.1214 C.3     1  NONAME1    -0.0626
     13 C11         4.8068   -6.9061    1.1439 C.3     1  NONAME1    -0.0626
     14 N2          6.2996  -11.1094    0.5464 N.am    1  NONAME1    -0.3027
     15 C12         7.2836  -10.2431    1.0406 C.2     1  NONAME1     0.2310
     16 O2          7.1543   -9.7278    2.1432 O.2     1  NONAME1    -0.2741
     17 C13         8.4231   -9.8564    0.0222 C.3     1  NONAME1     0.0890
     18 C14         9.1065   -8.5145    0.4240 C.3     1  NONAME1    -0.0034
     19 C15        10.5934   -8.4384    0.1897 C.ar    1  NONAME1    -0.0410
     20 C16        11.2569   -7.2041    0.1023 C.ar    1  NONAME1    -0.0582
     21 C17        12.6443   -7.1500   -0.0385 C.ar    1  NONAME1    -0.0615
     22 C18        13.3805   -8.3307   -0.0817 C.ar    1  NONAME1    -0.0614
     23 C19        12.7253   -9.5605    0.0134 C.ar    1  NONAME1    -0.0571
     24 C20        11.3325   -9.6285    0.1460 C.ar    1  NONAME1    -0.0303
     25 C21        10.6161  -10.9330    0.3782 C.3     1  NONAME1     0.0222
     26 N3          9.3071  -11.0071   -0.2675 N.3     1  NONAME1    -0.3014
     27 C22         2.6674  -14.5747    0.0000 C.ar    1  NONAME1    -0.0290
     28 C23         4.2074  -14.5747    0.0000 C.3     1  NONAME1    -0.0379
     29 C24         1.8127  -15.8216   -0.0998 C.ar    1  NONAME1    -0.0542
     30 H1         -1.2970  -16.8421    0.5369 H       1  NONAME1     0.0278
     31 H2         -1.1826  -18.5758    0.0000 H       1  NONAME1     0.0278
     32 H3          0.2381  -17.7158    0.7645 H       1  NONAME1     0.0278
     33 H4         -1.2395  -14.4850    0.2979 H       1  NONAME1     0.0621
     34 H5          0.1236  -12.4560    0.4946 H       1  NONAME1     0.0636
     35 H6          2.3587  -11.3118    0.7619 H       1  NONAME1     0.1549
     36 H7          5.7474   -9.2400    0.0000 H       1  NONAME1     0.0595
     37 H8          3.1011   -9.2931    0.1380 H       1  NONAME1     0.0290
     38 H9          4.0670   -9.3532    1.6798 H       1  NONAME1     0.0290
     39 H10         5.1479   -8.9066   -1.1730 H       1  NONAME1     0.0296
     40 H11         3.8502   -6.0848   -0.7693 H       1  NONAME1     0.0232
     41 H12         5.0078   -6.7879   -1.8798 H       1  NONAME1     0.0232
     42 H13         3.4445   -7.5916   -1.6091 H       1  NONAME1     0.0232
     43 H14         5.2388   -7.5666    1.9240 H       1  NONAME1     0.0232
     44 H15         4.6362   -5.9058    2.3024 H       1  NONAME1     0.0232
     45 H16         5.6531   -6.2549    0.8316 H       1  NONAME1     0.0232
     46 H17         6.6656  -11.7455   -0.1591 H       1  NONAME1     0.1495
     47 H18         7.9073   -9.6574   -0.9302 H       1  NONAME1     0.0560
     48 H19         8.9488   -8.2871    1.4832 H       1  NONAME1     0.0333
     49 H20         8.6242   -7.7084   -0.1471 H       1  NONAME1     0.0333
     50 H21        10.6951   -6.2718    0.1612 H       1  NONAME1     0.0620
     51 H22        13.1536   -6.1898   -0.0803 H       1  NONAME1     0.0618
     52 H23        14.4608   -8.2924   -0.1744 H       1  NONAME1     0.0618
     53 H24        13.3198  -10.4754   -0.0047 H       1  NONAME1     0.0621
     54 H25        11.2295  -11.7465   -0.0269 H       1  NONAME1     0.0474
     55 H26        10.5208  -11.0976    1.4563 H       1  NONAME1     0.0474
     56 H27         8.8605  -11.8804   -0.0047 H       1  NONAME1     0.1230
     57 H28         4.2974  -15.4194   -0.7126 H       1  NONAME1     0.0278
     58 H29         5.7474  -14.5747    0.0000 H       1  NONAME1     0.0278
     59 H30         4.2851  -14.9607    1.0378 H       1  NONAME1     0.0278
     60 H31         2.3600  -16.7603   -0.2252 H       1  NONAME1     0.0623
@<TRIPOS>BOND
     1     1     2    1
     2     2     3   ar
     3     3     4   ar
     4     4     5   ar
     5     5     6    1
     6     6     7   am
     7     7     8    2
     8     9     7    1
     9     9    10    1
    10    10    11    1
    11    11    12    1
    12    11    13    1
    13     9    14    1
    14    14    15   am
    15    15    16    2
    16    17    15    1
    17    17    18    1
    18    18    19    1
    19    19    20   ar
    20    20    21   ar
    21    21    22   ar
    22    22    23   ar
    23    23    24   ar
    24    19    24   ar
    25    24    25    1
    26    25    26    1
    27    17    26    1
    28     5    27   ar
    29    27    28    1
    30    27    29   ar
    31     2    29   ar
    32     1    30    1
    33     1    31    1
    34     1    32    1
    35     3    33    1
    36     4    34    1
    37     6    35    1
    38     9    36    1
    39    10    37    1
    40    10    38    1
    41    11    39    1
    42    12    40    1
    43    12    41    1
    44    12    42    1
    45    13    43    1
    46    13    44    1
    47    13    45    1
    48    14    46    1
    49    17    47    1
    50    18    48    1
    51    18    49    1
    52    20    50    1
    53    21    51    1
    54    22    52    1
    55    23    53    1
    56    25    54    1
    57    25    55    1
    58    26    56    1
    59    28    57    1
    60    28    58    1
    61    28    59    1
    62    29    60    1
