@<TRIPOS>MOLECULE
*****
 51 54 0 0 0
SMALL
USER_CHARGES

@<TRIPOS>ATOM
      1 C1        -14.1796   -6.6375    0.0000 C.3     1  NONAME1    -0.0306
      2 C2        -12.6396   -6.6375    0.0000 C.3     1  NONAME1     0.0900
      3 O1        -11.9065   -7.8126    0.2371 O.3     1  NONAME1    -0.4614
      4 C3        -10.5337   -7.7935    0.2423 C.2     1  NONAME1     0.3392
      5 O2         -9.9652   -8.8820    0.3446 O.2     1  NONAME1    -0.2450
      6 C4         -9.6308   -6.5509    0.1392 C.ar    1  NONAME1     0.0591
      7 C5         -9.9773   -5.1900    0.1130 C.ar    1  NONAME1    -0.0460
      8 C6         -9.0037   -4.1582    0.0593 C.ar    1  NONAME1    -0.0397
      9 C7         -7.6391   -4.4438    0.0255 C.ar    1  NONAME1     0.0348
     10 N1         -6.7161   -3.3596   -0.0042 N.am    1  NONAME1    -0.2692
     11 C8         -5.3330   -3.4670   -0.1058 C.2     1  NONAME1     0.3081
     12 O3         -4.7494   -4.5336   -0.2505 O.2     1  NONAME1    -0.2522
     13 N2         -4.6907   -2.2328   -0.0191 N.am    1  NONAME1    -0.2692
     14 C9         -3.2816   -2.0247   -0.0154 C.ar    1  NONAME1     0.0348
     15 C10        -2.7782   -0.7179   -0.0094 C.ar    1  NONAME1    -0.0398
     16 C11        -1.3852   -0.4724   -0.0064 C.ar    1  NONAME1    -0.0509
     17 C12        -0.4586   -1.5251   -0.0056 C.ar    1  NONAME1    -0.0016
     18 C13         1.0001   -1.2986   -0.0046 C.ar    1  NONAME1     0.0475
     19 C14         1.7639   -0.1386   -0.0041 C.ar    1  NONAME1    -0.0286
     20 C15         3.1483   -0.4901   -0.0042 C.ar    1  NONAME1     0.0016
     21 C16         4.3568    0.2358   -0.0033 C.ar    1  NONAME1    -0.0342
     22 C17         5.5693   -0.4668   -0.0038 C.ar    1  NONAME1     0.0417
     23 Cl1         7.0556    0.4063   -0.0030 Cl      1  NONAME1    -0.0835
     24 C18         5.5995   -1.8595   -0.0049 C.ar    1  NONAME1    -0.0414
     25 C19         4.4130   -2.5952   -0.0059 C.ar    1  NONAME1    -0.0364
     26 C20         3.2097   -1.8784   -0.0054 C.ar    1  NONAME1     0.0470
     27 N3          1.9155   -2.3343   -0.0068 N.ar    1  NONAME1    -0.3541
     28 C21        -0.9793   -2.8235   -0.0033 C.ar    1  NONAME1    -0.0509
     29 C22        -2.3577   -3.0673   -0.0050 C.ar    1  NONAME1    -0.0398
     30 C23        -7.2775   -5.7896    0.0384 C.ar    1  NONAME1    -0.0397
     31 C24        -8.2485   -6.8118    0.0944 C.ar    1  NONAME1    -0.0460
     32 H1        -14.2834   -5.6321   -0.4570 H       1  NONAME1     0.0262
     33 H2        -15.7196   -6.6375    0.0000 H       1  NONAME1     0.0262
     34 H3        -14.2756   -7.4231   -0.7761 H       1  NONAME1     0.0262
     35 H4        -12.4123   -5.9638    0.8310 H       1  NONAME1     0.0695
     36 H5        -12.3077   -6.2151   -0.9568 H       1  NONAME1     0.0695
     37 H6        -10.9951   -4.8328    0.1363 H       1  NONAME1     0.0626
     38 H7         -9.3494   -3.1264    0.0481 H       1  NONAME1     0.0636
     39 H8         -7.1072   -2.4317    0.0232 H       1  NONAME1     0.1564
     40 H9         -5.2623   -1.4029    0.0024 H       1  NONAME1     0.1564
     41 H10        -3.4493    0.1378   -0.0114 H       1  NONAME1     0.0636
     42 H11        -1.0419    0.5603   -0.0058 H       1  NONAME1     0.0625
     43 H12         1.3767    0.8716   -0.0035 H       1  NONAME1     0.0645
     44 H13         4.3475    1.3208   -0.0023 H       1  NONAME1     0.0639
     45 H14         6.5507   -2.3869   -0.0053 H       1  NONAME1     0.0633
     46 H15         4.4297   -3.6814   -0.0070 H       1  NONAME1     0.0639
     47 H16         1.6814   -3.3150   -0.0086 H       1  NONAME1     0.1659
     48 H17        -0.3389   -3.6988    0.0011 H       1  NONAME1     0.0625
     49 H18        -2.6596   -4.1080    0.0085 H       1  NONAME1     0.0636
     50 H19        -6.2405   -6.1064    0.0229 H       1  NONAME1     0.0636
     51 H20        -7.8843   -7.8400    0.1111 H       1  NONAME1     0.0626
@<TRIPOS>BOND
     1     1     2    1
     2     2     3    1
     3     3     4    1
     4     4     5    2
     5     4     6    1
     6     6     7   ar
     7     7     8   ar
     8     8     9   ar
     9     9    10    1
    10    10    11   am
    11    11    12    2
    12    11    13   am
    13    13    14    1
    14    14    15   ar
    15    15    16   ar
    16    16    17   ar
    17    18    17    1
    18    18    19   ar
    19    19    20   ar
    20    20    21   ar
    21    21    22   ar
    22    22    23    1
    23    22    24   ar
    24    24    25   ar
    25    25    26   ar
    26    20    26   ar
    27    26    27   ar
    28    18    27   ar
    29    17    28   ar
    30    28    29   ar
    31    14    29   ar
    32     9    30   ar
    33    30    31   ar
    34     6    31   ar
    35     1    32    1
    36     1    33    1
    37     1    34    1
    38     2    35    1
    39     2    36    1
    40     7    37    1
    41     8    38    1
    42    10    39    1
    43    13    40    1
    44    15    41    1
    45    16    42    1
    46    19    43    1
    47    21    44    1
    48    24    45    1
    49    25    46    1
    50    27    47    1
    51    28    48    1
    52    29    49    1
    53    30    50    1
    54    31    51    1
