REMARK  14 active torsions:
REMARK  status: ('A' for Active; 'I' for Inactive)
REMARK    1  A    between atoms: C2_2  and  C4_8 
REMARK    2  A    between atoms: N1_3  and  N2_4 
REMARK    3  A    between atoms: N2_4  and  C3_5 
REMARK    4  A    between atoms: C3_5  and  N3_6 
REMARK    5  A    between atoms: C7_11  and  O1_12 
REMARK    6  A    between atoms: O1_12  and  C8_13 
REMARK    7  A    between atoms: C8_13  and  C9_14 
REMARK    8  A    between atoms: C9_14  and  C10_15 
REMARK    9  A    between atoms: C10_15  and  O2_16 
REMARK   10  A    between atoms: O2_16  and  C11_17 
REMARK   11  A    between atoms: C14_20  and  C15_21 
REMARK   12  A    between atoms: N4_23  and  N5_24 
REMARK   13  A    between atoms: N5_24  and  C17_25 
REMARK   14  A    between atoms: C17_25  and  N6_26 
ROOT
ATOM      1  C9  NON d   1       1.496  -6.085   0.359  0.00  0.00     0.053 C 
ENDROOT
BRANCH   1   2
ATOM      2  C8  NON d   1       0.138  -5.384   0.060  0.00  0.00     0.178 C 
BRANCH   2   3
ATOM      3  O1  NON d   1      -0.367  -4.601   1.161  0.00  0.00    -0.351 OA
BRANCH   3   4
ATOM      4  C7  NON d   1      -1.639  -4.065   1.063  0.00  0.00     0.068 A 
ATOM      5  C6  NON d   1      -2.152  -3.456   2.217  0.00  0.00     0.037 A 
ATOM      6  C5  NON d   1      -3.442  -2.847   2.250  0.00  0.00     0.016 A 
ATOM      7  C4  NON d   1      -4.267  -2.803   1.116  0.00  0.00    -0.010 A 
ATOM      8  C21 NON d   1      -3.721  -3.387  -0.046  0.00  0.00     0.016 A 
ATOM      9  C20 NON d   1      -2.448  -4.032  -0.069  0.00  0.00     0.037 A 
BRANCH   7  10
ATOM     10  C2  NON d   1      -5.662  -2.107   1.148  0.00  0.00     0.061 C 
ATOM     11  C1  NON d   1      -5.989  -1.133   2.295  0.00  0.00     0.073 C 
ATOM     12  N1  NON d   1      -6.637  -2.272   0.299  0.00  0.00    -0.177 NA
BRANCH  12  13
ATOM     13  N2  NON d   1      -6.605  -3.218  -0.665  0.00  0.00    -0.253 N 
ATOM     14  H4  NON d   1      -6.196  -4.112  -0.417  0.00  0.00     0.191 HD
BRANCH  13  15
ATOM     15  C3  NON d   1      -7.505  -3.200  -1.709  0.00  0.00     0.185 C 
ATOM     16  S1  NON d   1      -8.689  -2.073  -2.024  0.00  0.00    -0.040 SA
BRANCH  15  17
ATOM     17  N3  NON d   1      -7.328  -4.235  -2.583  0.00  0.00    -0.375 N 
ATOM     18  H5  NON d   1      -7.883  -4.175  -3.431  0.00  0.00     0.158 HD
ATOM     19  H6  NON d   1      -6.401  -4.617  -2.703  0.00  0.00     0.158 HD
ENDBRANCH  15  17
ENDBRANCH  13  15
ENDBRANCH  12  13
ENDBRANCH   7  10
ENDBRANCH   3   4
ENDBRANCH   2   3
ENDBRANCH   1   2
BRANCH   1  20
ATOM     20  C10 NON d   1       2.775  -5.216   0.242  0.00  0.00     0.178 C 
BRANCH  20  21
ATOM     21  O2  NON d   1       3.955  -6.065   0.277  0.00  0.00    -0.351 OA
BRANCH  21  22
ATOM     22  C11 NON d   1       5.206  -5.488   0.177  0.00  0.00     0.068 A 
ATOM     23  C12 NON d   1       6.316  -6.352   0.184  0.00  0.00     0.037 A 
ATOM     24  C13 NON d   1       7.659  -5.874   0.114  0.00  0.00     0.016 A 
ATOM     25  C14 NON d   1       7.931  -4.509   0.022  0.00  0.00    -0.010 A 
ATOM     26  C18 NON d   1       6.802  -3.653   0.004  0.00  0.00     0.016 A 
ATOM     27  C19 NON d   1       5.468  -4.130   0.079  0.00  0.00     0.037 A 
BRANCH  25  28
ATOM     28  C15 NON d   1       9.336  -3.850  -0.015  0.00  0.00     0.061 C 
ATOM     29  C16 NON d   1      10.669  -4.620  -0.029  0.00  0.00     0.073 C 
ATOM     30  N4  NON d   1       9.321  -2.544   0.013  0.00  0.00    -0.177 NA
BRANCH  30  31
ATOM     31  N5  NON d   1      10.474  -1.829   0.073  0.00  0.00    -0.253 N 
ATOM     32  H20 NON d   1      11.340  -2.303   0.284  0.00  0.00     0.191 HD
BRANCH  31  33
ATOM     33  C17 NON d   1      10.448  -0.451   0.102  0.00  0.00     0.185 C 
ATOM     34  S2  NON d   1       9.115   0.546   0.037  0.00  0.00    -0.040 SA
BRANCH  33  35
ATOM     35  N6  NON d   1      11.686   0.112   0.203  0.00  0.00    -0.375 N 
ATOM     36  H21 NON d   1      11.716   1.122   0.126  0.00  0.00     0.158 HD
ATOM     37  H22 NON d   1      12.493  -0.378  -0.148  0.00  0.00     0.158 HD
ENDBRANCH  33  35
ENDBRANCH  31  33
ENDBRANCH  30  31
ENDBRANCH  25  28
ENDBRANCH  21  22
ENDBRANCH  20  21
ENDBRANCH   1  20
TORSDOF 14
