@<TRIPOS>MOLECULE
*****
 65 67 0 0 0
SMALL
USER_CHARGES

@<TRIPOS>ATOM
      1 C1         -5.5262   -4.3680   -2.9144 C.3     1  NONAME1    -0.0653
      2 C2         -4.9386   -5.1000   -1.7160 C.3     1  NONAME1    -0.0559
      3 C3         -5.8379   -6.2410   -1.2479 C.3     1  NONAME1    -0.0519
      4 C4         -5.4781   -6.8613    0.1097 C.3     1  NONAME1    -0.0371
      5 C5         -4.2001   -7.7164    0.1915 C.3     1  NONAME1     0.0168
      6 N1         -2.8931   -7.0641    0.1745 N.am    1  NONAME1    -0.2765
      7 C6         -2.6476   -5.7365    0.5107 C.2     1  NONAME1     0.3111
      8 O1         -3.4851   -5.0124    1.0351 O.2     1  NONAME1    -0.2520
      9 N2         -1.3252   -5.4027    0.1542 N.am    1  NONAME1    -0.2336
     10 C7         -0.8779   -4.0403    0.0768 C.ar    1  NONAME1     0.0399
     11 C8         -1.8028   -2.9788    0.0592 C.ar    1  NONAME1    -0.0401
     12 C9         -1.4159   -1.6365    0.0002 C.ar    1  NONAME1    -0.0598
     13 C10        -0.0709   -1.3052   -0.0725 C.ar    1  NONAME1    -0.0587
     14 C11         0.8791   -2.3273   -0.1277 C.ar    1  NONAME1    -0.0487
     15 C12         2.3324   -1.9837   -0.2531 C.3     1  NONAME1    -0.0397
     16 C13         0.4616   -3.6731   -0.0484 C.ar    1  NONAME1    -0.0372
     17 C14        -0.5211   -6.6416    0.2114 C.3     1  NONAME1     0.1268
     18 N3          0.7913   -6.7956   -0.4464 N.am    1  NONAME1    -0.2579
     19 O2          0.7981   -6.4782   -1.8163 O.3     1  NONAME1    -0.4178
     20 C15         1.6629   -7.8060   -0.0382 C.2     1  NONAME1     0.1507
     21 O3          1.3530   -8.6989    0.7572 O.2     1  NONAME1    -0.5259
     22 N4          2.9425   -7.8235   -0.5413 N.am    1  NONAME1    -0.2955
     23 C16         3.9480   -6.8834   -0.2021 C.ar    1  NONAME1     0.0329
     24 C17         3.6773   -5.6975    0.4748 C.ar    1  NONAME1    -0.0405
     25 C18         4.6976   -4.8018    0.7990 C.ar    1  NONAME1    -0.0598
     26 C19         6.0187   -5.1095    0.4913 C.ar    1  NONAME1    -0.0587
     27 C20         6.3271   -6.3234   -0.1321 C.ar    1  NONAME1    -0.0487
     28 C21         7.7624   -6.6814   -0.3767 C.3     1  NONAME1    -0.0397
     29 C22         5.2844   -7.1984   -0.4876 C.ar    1  NONAME1    -0.0376
     30 C23        -1.6083   -7.8013    0.0272 C.3     1  NONAME1     0.0691
     31 C24        -1.4959   -8.8528    1.1592 C.3     1  NONAME1    -0.0404
     32 C25        -1.5696   -8.5193   -1.3276 C.3     1  NONAME1    -0.0404
     33 H1         -4.8135   -3.6265   -3.2901 H       1  NONAME1     0.0230
     34 H2         -6.4414   -3.8366   -2.6315 H       1  NONAME1     0.0230
     35 H3         -5.7652   -5.0589   -3.7278 H       1  NONAME1     0.0230
     36 H4         -4.8123   -4.3662   -0.9154 H       1  NONAME1     0.0263
     37 H5         -3.9516   -5.4880   -1.9868 H       1  NONAME1     0.0263
     38 H6         -6.8631   -5.8554   -1.1627 H       1  NONAME1     0.0266
     39 H7         -5.8675   -7.0243   -2.0142 H       1  NONAME1     0.0266
     40 H8         -6.3081   -7.5391    0.3560 H       1  NONAME1     0.0280
     41 H9         -5.5044   -6.0997    0.8941 H       1  NONAME1     0.0280
     42 H10        -4.2561   -8.2884    1.1223 H       1  NONAME1     0.0465
     43 H11        -4.2232   -8.4330   -0.6362 H       1  NONAME1     0.0465
     44 H12        -2.8718   -3.1616    0.0638 H       1  NONAME1     0.0636
     45 H13        -2.1706   -0.8578    0.0035 H       1  NONAME1     0.0618
     46 H14         0.2311   -0.2670   -0.1219 H       1  NONAME1     0.0620
     47 H15         2.9207   -2.8450   -0.5782 H       1  NONAME1     0.0278
     48 H16         2.4745   -1.1957   -1.0003 H       1  NONAME1     0.0278
     49 H17         2.7182   -1.6350    0.7098 H       1  NONAME1     0.0278
     50 H18         1.2109   -4.4430   -0.1476 H       1  NONAME1     0.0639
     51 H19        -0.2428   -6.6599    1.2770 H       1  NONAME1     0.0742
     52 H20         3.2848   -8.7691   -0.6361 H       1  NONAME1     0.1539
     53 H21         2.6648   -5.4636    0.7749 H       1  NONAME1     0.0636
     54 H22         4.4495   -3.8698    1.2978 H       1  NONAME1     0.0618
     55 H23         6.8051   -4.4072    0.7539 H       1  NONAME1     0.0620
     56 H24         7.8574   -7.6324   -0.9058 H       1  NONAME1     0.0278
     57 H25         8.2892   -6.7703    0.5803 H       1  NONAME1     0.0278
     58 H26         8.2488   -5.9071   -0.9801 H       1  NONAME1     0.0278
     59 H27         5.5166   -8.1376   -0.9808 H       1  NONAME1     0.0639
     60 H28        -2.4380   -9.3789    1.3366 H       1  NONAME1     0.0251
     61 H29        -0.7686   -9.6337    0.9211 H       1  NONAME1     0.0251
     62 H30        -1.2105   -8.3967    2.1139 H       1  NONAME1     0.0251
     63 H31        -2.3185   -9.3188   -1.3715 H       1  NONAME1     0.0251
     64 H32        -1.7825   -7.8343   -2.1536 H       1  NONAME1     0.0251
     65 H33        -0.6022   -9.0002   -1.5054 H       1  NONAME1     0.0251
@<TRIPOS>BOND
     1     1     2    1
     2     2     3    1
     3     3     4    1
     4     4     5    1
     5     5     6    1
     6     6     7   am
     7     7     8    2
     8     7     9   am
     9     9    10    1
    10    10    11   ar
    11    11    12   ar
    12    12    13   ar
    13    13    14   ar
    14    14    15    1
    15    14    16   ar
    16    10    16   ar
    17    17     9    1
    18    17    18    1
    19    18    19    1
    20    18    20   am
    21    20    21    2
    22    20    22   am
    23    22    23    1
    24    23    24   ar
    25    24    25   ar
    26    25    26   ar
    27    26    27   ar
    28    27    28    1
    29    27    29   ar
    30    23    29   ar
    31    17    30    1
    32     6    30    1
    33    30    31    1
    34    30    32    1
    35     1    33    1
    36     1    34    1
    37     1    35    1
    38     2    36    1
    39     2    37    1
    40     3    38    1
    41     3    39    1
    42     4    40    1
    43     4    41    1
    44     5    42    1
    45     5    43    1
    46    11    44    1
    47    12    45    1
    48    13    46    1
    49    15    47    1
    50    15    48    1
    51    15    49    1
    52    16    50    1
    53    17    51    1
    54    22    52    1
    55    24    53    1
    56    25    54    1
    57    26    55    1
    58    28    56    1
    59    28    57    1
    60    28    58    1
    61    29    59    1
    62    31    60    1
    63    31    61    1
    64    31    62    1
    65    32    63    1
    66    32    64    1
    67    32    65    1
