REMARK  8 active torsions:
REMARK  status: ('A' for Active; 'I' for Inactive)
REMARK    1  A    between atoms: C7_7  and  N1_8 
REMARK    2  A    between atoms: C9_12  and  S1_13 
REMARK    3  A    between atoms: S1_13  and  C10_14 
REMARK    4  A    between atoms: C10_14  and  C11_15 
REMARK       I    between atoms: C11_15  and  N4_17 
REMARK    5  A    between atoms: C12_18  and  N4_17 
REMARK    6  A    between atoms: C12_18  and  C13_19 
REMARK    7  A    between atoms: C12_18  and  C22_29 
REMARK    8  A    between atoms: C13_19  and  C14_20 
ROOT
ATOM      1  C11 NON d   1      12.235  -2.618  -1.427  0.00  0.00     0.207 C 
ATOM      2  O1  NON d   1      11.904  -2.197  -2.541  0.00  0.00    -0.279 OA
ATOM      3  N4  NON d   1      13.364  -3.380  -1.308  0.00  0.00    -0.247 NA
ATOM      4  H16 NON d   1      13.999  -3.060  -2.042  0.00  0.00     0.131 HD
ENDROOT
BRANCH   1   5
ATOM      5  C10 NON d   1      11.373  -2.418  -0.207  0.00  0.00     0.173 C 
BRANCH   5   6
ATOM      6  S1  NON d   1      11.065  -0.654   0.094  0.00  0.00    -0.118 SA
BRANCH   6   7
ATOM      7  C9  NON d   1       9.943  -0.752   1.548  0.00  0.00     0.237 C 
ATOM      8  N3  NON d   1       9.073   0.455   1.424  0.00  0.00    -0.228 NA
ATOM      9  N2  NON d   1       9.657   1.461   2.390  0.00  0.00    -0.241 NA
ATOM     10  H12 NON d   1       9.248   0.777   0.467  0.00  0.00     0.143 HD
ATOM     11  C8  NON d   1      10.724   0.704   3.096  0.00  0.00     0.231 C 
ATOM     12  H11 NON d   1       8.946   1.684   3.088  0.00  0.00     0.142 HD
ATOM     13  N1  NON d   1      10.655  -0.715   2.824  0.00  0.00    -0.340 N 
BRANCH  13  14
ATOM     14  C7  NON d   1      11.469  -1.717   3.304  0.00  0.00     0.039 C 
ATOM     15  C5  NON d   1      12.596  -1.543   4.138  0.00  0.00    -0.035 C 
ATOM     16  C4  NON d   1      13.474  -2.628   4.374  0.00  0.00     0.009 C 
ATOM     17  C6  NON d   1      12.991  -0.248   4.795  0.00  0.00     0.050 C 
ATOM     18  C3  NON d   1      13.230  -3.898   3.865  0.00  0.00     0.007 C 
ATOM     19  C2  NON d   1      12.061  -4.130   3.162  0.00  0.00    -0.060 C 
ATOM     20  C1  NON d   1      11.762  -5.476   2.574  0.00  0.00     0.048 C 
ATOM     21  C23 NON d   1      11.181  -3.056   2.946  0.00  0.00     0.036 C 
ENDBRANCH  13  14
ENDBRANCH   6   7
ENDBRANCH   5   6
ENDBRANCH   1   5
BRANCH   3  22
ATOM     22  C12 NON d   1      14.242  -3.692   0.000  0.00  0.00     0.168 C 
BRANCH  22  23
ATOM     23  C13 NON d   1      15.580  -4.517  -0.465  0.00  0.00     0.071 C 
BRANCH  23  24
ATOM     24  C14 NON d   1      15.354  -5.674  -1.458  0.00  0.00    -0.028 A 
ATOM     25  C15 NON d   1      14.721  -5.608  -2.687  0.00  0.00     0.096 A 
ATOM     26  N5  NON d   1      14.725  -6.841  -3.268  0.00  0.00    -0.365 N 
ATOM     27  C16 NON d   1      15.428  -7.726  -2.492  0.00  0.00     0.042 A 
ATOM     28  H21 NON d   1      14.314  -7.059  -4.164  0.00  0.00     0.165 HD
ATOM     29  C17 NON d   1      15.735  -9.070  -2.734  0.00  0.00     0.030 A 
ATOM     30  C21 NON d   1      15.840  -7.029  -1.351  0.00  0.00    -0.002 A 
ATOM     31  C18 NON d   1      16.513  -9.732  -1.784  0.00  0.00     0.002 A 
ATOM     32  C19 NON d   1      16.951  -9.072  -0.639  0.00  0.00     0.001 A 
ATOM     33  C20 NON d   1      16.618  -7.731  -0.405  0.00  0.00     0.014 A 
ENDBRANCH  23  24
ENDBRANCH  22  23
BRANCH  22  34
ATOM     34  C22 NON d   1      15.012  -2.359   0.000  0.00  0.00     0.192 C 
ATOM     35  O2  NON d   1      15.325  -1.961   1.162  0.00  0.00    -0.647 OA
ATOM     36  O3  NON d   1      15.277  -1.815  -1.115  0.00  0.00    -0.647 OA
ENDBRANCH  22  34
ENDBRANCH   3  22
TORSDOF 8
