@<TRIPOS>MOLECULE
*****
 29 31 0 0 0
SMALL
USER_CHARGES

@<TRIPOS>ATOM
      1 N1         -1.3791   -2.2201    0.5560 N.pl3   1  NONAME1    -0.3575
      2 C1         -1.1881   -0.8865    0.1468 C.ar    1  NONAME1     0.0341
      3 C2         -2.3172   -0.0455    0.2372 C.ar    1  NONAME1    -0.0390
      4 C3         -2.2332    1.3291    0.0174 C.ar    1  NONAME1    -0.0416
      5 C4         -1.0004    1.8971   -0.2565 C.ar    1  NONAME1     0.0417
      6 Cl1        -0.8754    3.5953   -0.5004 Cl      1  NONAME1    -0.0835
      7 C5          0.1395    1.1001   -0.3101 C.ar    1  NONAME1    -0.0323
      8 C6          0.0725   -0.2968   -0.0971 C.ar    1  NONAME1     0.0277
      9 C7          1.4040   -1.0050   -0.1162 C.ar    1  NONAME1     0.1376
     10 N2          2.4768   -0.2893    0.1077 N.ar    1  NONAME1    -0.2397
     11 C8          3.7380   -0.9020    0.1039 C.ar    1  NONAME1     0.0880
     12 C9          4.8737   -0.1056    0.2583 C.ar    1  NONAME1    -0.0343
     13 C10         6.1473   -0.6797    0.2679 C.ar    1  NONAME1    -0.0596
     14 C11         6.2917   -2.0612    0.1355 C.ar    1  NONAME1    -0.0597
     15 C12         5.1646   -2.8685   -0.0227 C.ar    1  NONAME1    -0.0362
     16 C13         3.8991   -2.2827   -0.0495 C.ar    1  NONAME1     0.0676
     17 N3          2.7694   -3.0668   -0.2783 N.ar    1  NONAME1    -0.3191
     18 C14         1.5222   -2.5103   -0.4305 C.ar    1  NONAME1     0.2753
     19 O1          0.5777   -3.1812   -0.8228 O.2     1  NONAME1    -0.2656
     20 H1         -2.3323   -2.5488    0.4291 H       1  NONAME1     0.1423
     21 H2         -0.7459   -2.8721    0.0805 H       1  NONAME1     0.1423
     22 H3         -3.2879   -0.4673    0.4911 H       1  NONAME1     0.0637
     23 H4         -3.1260    1.9443    0.0841 H       1  NONAME1     0.0633
     24 H5          1.0980    1.5797   -0.5016 H       1  NONAME1     0.0639
     25 H6          4.7621    0.9706    0.3658 H       1  NONAME1     0.0639
     26 H7          7.0242   -0.0469    0.3797 H       1  NONAME1     0.0618
     27 H8          7.2838   -2.5062    0.1473 H       1  NONAME1     0.0618
     28 H9          5.2878   -3.9414   -0.1362 H       1  NONAME1     0.0639
     29 H10         2.8567   -4.0550   -0.4658 H       1  NONAME1     0.1690
@<TRIPOS>BOND
     1     1     2    1
     2     2     3   ar
     3     3     4   ar
     4     4     5   ar
     5     5     6    1
     6     5     7   ar
     7     7     8   ar
     8     2     8   ar
     9     8     9    1
    10     9    10   ar
    11    10    11   ar
    12    11    12   ar
    13    12    13   ar
    14    13    14   ar
    15    14    15   ar
    16    15    16   ar
    17    11    16   ar
    18    16    17   ar
    19    17    18   ar
    20     9    18   ar
    21    18    19    2
    22     1    20    1
    23     1    21    1
    24     3    22    1
    25     4    23    1
    26     7    24    1
    27    12    25    1
    28    13    26    1
    29    14    27    1
    30    15    28    1
    31    17    29    1
