@<TRIPOS>MOLECULE
*****
 43 45 0 0 0
SMALL
USER_CHARGES

@<TRIPOS>ATOM
      1 C1        -13.3368    6.1600    0.0000 C.3     1  NONAME1    -0.0397
      2 C2        -12.0031    6.9300    0.0000 C.ar    1  NONAME1    -0.0497
      3 C3        -11.9347    8.3234    0.0312 C.ar    1  NONAME1    -0.0588
      4 C4        -10.6915    8.9662    0.0472 C.ar    1  NONAME1    -0.0608
      5 C5         -9.4954    8.2324    0.0474 C.ar    1  NONAME1    -0.0496
      6 C6         -9.5281    6.8351    0.0418 C.ar    1  NONAME1     0.0373
      7 C7         -8.3046    5.9493    0.0467 C.2     1  NONAME1     0.2483
      8 O1         -8.4996    4.7367    0.0642 O.2     1  NONAME1    -0.2699
      9 N1         -7.0518    6.5555    0.0284 N.am    1  NONAME1    -0.2815
     10 C8         -5.7862    5.9037    0.0189 C.ar    1  NONAME1     0.0337
     11 C9         -4.6294    6.7009    0.0096 C.ar    1  NONAME1    -0.0398
     12 C10        -3.3393    6.1270    0.0018 C.ar    1  NONAME1    -0.0478
     13 C11        -3.1825    4.7381    0.0011 C.ar    1  NONAME1     0.0383
     14 C12        -1.8588    4.0237   -0.0073 C.2     1  NONAME1     0.2616
     15 O2         -1.8726    2.7927   -0.0170 O.2     1  NONAME1    -0.2686
     16 N2         -0.7107    4.7944   -0.0029 N.am    1  NONAME1    -0.2087
     17 N3          0.5993    4.1389   -0.0066 N.am    1  NONAME1    -0.1043
     18 C13         1.6267    5.0024    0.0009 C.2     1  NONAME1     0.3166
     19 O3          1.5371    6.2332    0.0075 O.2     1  NONAME1    -0.2634
     20 C14         2.9191    4.3200    0.0003 C.ar    1  NONAME1     0.1923
     21 C15         4.2013    4.8490    0.0012 C.ar    1  NONAME1    -0.0112
     22 C16         5.1084    3.7615    0.0006 C.ar    1  NONAME1    -0.0231
     23 C17         4.3345    2.6272   -0.0004 C.ar    1  NONAME1     0.0928
     24 O4          3.0168    2.9475   -0.0007 O.2     1  NONAME1    -0.4582
     25 C18        -4.3412    3.9478    0.0078 C.ar    1  NONAME1    -0.0478
     26 C19        -5.6226    4.5202    0.0167 C.ar    1  NONAME1    -0.0398
     27 C20       -10.7919    6.2032    0.0294 C.ar    1  NONAME1    -0.0467
     28 H1        -13.9041    6.9406   -0.5491 H       1  NONAME1     0.0278
     29 H2        -14.6705    5.3900    0.0000 H       1  NONAME1     0.0278
     30 H3        -13.0216    5.4203   -0.7667 H       1  NONAME1     0.0278
     31 H4        -12.8428    8.9219    0.0374 H       1  NONAME1     0.0620
     32 H5        -10.6548   10.0539    0.0602 H       1  NONAME1     0.0618
     33 H6         -8.5669    8.7903    0.0579 H       1  NONAME1     0.0625
     34 H7         -7.0030    7.5611    0.0162 H       1  NONAME1     0.1551
     35 H8         -4.7006    7.7850    0.0103 H       1  NONAME1     0.0636
     36 H9         -2.4741    6.7809   -0.0041 H       1  NONAME1     0.0626
     37 H10        -0.6593    5.8056    0.0074 H       1  NONAME1     0.1751
     38 H11         4.4263    5.9054    0.0020 H       1  NONAME1     0.0657
     39 H12         6.1873    3.7994    0.0010 H       1  NONAME1     0.0649
     40 H13         4.5504    1.5688   -0.0009 H       1  NONAME1     0.1029
     41 H14        -4.2512    2.8630    0.0062 H       1  NONAME1     0.0626
     42 H15        -6.4653    3.8381    0.0209 H       1  NONAME1     0.0636
     43 H16       -10.8373    5.1131    0.0332 H       1  NONAME1     0.0628
@<TRIPOS>BOND
     1     1     2    1
     2     2     3   ar
     3     3     4   ar
     4     4     5   ar
     5     5     6   ar
     6     6     7    1
     7     7     8    2
     8     7     9   am
     9     9    10    1
    10    10    11   ar
    11    11    12   ar
    12    12    13   ar
    13    13    14    1
    14    14    15    2
    15    14    16   am
    16    16    17    1
    17    17    18   am
    18    18    19    2
    19    18    20    1
    20    20    21   ar
    21    21    22   ar
    22    22    23   ar
    23    23    24   ar
    24    20    24   ar
    25    13    25   ar
    26    25    26   ar
    27    10    26   ar
    28     6    27   ar
    29     2    27   ar
    30     1    28    1
    31     1    29    1
    32     1    30    1
    33     3    31    1
    34     4    32    1
    35     5    33    1
    36     9    34    1
    37    11    35    1
    38    12    36    1
    39    16    37    1
    40    21    38    1
    41    22    39    1
    42    23    40    1
    43    25    41    1
    44    26    42    1
    45    27    43    1
