@<TRIPOS>MOLECULE
*****
 48 51 0 0 0
SMALL
USER_CHARGES

@<TRIPOS>ATOM
      1 C1         -0.9167    3.3808    0.0325 C.3     1  NONAME1    -0.0397
      2 C2          0.2731    2.4668    0.0242 C.ar    1  NONAME1    -0.0487
      3 C3          1.5691    2.9864    0.0815 C.ar    1  NONAME1    -0.0587
      4 C4          2.6643    2.1252    0.1207 C.ar    1  NONAME1    -0.0598
      5 C5          2.4723    0.7387    0.1115 C.ar    1  NONAME1    -0.0405
      6 C6          1.1832    0.1966    0.0514 C.ar    1  NONAME1     0.0337
      7 N1          1.0590   -1.2172    0.0505 N.am    1  NONAME1    -0.2848
      8 C7         -0.1000   -1.9404   -0.2065 C.2     1  NONAME1     0.2275
      9 O1         -1.1596   -1.4496   -0.5909 O.2     1  NONAME1    -0.2746
     10 C8          0.0660   -3.4556   -0.0247 C.3     1  NONAME1     0.0780
     11 S1         -1.5302   -4.1827    0.4702 S.3     1  NONAME1    -0.0752
     12 C9         -1.2972   -5.8710    0.1990 C.ar    1  NONAME1     0.2091
     13 N2         -0.1684   -6.5368    0.1330 N.ar    1  NONAME1    -0.1205
     14 N3         -0.4889   -7.8809    0.0064 N.ar    1  NONAME1    -0.1251
     15 C10        -1.8056   -7.9965   -0.0111 C.ar    1  NONAME1     0.1994
     16 C11        -2.5268   -9.2275   -0.0747 C.ar    1  NONAME1     0.1048
     17 C12        -2.0968  -10.5345   -0.0158 C.ar    1  NONAME1    -0.0055
     18 C13        -3.2687  -11.3449   -0.0869 C.ar    1  NONAME1     0.0932
     19 C14        -3.3714  -12.8123   -0.0512 C.ar    1  NONAME1     0.0022
     20 C15        -2.2232  -13.6195   -0.0307 C.ar    1  NONAME1    -0.0511
     21 C16        -2.3277  -15.0154   -0.0039 C.ar    1  NONAME1    -0.0428
     22 C17        -3.5819  -15.6186    0.0035 C.ar    1  NONAME1     0.0410
     23 Cl1        -3.7068  -17.3337    0.0305 Cl      1  NONAME1    -0.0835
     24 C18        -4.7347  -14.8381   -0.0127 C.ar    1  NONAME1    -0.0428
     25 C19        -4.6268  -13.4429   -0.0395 C.ar    1  NONAME1    -0.0511
     26 N4         -4.3599  -10.5662   -0.1937 N.ar    1  NONAME1    -0.1732
     27 N5         -3.8843   -9.3117   -0.2006 N.ar    1  NONAME1    -0.2733
     28 N6         -2.3578   -6.7375    0.0820 N.ar    1  NONAME1    -0.2225
     29 N7         -3.7749   -6.4131    0.0931 N.pl3   1  NONAME1    -0.2945
     30 C20         0.0928    1.0719    0.0215 C.ar    1  NONAME1    -0.0376
     31 H1         -0.6824    4.3362   -0.4488 H       1  NONAME1     0.0278
     32 H2         -1.2336    3.5725    1.0624 H       1  NONAME1     0.0278
     33 H3         -1.7535    2.9378   -0.5179 H       1  NONAME1     0.0278
     34 H4          1.7304    4.0623    0.0971 H       1  NONAME1     0.0620
     35 H5          3.6699    2.5361    0.1590 H       1  NONAME1     0.0618
     36 H6          3.3495    0.0981    0.1398 H       1  NONAME1     0.0636
     37 H7          1.9211   -1.7354    0.1709 H       1  NONAME1     0.1548
     38 H8          0.8103   -3.6667    0.7496 H       1  NONAME1     0.0475
     39 H9          0.4059   -3.8724   -0.9779 H       1  NONAME1     0.0475
     40 H10        -1.0694  -10.8545    0.0844 H       1  NONAME1     0.0662
     41 H11        -1.2291  -13.1815   -0.0395 H       1  NONAME1     0.0625
     42 H12        -1.4251  -15.6217    0.0084 H       1  NONAME1     0.0632
     43 H13        -5.7163  -15.3034   -0.0066 H       1  NONAME1     0.0632
     44 H14        -5.5383  -12.8463   -0.0533 H       1  NONAME1     0.0625
     45 H15        -4.5420   -8.5409   -0.2814 H       1  NONAME1     0.1890
     46 H16        -3.9130   -5.5254   -0.3992 H       1  NONAME1     0.1627
     47 H17        -4.0637   -6.2046    1.0512 H       1  NONAME1     0.1627
     48 H18        -0.9261    0.6972    0.0130 H       1  NONAME1     0.0639
@<TRIPOS>BOND
     1     1     2    1
     2     2     3   ar
     3     3     4   ar
     4     4     5   ar
     5     5     6   ar
     6     6     7    1
     7     7     8   am
     8     8     9    2
     9     8    10    1
    10    10    11    1
    11    11    12    1
    12    12    13   ar
    13    13    14   ar
    14    14    15   ar
    15    15    16    1
    16    16    17   ar
    17    17    18   ar
    18    18    19    1
    19    19    20   ar
    20    20    21   ar
    21    21    22   ar
    22    22    23    1
    23    22    24   ar
    24    24    25   ar
    25    19    25   ar
    26    18    26   ar
    27    26    27   ar
    28    16    27   ar
    29    15    28   ar
    30    12    28   ar
    31    28    29    1
    32     6    30   ar
    33     2    30   ar
    34     1    31    1
    35     1    32    1
    36     1    33    1
    37     3    34    1
    38     4    35    1
    39     5    36    1
    40     7    37    1
    41    10    38    1
    42    10    39    1
    43    17    40    1
    44    20    41    1
    45    21    42    1
    46    24    43    1
    47    25    44    1
    48    27    45    1
    49    29    46    1
    50    29    47    1
    51    30    48    1
