@<TRIPOS>MOLECULE
*****
 45 47 0 0 0
SMALL
USER_CHARGES

@<TRIPOS>ATOM
      1 C1         -6.6684    2.3100    0.0000 C.3     1  NONAME1     0.0804
      2 O1         -5.3347    1.5400    0.0000 O.3     1  NONAME1    -0.4796
      3 C2         -5.4604    0.1769    0.1277 C.ar    1  NONAME1     0.2145
      4 C3         -4.2967   -0.5058    0.4634 C.ar    1  NONAME1     0.0017
      5 C4         -4.3190   -1.9009    0.5409 C.ar    1  NONAME1    -0.0340
      6 C5         -5.4867   -2.5873    0.2211 C.ar    1  NONAME1     0.0522
      7 N1         -5.4718   -4.0091    0.2681 N.am    1  NONAME1    -0.2802
      8 C6         -6.4248   -4.8184   -0.3237 C.2     1  NONAME1     0.2501
      9 O2         -7.3234   -4.4070   -1.0549 O.2     1  NONAME1    -0.2698
     10 C7         -6.3685   -6.2863   -0.0696 C.ar    1  NONAME1     0.0584
     11 C8         -7.6378   -6.8670    0.1259 C.ar    1  NONAME1    -0.0478
     12 C9         -7.7817   -8.2301    0.3396 C.ar    1  NONAME1    -0.0607
     13 C10        -6.6583   -9.0405    0.2998 C.ar    1  NONAME1    -0.0570
     14 C11        -5.3764   -8.5011    0.0716 C.ar    1  NONAME1    -0.0285
     15 C12        -4.2808   -9.5193   -0.1431 C.3     1  NONAME1    -0.0379
     16 C13        -5.2064   -7.0928   -0.0340 C.ar    1  NONAME1     0.0488
     17 N2         -3.9163   -6.5085   -0.1869 N.am    1  NONAME1    -0.2806
     18 C14        -2.7965   -6.9384    0.5088 C.2     1  NONAME1     0.2484
     19 O3         -2.7941   -7.7320    1.4439 O.2     1  NONAME1    -0.2699
     20 C15        -1.4867   -6.3751    0.1058 C.ar    1  NONAME1     0.0399
     21 C16        -1.3142   -5.0227   -0.1677 C.ar    1  NONAME1    -0.0315
     22 C17        -0.0325   -4.5894   -0.4610 C.ar    1  NONAME1     0.0283
     23 N3          1.0465   -5.4011   -0.5093 N.ar    1  NONAME1    -0.2632
     24 C18         0.8486   -6.7076   -0.2354 C.ar    1  NONAME1     0.0283
     25 C19        -0.3868   -7.2378    0.0813 C.ar    1  NONAME1    -0.0315
     26 C20        -6.6000   -1.8015   -0.1128 C.ar    1  NONAME1     0.0526
     27 N4         -6.6210   -0.4342   -0.1524 N.ar    1  NONAME1    -0.2195
     28 H1         -6.1932    3.2563    0.3130 H       1  NONAME1     0.0660
     29 H2         -8.0021    3.0800    0.0000 H       1  NONAME1     0.0660
     30 H3         -6.7451    2.3167   -1.1032 H       1  NONAME1     0.0660
     31 H4         -3.3817    0.0460    0.6518 H       1  NONAME1     0.0671
     32 H5         -3.4077   -2.4236    0.8089 H       1  NONAME1     0.0638
     33 H6         -4.7306   -4.4549    0.7940 H       1  NONAME1     0.1552
     34 H7         -8.5320   -6.2447    0.1112 H       1  NONAME1     0.0626
     35 H8         -8.7664   -8.6629    0.4957 H       1  NONAME1     0.0618
     36 H9         -6.7850  -10.1169    0.4113 H       1  NONAME1     0.0621
     37 H10        -4.6747  -10.3896   -0.6831 H       1  NONAME1     0.0278
     38 H11        -3.8828   -9.8715    0.8125 H       1  NONAME1     0.0278
     39 H12        -3.4741   -9.1321   -0.7719 H       1  NONAME1     0.0278
     40 H13        -3.8498   -5.6873   -0.7759 H       1  NONAME1     0.1552
     41 H14        -2.1253   -4.3112   -0.1183 H       1  NONAME1     0.0640
     42 H15         0.1745   -3.5412   -0.6598 H       1  NONAME1     0.0830
     43 H16         1.7378   -7.3318   -0.2709 H       1  NONAME1     0.0830
     44 H17        -0.4893   -8.2939    0.3127 H       1  NONAME1     0.0640
     45 H18        -7.5650   -2.2457   -0.3391 H       1  NONAME1     0.0850
@<TRIPOS>BOND
     1     1     2    1
     2     2     3    1
     3     3     4   ar
     4     4     5   ar
     5     5     6   ar
     6     6     7    1
     7     7     8   am
     8     8     9    2
     9     8    10    1
    10    10    11   ar
    11    11    12   ar
    12    12    13   ar
    13    13    14   ar
    14    14    15    1
    15    14    16   ar
    16    10    16   ar
    17    16    17    1
    18    17    18   am
    19    18    19    2
    20    18    20    1
    21    20    21   ar
    22    21    22   ar
    23    22    23   ar
    24    23    24   ar
    25    24    25   ar
    26    20    25   ar
    27     6    26   ar
    28    26    27   ar
    29     3    27   ar
    30     1    28    1
    31     1    29    1
    32     1    30    1
    33     4    31    1
    34     5    32    1
    35     7    33    1
    36    11    34    1
    37    12    35    1
    38    13    36    1
    39    15    37    1
    40    15    38    1
    41    15    39    1
    42    17    40    1
    43    21    41    1
    44    22    42    1
    45    24    43    1
    46    25    44    1
    47    26    45    1
