REMARK  8 active torsions:
REMARK  status: ('A' for Active; 'I' for Inactive)
REMARK    1  A    between atoms: C2_2  and  S1_3 
REMARK    2  A    between atoms: C2_2  and  C14_17 
REMARK    3  A    between atoms: S1_3  and  C3_4 
REMARK    4  A    between atoms: C3_4  and  C4_5 
REMARK       I    between atoms: C4_5  and  N1_7 
REMARK    5  A    between atoms: N1_7  and  C5_8 
REMARK    6  A    between atoms: C5_8  and  C6_9 
REMARK    7  A    between atoms: C6_9  and  C7_10 
REMARK    8  A    between atoms: C7_10  and  C8_11 
ROOT
ATOM      1  C3  NON d   1       7.007  -5.185   0.460  0.00  0.00     0.177 C 
ENDROOT
BRANCH   1   2
ATOM      2  S1  NON d   1       5.777  -5.022  -0.878  0.00  0.00    -0.148 SA
BRANCH   2   3
ATOM      3  C2  NON d   1       4.162  -4.541   0.018  0.00  0.00     0.113 C 
ATOM      4  C1  NON d   1       3.830  -5.479   1.194  0.00  0.00     0.029 C 
BRANCH   3   5
ATOM      5  C14 NON d   1       3.111  -4.372  -1.040  0.00  0.00     0.118 A 
ATOM      6  N2  NON d   1       1.951  -5.102  -1.145  0.00  0.00    -0.342 N 
ATOM      7  C15 NON d   1       1.287  -4.698  -2.280  0.00  0.00     0.062 A 
ATOM      8  H19 NON d   1       1.649  -5.832  -0.518  0.00  0.00     0.167 HD
ATOM      9  C16 NON d   1       0.094  -5.106  -2.881  0.00  0.00     0.032 A 
ATOM     10  C20 NON d   1       2.095  -3.702  -2.815  0.00  0.00     0.085 A 
ATOM     11  C17 NON d   1      -0.253  -4.476  -4.087  0.00  0.00     0.002 A 
ATOM     12  C18 NON d   1       0.556  -3.488  -4.653  0.00  0.00     0.002 A 
ATOM     13  C19 NON d   1       1.737  -3.085  -4.020  0.00  0.00     0.034 A 
ATOM     14  N3  NON d   1       3.183  -3.486  -2.019  0.00  0.00    -0.232 NA
ENDBRANCH   3   5
ENDBRANCH   2   3
ENDBRANCH   1   2
BRANCH   1  15
ATOM     15  C4  NON d   1       8.130  -4.155   0.369  0.00  0.00     0.226 C 
ATOM     16  O1  NON d   1       7.947  -2.961   0.591  0.00  0.00    -0.273 OA
ATOM     17  N1  NON d   1       9.392  -4.690   0.125  0.00  0.00    -0.360 N 
ATOM     18  H7  NON d   1       9.428  -5.557  -0.396  0.00  0.00     0.162 HD
BRANCH  17  19
ATOM     19  C5  NON d   1      10.556  -3.820   0.076  0.00  0.00     0.123 C 
BRANCH  19  20
ATOM     20  C6  NON d   1      11.888  -4.565  -0.070  0.00  0.00     0.024 C 
BRANCH  20  21
ATOM     21  C7  NON d   1      12.280  -5.370   1.178  0.00  0.00     0.040 C 
BRANCH  21  22
ATOM     22  C8  NON d   1      13.608  -6.106   1.133  0.00  0.00    -0.058 A 
ATOM     23  C9  NON d   1      13.910  -6.994   2.182  0.00  0.00     0.007 A 
ATOM     24  C10 NON d   1      15.120  -7.688   2.219  0.00  0.00     0.001 A 
ATOM     25  C11 NON d   1      16.060  -7.504   1.210  0.00  0.00     0.000 A 
ATOM     26  C12 NON d   1      15.786  -6.621   0.169  0.00  0.00     0.001 A 
ATOM     27  C13 NON d   1      14.570  -5.927   0.129  0.00  0.00     0.007 A 
ENDBRANCH  21  22
ENDBRANCH  20  21
ENDBRANCH  19  20
ENDBRANCH  17  19
ENDBRANCH   1  15
TORSDOF 8
