@<TRIPOS>MOLECULE
*****
 49 51 0 0 0
SMALL
USER_CHARGES

@<TRIPOS>ATOM
      1 C1        -12.2023   11.2050    0.0000 C.3     1  NONAME1    -0.0495
      2 C2        -10.8686   10.4350    0.0000 C.3     1  NONAME1     0.0091
      3 N1         -9.6503   11.2349   -0.0156 N.am    1  NONAME1    -0.3116
      4 C3         -8.4117   10.5909   -0.0930 C.2     1  NONAME1     0.2441
      5 O1         -8.3211    9.3710   -0.2021 O.2     1  NONAME1    -0.2702
      6 C4         -7.1498   11.4081   -0.0329 C.ar    1  NONAME1     0.0385
      7 C5         -7.1684   12.7988   -0.0511 C.ar    1  NONAME1    -0.0493
      8 C6         -5.9689   13.5087    0.0222 C.ar    1  NONAME1    -0.0564
      9 C7         -4.7185   12.8585    0.0962 C.ar    1  NONAME1    -0.0292
     10 C8         -3.5284   13.7583    0.3059 C.3     1  NONAME1    -0.0380
     11 C9         -4.6687   11.4514    0.0146 C.ar    1  NONAME1     0.0373
     12 N2         -3.4670   10.6730   -0.0080 N.am    1  NONAME1    -0.2813
     13 C10        -2.2592   11.0639   -0.5728 C.2     1  NONAME1     0.2483
     14 O2         -2.0906   12.0472   -1.2886 O.2     1  NONAME1    -0.2699
     15 C11        -1.0476   10.2322   -0.2998 C.ar    1  NONAME1     0.0370
     16 C12         0.1345   10.9267   -0.0196 C.ar    1  NONAME1    -0.0493
     17 C13         1.3404   10.2444    0.1660 C.ar    1  NONAME1    -0.0562
     18 C14         1.4207    8.8431    0.0546 C.ar    1  NONAME1    -0.0277
     19 C15         2.8031    8.2537    0.2823 C.3     1  NONAME1     0.0492
     20 N3          3.0476    6.8283    0.0833 N.ar    1  NONAME1    -0.3325
     21 C16         4.2024    6.3204   -0.4683 C.ar    1  NONAME1     0.0244
     22 C17         4.1540    4.9665   -0.2358 C.ar    1  NONAME1     0.0454
     23 N4          3.0187    4.6389    0.4550 N.ar    1  NONAME1    -0.2441
     24 C18         2.3997    5.7792    0.6716 C.ar    1  NONAME1     0.0962
     25 C19         0.2344    8.1540   -0.2443 C.ar    1  NONAME1    -0.0562
     26 C20        -0.9951    8.8394   -0.4070 C.ar    1  NONAME1    -0.0493
     27 C21        -5.8948   10.7462    0.0050 C.ar    1  NONAME1    -0.0281
     28 H1        -12.0496   11.6709   -0.9954 H       1  NONAME1     0.0245
     29 H2        -13.5360   11.9750    0.0000 H       1  NONAME1     0.0245
     30 H3        -12.8361   10.3017   -0.1138 H       1  NONAME1     0.0245
     31 H4        -10.8189    9.8249    0.9100 H       1  NONAME1     0.0459
     32 H5        -10.8210    9.7583   -0.8629 H       1  NONAME1     0.0459
     33 H6         -9.7079   12.1983    0.2771 H       1  NONAME1     0.1490
     34 H7         -8.0893   13.3654   -0.1221 H       1  NONAME1     0.0625
     35 H8         -6.0099   14.5974    0.0386 H       1  NONAME1     0.0621
     36 H9         -2.7389   13.2632    0.8780 H       1  NONAME1     0.0278
     37 H10        -3.1439   14.1220   -0.6512 H       1  NONAME1     0.0278
     38 H11        -3.8122   14.6353    0.9002 H       1  NONAME1     0.0278
     39 H12        -3.5565    9.7008    0.2564 H       1  NONAME1     0.1551
     40 H13         0.1254   12.0144    0.0389 H       1  NONAME1     0.0625
     41 H14         2.2350   10.8295    0.3807 H       1  NONAME1     0.0621
     42 H15         3.5000    8.7719   -0.3912 H       1  NONAME1     0.0541
     43 H16         3.1151    8.4608    1.3139 H       1  NONAME1     0.0541
     44 H17         4.9562    6.9438   -0.9295 H       1  NONAME1     0.0825
     45 H18         4.8897    4.2171   -0.5009 H       1  NONAME1     0.0845
     46 H19         1.4957    5.8927    1.2532 H       1  NONAME1     0.1029
     47 H20         0.2316    7.0747   -0.3821 H       1  NONAME1     0.0621
     48 H21        -1.8824    8.2706   -0.6691 H       1  NONAME1     0.0625
     49 H22        -5.8880    9.6581   -0.0186 H       1  NONAME1     0.0644
@<TRIPOS>BOND
     1     1     2    1
     2     2     3    1
     3     3     4   am
     4     4     5    2
     5     4     6    1
     6     6     7   ar
     7     7     8   ar
     8     8     9   ar
     9     9    10    1
    10     9    11   ar
    11    11    12    1
    12    12    13   am
    13    13    14    2
    14    13    15    1
    15    15    16   ar
    16    16    17   ar
    17    17    18   ar
    18    18    19    1
    19    19    20    1
    20    20    21   ar
    21    21    22   ar
    22    22    23   ar
    23    23    24   ar
    24    20    24   ar
    25    18    25   ar
    26    25    26   ar
    27    15    26   ar
    28    11    27   ar
    29     6    27   ar
    30     1    28    1
    31     1    29    1
    32     1    30    1
    33     2    31    1
    34     2    32    1
    35     3    33    1
    36     7    34    1
    37     8    35    1
    38    10    36    1
    39    10    37    1
    40    10    38    1
    41    12    39    1
    42    16    40    1
    43    17    41    1
    44    19    42    1
    45    19    43    1
    46    21    44    1
    47    22    45    1
    48    24    46    1
    49    25    47    1
    50    26    48    1
    51    27    49    1
