REMARK  12 active torsions:
REMARK  status: ('A' for Active; 'I' for Inactive)
REMARK    1  A    between atoms: O1_2  and  C2_3 
REMARK    2  A    between atoms: C5_6  and  N1_7 
REMARK       I    between atoms: N1_7  and  C6_8 
REMARK    3  A    between atoms: C6_8  and  C7_10 
REMARK    4  A    between atoms: C7_10  and  S1_11 
REMARK    5  A    between atoms: S1_11  and  C8_12 
REMARK    6  A    between atoms: C10_15  and  C11_16 
REMARK    7  A    between atoms: C11_16  and  O3_17 
REMARK    8  A    between atoms: N3_18  and  C12_19 
REMARK    9  A    between atoms: C12_19  and  C13_20 
REMARK       I    between atoms: C13_20  and  N4_22 
REMARK   10  A    between atoms: N4_22  and  C14_23 
REMARK   11  A    between atoms: C14_23  and  C15_24 
REMARK   12  A    between atoms: C22_32  and  O5_33 
ROOT
ATOM      1  C8  NON d   1      -1.127  -5.379   0.263  0.00  0.00     0.169 A 
ATOM      2  N2  NON d   1      -2.139  -4.557   0.176  0.00  0.00    -0.235 NA
ATOM      3  C9  NON d   1      -1.580  -3.324   0.018  0.00  0.00     0.147 A 
ATOM      4  C10 NON d   1      -0.195  -3.383  -0.003  0.00  0.00     0.055 A 
ATOM      5  N3  NON d   1       0.100  -4.726   0.181  0.00  0.00    -0.318 N 
ENDROOT
BRANCH   1   6
ATOM      6  S1  NON d   1      -1.283  -7.097   0.447  0.00  0.00    -0.083 SA
BRANCH   6   7
ATOM      7  C7  NON d   1      -3.033  -7.385   0.007  0.00  0.00     0.185 C 
BRANCH   7   8
ATOM      8  C6  NON d   1      -3.234  -8.871  -0.304  0.00  0.00     0.231 C 
ATOM      9  N1  NON d   1      -4.467  -9.381   0.098  0.00  0.00    -0.326 N 
ATOM     10  H6  NON d   1      -5.194  -8.709   0.321  0.00  0.00     0.169 HD
ATOM     11  O2  NON d   1      -2.384  -9.524  -0.908  0.00  0.00    -0.272 OA
BRANCH   9  12
ATOM     12  C5  NON d   1      -4.843 -10.747   0.086  0.00  0.00     0.037 A 
ATOM     13  C4  NON d   1      -6.200 -11.066   0.217  0.00  0.00     0.032 A 
ATOM     14  C3  NON d   1      -6.621 -12.404   0.234  0.00  0.00     0.042 A 
ATOM     15  C2  NON d   1      -5.687 -13.438   0.152  0.00  0.00     0.101 A 
ATOM     16  C22 NON d   1      -4.335 -13.131  -0.012  0.00  0.00     0.103 A 
ATOM     17  C21 NON d   1      -3.918 -11.792  -0.017  0.00  0.00     0.069 A 
BRANCH  15  18
ATOM     18  O1  NON d   1      -6.175 -14.715   0.195  0.00  0.00    -0.353 OA
ATOM     19  C1  NON d   1      -5.753 -15.398   1.378  0.00  0.00     0.210 C 
ENDBRANCH  15  18
BRANCH  16  20
ATOM     20  O5  NON d   1      -3.342 -14.071  -0.117  0.00  0.00    -0.353 OA
ATOM     21  C23 NON d   1      -3.510 -14.914  -1.256  0.00  0.00     0.210 C 
ENDBRANCH  16  20
ENDBRANCH   9  12
ENDBRANCH   7   8
ENDBRANCH   6   7
ENDBRANCH   1   6
BRANCH   5  22
ATOM     22  C12 NON d   1       1.382  -5.451   0.156  0.00  0.00     0.234 C 
BRANCH  22  23
ATOM     23  C13 NON d   1       2.680  -4.725   0.456  0.00  0.00     0.236 C 
ATOM     24  O4  NON d   1       2.756  -3.701   1.127  0.00  0.00    -0.272 OA
ATOM     25  N4  NON d   1       3.823  -5.354  -0.037  0.00  0.00    -0.355 N 
ATOM     26  H15 NON d   1       3.724  -6.106  -0.707  0.00  0.00     0.162 HD
BRANCH  25  27
ATOM     27  C14 NON d   1       5.090  -4.646  -0.002  0.00  0.00     0.161 C 
BRANCH  27  28
ATOM     28  C15 NON d   1       6.356  -5.473  -0.038  0.00  0.00    -0.040 A 
ATOM     29  C16 NON d   1       7.579  -4.771  -0.072  0.00  0.00     0.010 A 
ATOM     30  C17 NON d   1       8.805  -5.440  -0.072  0.00  0.00     0.024 A 
ATOM     31  C18 NON d   1       8.827  -6.828  -0.041  0.00  0.00     0.034 A 
ATOM     32 Cl1  NON d   1      10.334  -7.659  -0.034  0.00  0.00    -0.084 Cl
ATOM     33  C19 NON d   1       7.633  -7.547  -0.007  0.00  0.00     0.024 A 
ATOM     34  C20 NON d   1       6.401  -6.873  -0.000  0.00  0.00     0.010 A 
ENDBRANCH  27  28
ENDBRANCH  25  27
ENDBRANCH  22  23
ENDBRANCH   5  22
BRANCH   4  35
ATOM     35  C11 NON d   1       0.767  -2.260  -0.141  0.00  0.00     0.222 C 
BRANCH  35  36
ATOM     36  O3  NON d   1       0.058  -1.143  -0.669  0.00  0.00    -0.395 OA
ATOM     37  H12 NON d   1       0.642  -0.374  -0.552  0.00  0.00     0.209 HD
ENDBRANCH  35  36
ENDBRANCH   4  35
TORSDOF 12
