REMARK  9 active torsions:
REMARK  status: ('A' for Active; 'I' for Inactive)
REMARK    1  A    between atoms: O1_2  and  C2_3 
REMARK    2  A    between atoms: C5_6  and  C6_7 
REMARK       I    between atoms: C6_7  and  N1_9 
REMARK    3  A    between atoms: C7_10  and  N1_9 
REMARK    4  A    between atoms: C7_10  and  N2_11 
REMARK    5  A    between atoms: C7_10  and  C16_24 
REMARK    6  A    between atoms: N2_11  and  C8_12 
REMARK    7  A    between atoms: C8_12  and  N3_14 
REMARK    8  A    between atoms: N3_14  and  C9_15 
REMARK    9  A    between atoms: C12_18  and  C13_19 
ROOT
ATOM      1  C7  NON d   1       5.335  -6.160   0.000  0.00  0.00     0.241 C 
ENDROOT
BRANCH   1   2
ATOM      2  N1  NON d   1       3.936  -7.129  -0.020  0.00  0.00    -0.332 N 
ATOM      3  C6  NON d   1       3.484  -8.235  -0.773  0.00  0.00     0.253 C 
ATOM      4  O2  NON d   1       4.040  -8.621  -1.796  0.00  0.00    -0.268 OA
ATOM      5  H6  NON d   1       3.457  -7.064   0.870  0.00  0.00     0.165 HD
BRANCH   3   6
ATOM      6  C5  NON d   1       2.249  -9.080  -0.333  0.00  0.00     0.032 A 
ATOM      7  C4  NON d   1       0.957  -8.565  -0.177  0.00  0.00     0.020 A 
ATOM      8  C3  NON d   1      -0.194  -9.434  -0.044  0.00  0.00     0.038 A 
ATOM      9  C2  NON d   1      -0.125 -10.848  -0.056  0.00  0.00     0.068 A 
ATOM     10  C18 NON d   1       1.166 -11.365  -0.169  0.00  0.00     0.038 A 
ATOM     11  C17 NON d   1       2.320 -10.498  -0.320  0.00  0.00     0.020 A 
BRANCH   9  12
ATOM     12  O1  NON d   1      -1.334 -11.550   0.000  0.00  0.00    -0.356 OA
ATOM     13  C1  NON d   1      -1.334 -13.090   0.000  0.00  0.00     0.210 C 
ENDBRANCH   9  12
ENDBRANCH   3   6
ENDBRANCH   1   2
BRANCH   1  14
ATOM     14  N2  NON d   1       5.639  -4.771  -0.432  0.00  0.00    -0.342 N 
ATOM     15  H8  NON d   1       5.584  -4.578  -1.426  0.00  0.00     0.164 HD
BRANCH  14  16
ATOM     16  C8  NON d   1       6.471  -3.948   0.327  0.00  0.00     0.173 C 
ATOM     17  S1  NON d   1       6.968  -4.333   1.886  0.00  0.00    -0.041 SA
BRANCH  16  18
ATOM     18  N3  NON d   1       6.726  -2.755  -0.317  0.00  0.00    -0.333 N 
ATOM     19  H9  NON d   1       5.903  -2.289  -0.674  0.00  0.00     0.168 HD
BRANCH  18  20
ATOM     20  C9  NON d   1       7.857  -1.917  -0.143  0.00  0.00     0.034 A 
ATOM     21  C10 NON d   1       7.682  -0.536  -0.254  0.00  0.00     0.030 A 
ATOM     22  C11 NON d   1       8.782   0.324  -0.167  0.00  0.00     0.020 A 
ATOM     23  C12 NON d   1      10.082  -0.179  -0.004  0.00  0.00     0.041 A 
ATOM     24  C14 NON d   1      10.244  -1.567   0.099  0.00  0.00     0.020 A 
ATOM     25  C15 NON d   1       9.144  -2.430   0.035  0.00  0.00     0.030 A 
BRANCH  23  26
ATOM     26  C13 NON d   1      11.276   0.754   0.039  0.00  0.00     0.209 C 
ATOM     27  O3  NON d   1      11.032   1.996  -0.041  0.00  0.00    -0.644 OA
ATOM     28  O4  NON d   1      12.423   0.217   0.142  0.00  0.00    -0.644 OA
ENDBRANCH  23  26
ENDBRANCH  18  20
ENDBRANCH  16  18
ENDBRANCH  14  16
ENDBRANCH   1  14
BRANCH   1  29
ATOM     29  C16 NON d   1       6.668  -6.930   0.000  0.00  0.00     0.226 C 
ATOM     30 Cl1  NON d   1       5.961  -8.555   1.036  0.00  0.00    -0.080 Cl
ATOM     31 Cl2  NON d   1       6.520  -7.325  -1.953  0.00  0.00    -0.080 Cl
ATOM     32 Cl3  NON d   1       8.002  -7.700   0.000  0.00  0.00    -0.080 Cl
ENDBRANCH   1  29
TORSDOF 9
