REMARK  9 active torsions:
REMARK  status: ('A' for Active; 'I' for Inactive)
REMARK    1  A    between atoms: C1_2  and  C2_3 
REMARK       I    between atoms: C1_2  and  N6_20 
REMARK    2  A    between atoms: C2_3  and  S1_4 
REMARK    3  A    between atoms: S1_4  and  C3_5 
REMARK    4  A    between atoms: C4_8  and  N3_9 
REMARK    5  A    between atoms: N4_10  and  N3_9 
REMARK    6  A    between atoms: C5_11  and  C6_12 
REMARK    7  A    between atoms: C11_17  and  O2_18 
REMARK    8  A    between atoms: N6_20  and  C12_21 
REMARK    9  A    between atoms: C12_21  and  C13_22 
ROOT
ATOM      1  C3  NON d   1       2.530  -7.926   0.111  0.00  0.00     0.228 A 
ATOM      2  N1  NON d   1       2.588  -9.214  -0.268  0.00  0.00    -0.106 NA
ATOM      3  N2  NON d   1       1.293  -9.632  -0.389  0.00  0.00     0.048 NA
ATOM      4  C4  NON d   1       0.515  -8.601  -0.010  0.00  0.00     0.762 A 
ATOM      5  N5  NON d   1       1.258  -7.520   0.226  0.00  0.00    -0.032 NA
ENDROOT
BRANCH   1   6
ATOM      6  S1  NON d   1       3.884  -6.844   0.317  0.00  0.00    -0.079 SA
BRANCH   6   7
ATOM      7  C2  NON d   1       5.282  -7.970   0.109  0.00  0.00     0.185 C 
BRANCH   7   8
ATOM      8  C1  NON d   1       5.681  -8.677   1.399  0.00  0.00     0.227 C 
ATOM      9  O1  NON d   1       5.218  -8.437   2.511  0.00  0.00    -0.273 OA
ATOM     10  N6  NON d   1       6.725  -9.585   1.224  0.00  0.00    -0.356 N 
ATOM     11  H11 NON d   1       6.842  -9.976   0.300  0.00  0.00     0.162 HD
BRANCH  10  12
ATOM     12  C12 NON d   1       7.132 -10.394   2.353  0.00  0.00     0.161 C 
BRANCH  12  13
ATOM     13  C13 NON d   1       8.467 -11.094   2.227  0.00  0.00    -0.041 A 
ATOM     14  C14 NON d   1       8.812 -12.019   3.230  0.00  0.00     0.009 A 
ATOM     15  C15 NON d   1      10.036 -12.688   3.209  0.00  0.00     0.001 A 
ATOM     16  C16 NON d   1      10.943 -12.441   2.183  0.00  0.00     0.000 A 
ATOM     17  C17 NON d   1      10.625 -11.521   1.186  0.00  0.00     0.001 A 
ATOM     18  C18 NON d   1       9.400 -10.845   1.209  0.00  0.00     0.009 A 
ENDBRANCH  12  13
ENDBRANCH  10  12
ENDBRANCH   7   8
ENDBRANCH   6   7
ENDBRANCH   1   6
BRANCH   4  19
ATOM     19  N3  NON d   1      -0.862  -8.555   0.115  0.00  0.00    -0.127 N 
ATOM     20  H3  NON d   1      -1.165  -7.594   0.248  0.00  0.00     0.205 HD
BRANCH  19  21
ATOM     21  N4  NON d   1      -1.695  -9.516   0.043  0.00  0.00    -0.297 N 
ATOM     22  C5  NON d   1      -1.413 -10.771   0.114  0.00  0.00     0.121 C 
ATOM     23  H4  NON d   1      -2.698  -9.290  -0.033  0.00  0.00     0.186 HD
BRANCH  22  24
ATOM     24  C6  NON d   1      -2.427 -11.839   0.037  0.00  0.00     0.014 A 
ATOM     25  C7  NON d   1      -1.948 -13.155   0.026  0.00  0.00     0.015 A 
ATOM     26  C8  NON d   1      -2.844 -14.223  -0.018  0.00  0.00     0.001 A 
ATOM     27  C9  NON d   1      -4.217 -13.980  -0.047  0.00  0.00     0.003 A 
ATOM     28  C10 NON d   1      -4.703 -12.671  -0.041  0.00  0.00     0.037 A 
ATOM     29  C11 NON d   1      -3.807 -11.602  -0.003  0.00  0.00     0.077 A 
BRANCH  29  30
ATOM     30  O2  NON d   1      -4.279 -10.313   0.002  0.00  0.00    -0.360 OA
ATOM     31  H10 NON d   1      -5.257 -10.354  -0.022  0.00  0.00     0.217 HD
ENDBRANCH  29  30
ENDBRANCH  22  24
ENDBRANCH  19  21
ENDBRANCH   4  19
TORSDOF 9
