@<TRIPOS>MOLECULE
*****
 58 62 0 0 0
SMALL
USER_CHARGES

@<TRIPOS>ATOM
      1 O1          0.4348   -6.9068    2.8060 O.2     1  NONAME1    -0.2749
      2 C1          1.1168   -7.0340    1.7923 C.2     1  NONAME1     0.2233
      3 C2          0.7851   -7.9599    0.6416 C.3     1  NONAME1     0.0774
      4 S1         -0.8725   -8.6102    0.7013 S.3     1  NONAME1    -0.0793
      5 C3         -1.9949   -7.4372    0.0749 C.2     1  NONAME1     0.1800
      6 N1         -3.0849   -7.9869   -0.4330 N.2     1  NONAME1    -0.1621
      7 N2         -3.9660   -6.9667   -0.7269 N.pl3   1  NONAME1    -0.2418
      8 C4         -3.2192   -5.6936   -0.6295 C.3     1  NONAME1     0.1367
      9 C5         -4.1601   -4.5408   -0.2481 C.ar    1  NONAME1     0.0173
     10 C6         -5.6148   -4.5068   -0.1142 C.ar    1  NONAME1     0.0062
     11 C7         -6.6703   -5.4494   -0.2150 C.ar    1  NONAME1    -0.0522
     12 C8         -8.0067   -5.0533   -0.0551 C.ar    1  NONAME1    -0.0611
     13 C9         -8.3273   -3.7259    0.1877 C.ar    1  NONAME1    -0.0598
     14 C10        -7.3219   -2.7649    0.2848 C.ar    1  NONAME1    -0.0378
     15 C11        -5.9907   -3.1805    0.1316 C.ar    1  NONAME1     0.0468
     16 N3         -4.8457   -2.4286    0.1531 N.ar    1  NONAME1    -0.3603
     17 C12        -3.7641   -3.2125   -0.1208 C.ar    1  NONAME1     0.0093
     18 N4         -1.9974   -6.0412    0.1572 N.pl3   1  NONAME1    -0.2542
     19 C13        -0.8993   -5.1929   -0.0853 C.ar    1  NONAME1     0.0378
     20 C14        -0.6941   -4.0907    0.7591 C.ar    1  NONAME1    -0.0402
     21 C15         0.3551   -3.1929    0.5455 C.ar    1  NONAME1    -0.0600
     22 C16         1.2509   -3.4111   -0.4944 C.ar    1  NONAME1    -0.0616
     23 C17         1.0758   -4.5049   -1.3370 C.ar    1  NONAME1    -0.0600
     24 C18        -0.0111   -5.3702   -1.1547 C.ar    1  NONAME1    -0.0402
     25 N5          2.3237   -6.3774    1.6376 N.am    1  NONAME1    -0.3143
     26 C19         2.8139   -5.5066    2.6884 C.3     1  NONAME1     0.0156
     27 C20         4.1048   -4.7715    2.3242 C.3     1  NONAME1    -0.0121
     28 C21         5.3977   -5.5597    2.2999 C.ar    1  NONAME1    -0.0459
     29 C22         6.5991   -4.8371    2.1976 C.ar    1  NONAME1    -0.0585
     30 C23         7.8328   -5.4894    2.1663 C.ar    1  NONAME1    -0.0615
     31 C24         7.8855   -6.8780    2.2275 C.ar    1  NONAME1    -0.0617
     32 C25         6.7047   -7.6107    2.3237 C.ar    1  NONAME1    -0.0615
     33 C26         5.4690   -6.9573    2.3618 C.ar    1  NONAME1    -0.0585
     34 H1          1.4574   -8.8203    0.7530 H       1  NONAME1     0.0475
     35 H2          1.0291   -7.5257   -0.3266 H       1  NONAME1     0.0475
     36 H3         -4.6230   -6.9602    0.0566 H       1  NONAME1     0.1705
     37 H4         -2.9071   -5.4748   -1.6623 H       1  NONAME1     0.0779
     38 H5         -6.4923   -6.4961   -0.4409 H       1  NONAME1     0.0624
     39 H6         -8.7969   -5.7961   -0.1371 H       1  NONAME1     0.0618
     40 H7         -9.3689   -3.4316    0.2913 H       1  NONAME1     0.0618
     41 H8         -7.5712   -1.7229    0.4564 H       1  NONAME1     0.0638
     42 H9         -4.8225   -1.4284    0.2888 H       1  NONAME1     0.1653
     43 H10        -2.7936   -2.7513   -0.2331 H       1  NONAME1     0.0811
     44 H11        -1.3735   -3.9202    1.5933 H       1  NONAME1     0.0636
     45 H12         0.4687   -2.3295    1.1959 H       1  NONAME1     0.0618
     46 H13         2.0836   -2.7278   -0.6500 H       1  NONAME1     0.0618
     47 H14         1.7833   -4.6847   -2.1447 H       1  NONAME1     0.0618
     48 H15        -0.1409   -6.2004   -1.8443 H       1  NONAME1     0.0636
     49 H16         2.8296   -6.4371    0.7631 H       1  NONAME1     0.1487
     50 H17         2.0261   -4.7701    2.8843 H       1  NONAME1     0.0465
     51 H18         2.9324   -6.1018    3.6013 H       1  NONAME1     0.0465
     52 H19         3.9817   -4.2954    1.3430 H       1  NONAME1     0.0328
     53 H20         4.2304   -3.9686    3.0625 H       1  NONAME1     0.0328
     54 H21         6.5797   -3.7499    2.1505 H       1  NONAME1     0.0620
     55 H22         8.7507   -4.9116    2.0973 H       1  NONAME1     0.0618
     56 H23         8.8441   -7.3889    2.2043 H       1  NONAME1     0.0618
     57 H24         6.7458   -8.6961    2.3755 H       1  NONAME1     0.0618
     58 H25         4.5742   -7.5678    2.4503 H       1  NONAME1     0.0620
@<TRIPOS>BOND
     1     1     2    2
     2     2     3    1
     3     3     4    1
     4     5     4    1
     5     5     6    2
     6     6     7    1
     7     7     8    1
     8     8     9    1
     9     9    10   ar
    10    10    11   ar
    11    11    12   ar
    12    12    13   ar
    13    13    14   ar
    14    14    15   ar
    15    10    15   ar
    16    15    16   ar
    17    16    17   ar
    18     9    17   ar
    19     8    18    1
    20     5    18    1
    21    18    19    1
    22    19    20   ar
    23    20    21   ar
    24    21    22   ar
    25    22    23   ar
    26    23    24   ar
    27    19    24   ar
    28     2    25   am
    29    25    26    1
    30    26    27    1
    31    27    28    1
    32    28    29   ar
    33    29    30   ar
    34    30    31   ar
    35    31    32   ar
    36    32    33   ar
    37    28    33   ar
    38     3    34    1
    39     3    35    1
    40     7    36    1
    41     8    37    1
    42    11    38    1
    43    12    39    1
    44    13    40    1
    45    14    41    1
    46    16    42    1
    47    17    43    1
    48    20    44    1
    49    21    45    1
    50    22    46    1
    51    23    47    1
    52    24    48    1
    53    25    49    1
    54    26    50    1
    55    26    51    1
    56    27    52    1
    57    27    53    1
    58    29    54    1
    59    30    55    1
    60    31    56    1
    61    32    57    1
    62    33    58    1
