@<TRIPOS>MOLECULE
*****
 59 60 0 0 0
SMALL
USER_CHARGES

@<TRIPOS>ATOM
      1 C1          6.1251   -9.1624    2.9322 C.3     1  NONAME1    -0.0361
      2 C2          7.3344   -9.9760    3.3895 C.3     1  NONAME1     0.0866
      3 O1          8.0920  -10.3375    2.2278 O.3     1  NONAME1    -0.3506
      4 C3          9.4157  -10.8233    2.4542 C.3     1  NONAME1     0.1536
      5 N1          9.5200  -11.9120    1.4945 N.am    1  NONAME1    -0.2879
      6 C4         10.4937  -12.8743    1.4730 C.2     1  NONAME1     0.2149
      7 O2         11.2569  -13.0805    2.4120 O.2     1  NONAME1    -0.2758
      8 C5         10.5492  -13.6798    0.1862 C.3     1  NONAME1     0.0240
      9 C6         11.6828  -14.7158    0.1805 C.3     1  NONAME1    -0.0447
     10 C7         13.0703  -14.0669    0.1274 C.3     1  NONAME1    -0.0512
     11 C8         14.2199  -15.0705   -0.0228 C.3     1  NONAME1    -0.0373
     12 C9         14.6417  -15.7635    1.2726 C.3     1  NONAME1     0.0147
     13 N2         13.8098  -16.8782    1.6588 N.am    1  NONAME1    -0.2811
     14 C10        14.1690  -17.6497    2.7287 C.2     1  NONAME1     0.4006
     15 O3         15.0857  -17.3884    3.4956 O.2     1  NONAME1    -0.2265
     16 O4         13.4096  -18.7762    2.7742 O.3     1  NONAME1    -0.4456
     17 C11        13.8449  -19.6809    3.7982 C.3     1  NONAME1     0.1191
     18 C12        12.9432  -20.8860    3.9657 C.ar    1  NONAME1    -0.0103
     19 C13        13.2217  -21.7859    5.0084 C.ar    1  NONAME1    -0.0554
     20 C14        12.4238  -22.9124    5.2185 C.ar    1  NONAME1    -0.0614
     21 C15        11.3346  -23.1547    4.3860 C.ar    1  NONAME1    -0.0617
     22 C16        11.0502  -22.2751    3.3421 C.ar    1  NONAME1    -0.0614
     23 C17        11.8513  -21.1464    3.1295 C.ar    1  NONAME1    -0.0554
     24 C18         9.7625  -11.1693    3.9297 C.3     1  NONAME1     0.1261
     25 O5         11.1766  -11.3260    4.1629 O.3     1  NONAME1    -0.3849
     26 C19         9.2996  -10.0885    4.9164 C.3     1  NONAME1     0.1132
     27 O6         10.3986   -9.2477    5.3175 O.3     1  NONAME1    -0.3864
     28 C20         8.2005   -9.1866    4.3672 C.3     1  NONAME1     0.1094
     29 O7          7.4483   -8.6500    5.4560 O.3     1  NONAME1    -0.3866
     30 H1          5.7120   -9.5540    1.9971 H       1  NONAME1     0.0255
     31 H2          5.3384   -9.1708    3.6939 H       1  NONAME1     0.0255
     32 H3          6.4001   -8.1176    2.7477 H       1  NONAME1     0.0255
     33 H4          6.9575  -10.8956    3.8558 H       1  NONAME1     0.0621
     34 H5         10.1115  -10.0543    2.0986 H       1  NONAME1     0.0835
     35 H6          8.9735  -11.7595    0.6585 H       1  NONAME1     0.1512
     36 H7         10.6663  -12.9896   -0.6577 H       1  NONAME1     0.0358
     37 H8          9.5902  -14.1981    0.0697 H       1  NONAME1     0.0358
     38 H9         11.5982  -15.3575    1.0641 H       1  NONAME1     0.0270
     39 H10        11.5580  -15.3589   -0.6990 H       1  NONAME1     0.0270
     40 H11        13.1022  -13.3896   -0.7354 H       1  NONAME1     0.0266
     41 H12        13.2515  -13.4471    1.0095 H       1  NONAME1     0.0266
     42 H13        13.9918  -15.8058   -0.8020 H       1  NONAME1     0.0280
     43 H14        15.0903  -14.4998   -0.3724 H       1  NONAME1     0.0280
     44 H15        14.6825  -15.0566    2.1093 H       1  NONAME1     0.0463
     45 H16        15.6568  -16.1586    1.1415 H       1  NONAME1     0.0463
     46 H17        13.1592  -17.2999    1.0077 H       1  NONAME1     0.1520
     47 H18        13.8774  -19.1526    4.7596 H       1  NONAME1     0.0749
     48 H19        14.8473  -20.0442    3.5377 H       1  NONAME1     0.0749
     49 H20        14.0690  -21.6101    5.6693 H       1  NONAME1     0.0621
     50 H21        12.6509  -23.5965    6.0320 H       1  NONAME1     0.0618
     51 H22        10.7084  -24.0278    4.5508 H       1  NONAME1     0.0618
     52 H23        10.1992  -22.4661    2.6931 H       1  NONAME1     0.0618
     53 H24        11.6085  -20.4779    2.3105 H       1  NONAME1     0.0621
     54 H25         9.2662  -12.1118    4.1941 H       1  NONAME1     0.0663
     55 H26        11.4563  -12.0929    3.6105 H       1  NONAME1     0.2101
     56 H27         8.9670  -10.5806    5.8387 H       1  NONAME1     0.0647
     57 H28        11.1910   -9.8204    5.1996 H       1  NONAME1     0.2100
     58 H29         8.6543   -8.3341    3.8440 H       1  NONAME1     0.0646
     59 H30         8.1049   -8.2153    6.0353 H       1  NONAME1     0.2100
@<TRIPOS>BOND
     1     2     1    1
     2     2     3    1
     3     4     3    1
     4     4     5    1
     5     5     6   am
     6     6     7    2
     7     6     8    1
     8     8     9    1
     9     9    10    1
    10    10    11    1
    11    11    12    1
    12    12    13    1
    13    13    14   am
    14    14    15    2
    15    14    16    1
    16    16    17    1
    17    17    18    1
    18    18    19   ar
    19    19    20   ar
    20    20    21   ar
    21    21    22   ar
    22    22    23   ar
    23    18    23   ar
    24    24     4    1
    25    24    25    1
    26    24    26    1
    27    26    27    1
    28    26    28    1
    29    28     2    1
    30    28    29    1
    31     1    30    1
    32     1    31    1
    33     1    32    1
    34     2    33    1
    35     4    34    1
    36     5    35    1
    37     8    36    1
    38     8    37    1
    39     9    38    1
    40     9    39    1
    41    10    40    1
    42    10    41    1
    43    11    42    1
    44    11    43    1
    45    12    44    1
    46    12    45    1
    47    13    46    1
    48    17    47    1
    49    17    48    1
    50    19    49    1
    51    20    50    1
    52    21    51    1
    53    22    52    1
    54    23    53    1
    55    24    54    1
    56    25    55    1
    57    26    56    1
    58    27    57    1
    59    28    58    1
    60    29    59    1
