REMARK  9 active torsions:
REMARK  status: ('A' for Active; 'I' for Inactive)
REMARK    1  A    between atoms: O1_2  and  C2_3 
REMARK    2  A    between atoms: C5_6  and  C6_7 
REMARK    3  A    between atoms: C6_7  and  C7_8 
REMARK    4  A    between atoms: C7_8  and  N1_9 
REMARK    5  A    between atoms: C10_13  and  C11_14 
REMARK    6  A    between atoms: C11_14  and  C12_15 
REMARK    7  A    between atoms: C15_18  and  O3_19 
REMARK    8  A    between atoms: C16_20  and  O4_21 
REMARK    9  A    between atoms: C29_38  and  O7_39 
ROOT
ATOM      1  N1  NON d   1       5.599  -3.736  -0.190  0.00  0.00    -0.287 N 
ATOM      2  C8  NON d   1       4.308  -3.188  -0.327  0.00  0.00     0.233 C 
ATOM      3  O2  NON d   1       3.255  -3.744  -0.087  0.00  0.00    -0.272 OA
ATOM      4  C9  NON d   1       4.524  -1.758  -0.911  0.00  0.00     0.128 C 
ATOM      5  C10 NON d   1       3.827  -0.426  -0.795  0.00  0.00     0.240 C 
ATOM      6  N2  NON d   1       4.729   0.500   0.000  0.00  0.00     0.114 N 
ATOM      7  C18 NON d   1       6.178  -0.023   0.000  0.00  0.00     0.279 C 
ATOM      8  C19 NON d   1       6.508   0.880  -1.450  0.00  0.00     0.267 C 
ATOM      9  O5  NON d   1       5.702   1.539  -2.103  0.00  0.00    -0.270 OA
ATOM     10  N3  NON d   1       7.841   0.925  -1.711  0.00  0.00    -0.324 N 
ATOM     11  C20 NON d   1       8.513   0.113  -0.854  0.00  0.00     0.044 C 
ATOM     12  C21 NON d   1       9.898   0.024  -0.802  0.00  0.00     0.030 C 
ATOM     13  C22 NON d   1      10.461  -0.807   0.155  0.00  0.00     0.002 C 
ATOM     14  C23 NON d   1       9.634  -1.461   1.069  0.00  0.00     0.001 C 
ATOM     15  C24 NON d   1       8.243  -1.269   1.044  0.00  0.00     0.012 C 
ATOM     16  C25 NON d   1       7.626  -0.547   0.000  0.00  0.00     0.017 C 
ATOM     17  C26 NON d   1       5.741  -1.502  -0.103  0.00  0.00     0.147 C 
ATOM     18  C27 NON d   1       6.460  -2.760  -0.598  0.00  0.00     0.234 C 
ATOM     19  O6  NON d   1       7.407  -2.887  -1.345  0.00  0.00    -0.272 OA
ATOM     20  H19 NON d   1       4.683   1.440  -0.415  0.00  0.00     0.318 HD
ATOM     21  H20 NON d   1       8.243   1.518  -2.421  0.00  0.00     0.169 HD
ENDROOT
BRANCH   1  22
ATOM     22  C7  NON d   1       5.980  -5.122   0.086  0.00  0.00     0.139 C 
BRANCH  22  23
ATOM     23  C6  NON d   1       7.509  -5.491   0.152  0.00  0.00     0.059 C 
BRANCH  23  24
ATOM     24  C5  NON d   1       8.412  -5.194   1.352  0.00  0.00    -0.054 A 
ATOM     25  C4  NON d   1       7.992  -4.558   2.518  0.00  0.00     0.010 A 
ATOM     26  C3  NON d   1       8.913  -4.289   3.553  0.00  0.00     0.040 A 
ATOM     27  C2  NON d   1      10.261  -4.654   3.453  0.00  0.00     0.101 A 
ATOM     28  C29 NON d   1      10.682  -5.387   2.345  0.00  0.00     0.102 A 
ATOM     29  C28 NON d   1       9.768  -5.615   1.296  0.00  0.00     0.046 A 
BRANCH  27  30
ATOM     30  O1  NON d   1      11.068  -4.272   4.491  0.00  0.00    -0.353 OA
ATOM     31  C1  NON d   1      12.155  -3.435   4.091  0.00  0.00     0.210 C 
ENDBRANCH  27  30
BRANCH  28  32
ATOM     32  O7  NON d   1      11.953  -5.854   2.136  0.00  0.00    -0.353 OA
ATOM     33  C30 NON d   1      12.554  -6.551   3.239  0.00  0.00     0.210 C 
ENDBRANCH  28  32
ENDBRANCH  23  24
ENDBRANCH  22  23
ENDBRANCH   1  22
BRANCH   5  34
ATOM     34  C11 NON d   1       2.352  -0.513  -0.379  0.00  0.00     0.075 C 
BRANCH  34  35
ATOM     35  C12 NON d   1       1.426  -1.203  -1.380  0.00  0.00    -0.053 A 
ATOM     36  C13 NON d   1       0.085  -1.420  -1.019  0.00  0.00     0.010 A 
ATOM     37  C14 NON d   1      -0.809  -2.071  -1.883  0.00  0.00     0.040 A 
ATOM     38  C15 NON d   1      -0.358  -2.518  -3.116  0.00  0.00     0.098 A 
ATOM     39  C16 NON d   1       0.959  -2.301  -3.496  0.00  0.00     0.099 A 
ATOM     40  C17 NON d   1       1.838  -1.633  -2.655  0.00  0.00     0.046 A 
BRANCH  38  41
ATOM     41  O3  NON d   1      -1.170  -3.179  -3.993  0.00  0.00    -0.358 OA
ATOM     42  H16 NON d   1      -2.049  -3.254  -3.599  0.00  0.00     0.217 HD
ENDBRANCH  38  41
BRANCH  39  43
ATOM     43  O4  NON d   1       1.409  -2.750  -4.705  0.00  0.00    -0.358 OA
ATOM     44  H17 NON d   1       0.638  -3.204  -5.098  0.00  0.00     0.217 HD
ENDBRANCH  39  43
ENDBRANCH  34  35
ENDBRANCH   5  34
TORSDOF 9
