REMARK  10 active torsions:
REMARK  status: ('A' for Active; 'I' for Inactive)
REMARK    1  A    between atoms: O1_2  and  C2_3 
REMARK    2  A    between atoms: C5_6  and  N1_7 
REMARK    3  A    between atoms: N1_7  and  C6_8 
REMARK    4  A    between atoms: C6_8  and  N2_10 
REMARK    5  A    between atoms: N2_10  and  N3_11 
REMARK       I    between atoms: N3_11  and  C7_12 
REMARK    6  A    between atoms: C7_12  and  C8_14 
REMARK    7  A    between atoms: C11_17  and  C12_18 
REMARK    8  A    between atoms: C12_18  and  O3_19 
REMARK    9  A    between atoms: O3_19  and  C13_20 
REMARK   10  A    between atoms: C23_31  and  O5_32 
ROOT
ATOM      1  N3  NON d   1      20.474  -5.066  -0.155  0.00  0.00    -0.127 NA
ATOM      2  C7  NON d   1      21.550  -5.832   0.142  0.00  0.00     0.317 C 
ATOM      3  O2  NON d   1      21.529  -7.029   0.428  0.00  0.00    -0.262 OA
ENDROOT
BRANCH   2   4
ATOM      4  C8  NON d   1      22.812  -5.045   0.071  0.00  0.00     0.147 A 
ATOM      5  C9  NON d   1      23.049  -3.680  -0.031  0.00  0.00     0.045 A 
ATOM      6  C10 NON d   1      24.451  -3.471  -0.045  0.00  0.00     0.038 A 
ATOM      7  C11 NON d   1      25.047  -4.713   0.037  0.00  0.00     0.078 A 
ATOM      8  O4  NON d   1      24.059  -5.678   0.121  0.00  0.00    -0.307 OA
BRANCH   7   9
ATOM      9  C12 NON d   1      26.491  -5.156   0.041  0.00  0.00     0.240 C 
BRANCH   9  10
ATOM     10  O3  NON d   1      27.318  -3.973   0.030  0.00  0.00    -0.345 OA
BRANCH  10  11
ATOM     11  C13 NON d   1      28.686  -4.073   0.018  0.00  0.00     0.070 A 
ATOM     12  C14 NON d   1      29.352  -2.843   0.006  0.00  0.00     0.037 A 
ATOM     13  C15 NON d   1      30.748  -2.770  -0.001  0.00  0.00     0.015 A 
ATOM     14  C16 NON d   1      31.528  -3.930   0.003  0.00  0.00    -0.026 A 
ATOM     15  C17 NON d   1      32.934  -3.869  -0.003  0.00  0.00     0.012 A 
ATOM     16  C21 NON d   1      30.875  -5.186   0.013  0.00  0.00    -0.023 A 
ATOM     17  C18 NON d   1      33.705  -5.032   0.001  0.00  0.00     0.001 A 
ATOM     18  C19 NON d   1      33.074  -6.271   0.009  0.00  0.00     0.001 A 
ATOM     19  C20 NON d   1      31.676  -6.347   0.015  0.00  0.00     0.012 A 
ATOM     20  C22 NON d   1      29.453  -5.240   0.021  0.00  0.00     0.049 A 
ENDBRANCH  10  11
ENDBRANCH   9  10
ENDBRANCH   7   9
ENDBRANCH   2   4
BRANCH   1  21
ATOM     21  N2  NON d   1      19.094  -5.678   0.026  0.00  0.00    -0.249 N 
ATOM     22  H7  NON d   1      19.107  -6.588   0.474  0.00  0.00     0.191 HD
BRANCH  21  23
ATOM     23  C6  NON d   1      17.938  -5.005  -0.423  0.00  0.00     0.193 C 
ATOM     24  S1  NON d   1      18.033  -3.639  -1.419  0.00  0.00    -0.039 SA
BRANCH  23  25
ATOM     25  N1  NON d   1      16.728  -5.617   0.020  0.00  0.00    -0.330 N 
ATOM     26  H6  NON d   1      16.775  -6.622   0.111  0.00  0.00     0.168 HD
BRANCH  25  27
ATOM     27  C5  NON d   1      15.396  -5.031   0.088  0.00  0.00     0.068 A 
ATOM     28  C4  NON d   1      15.281  -3.644   0.270  0.00  0.00     0.035 A 
ATOM     29  C3  NON d   1      14.047  -2.988   0.268  0.00  0.00     0.039 A 
ATOM     30  C2  NON d   1      12.868  -3.705   0.136  0.00  0.00     0.070 A 
ATOM     31  C25 NON d   1      12.931  -5.094   0.038  0.00  0.00     0.075 A 
ATOM     32  C23 NON d   1      14.168  -5.774   0.045  0.00  0.00     0.097 A 
BRANCH  30  33
ATOM     33  O1  NON d   1      11.732  -2.944   0.134  0.00  0.00    -0.356 OA
ATOM     34  C1  NON d   1      10.492  -3.634   0.189  0.00  0.00     0.210 C 
ENDBRANCH  30  33
BRANCH  32  35
ATOM     35  O5  NON d   1      14.177  -7.147   0.000  0.00  0.00    -0.354 OA
ATOM     36  C24 NON d   1      12.843  -7.917   0.000  0.00  0.00     0.210 C 
ENDBRANCH  32  35
ENDBRANCH  25  27
ENDBRANCH  23  25
ENDBRANCH  21  23
ENDBRANCH   1  21
TORSDOF 10
