@<TRIPOS>MOLECULE
*****
 39 41 0 0 0
SMALL
USER_CHARGES

@<TRIPOS>ATOM
      1 C1          2.6286   -3.2199    0.0281 C.3     1  NONAME1    -0.0203
      2 C2          1.3227   -2.4461    0.0795 C.2     1  NONAME1     0.0634
      3 N1          0.1560   -3.0258    0.1522 N.2     1  NONAME1    -0.1843
      4 N2          0.0827   -4.3840    0.0303 N.am    1  NONAME1    -0.2014
      5 C3         -1.0422   -5.0605    0.4882 C.2     1  NONAME1     0.2836
      6 O1         -1.9142   -4.5045    1.1530 O.2     1  NONAME1    -0.2667
      7 C4         -1.1155   -6.4573    0.1532 C.ar    1  NONAME1     0.1553
      8 C5         -0.0948   -7.3832   -0.0388 C.ar    1  NONAME1     0.0927
      9 C6          1.3786   -7.2406   -0.0437 C.3     1  NONAME1    -0.0183
     10 N3         -0.6189   -8.6291   -0.1561 N.ar    1  NONAME1    -0.1336
     11 N4         -1.9245   -8.5380   -0.0145 N.ar    1  NONAME1    -0.0583
     12 N5         -2.2905   -7.2206    0.0788 N.ar    1  NONAME1    -0.1832
     13 C7         -3.6749   -6.8700    0.0395 C.ar    1  NONAME1     0.2407
     14 N6         -4.5544   -7.8682    0.2068 N.ar    1  NONAME1    -0.0272
     15 O2         -5.8003   -7.2798    0.0735 O.2     1  NONAME1    -0.2388
     16 N7         -5.6840   -5.9309   -0.2120 N.ar    1  NONAME1    -0.0319
     17 C8         -4.3752   -5.6752   -0.2280 C.ar    1  NONAME1     0.2064
     18 N8         -3.8971   -4.4467   -0.5237 N.pl3   1  NONAME1    -0.3375
     19 C9          1.3753   -0.9407    0.0536 C.ar    1  NONAME1    -0.0023
     20 C10         0.1785   -0.2163    0.1744 C.ar    1  NONAME1    -0.0494
     21 C11         0.1827    1.1817    0.1351 C.ar    1  NONAME1    -0.0196
     22 C12         1.3819    1.8638   -0.0198 C.ar    1  NONAME1     0.1169
     23 O3          1.3428    3.2259   -0.0459 O.3     1  NONAME1    -0.5068
     24 C13         2.5782    1.1680   -0.1472 C.ar    1  NONAME1    -0.0196
     25 C14         2.5741   -0.2328   -0.1186 C.ar    1  NONAME1    -0.0494
     26 H1          2.5335   -4.1835    0.5359 H       1  NONAME1     0.0293
     27 H2          2.9096   -3.3887   -1.0145 H       1  NONAME1     0.0293
     28 H3          3.4315   -2.6922    0.5470 H       1  NONAME1     0.0293
     29 H4          0.7442   -4.8322   -0.5878 H       1  NONAME1     0.1776
     30 H5          1.8654   -8.2193    0.0230 H       1  NONAME1     0.0294
     31 H6          1.7188   -6.6429    0.8066 H       1  NONAME1     0.0294
     32 H7          1.7151   -6.7676   -0.9713 H       1  NONAME1     0.0294
     33 H8         -3.1779   -4.0867    0.1145 H       1  NONAME1     0.1439
     34 H9         -4.6180   -3.7326   -0.6023 H       1  NONAME1     0.1439
     35 H10        -0.7720   -0.7320    0.2977 H       1  NONAME1     0.0625
     36 H11        -0.7489    1.7342    0.2258 H       1  NONAME1     0.0654
     37 H12         2.2472    3.5698   -0.1324 H       1  NONAME1     0.2921
     38 H13         3.5198    1.6938   -0.2739 H       1  NONAME1     0.0654
     39 H14         3.5276   -0.7362   -0.2410 H       1  NONAME1     0.0625
@<TRIPOS>BOND
     1     1     2    1
     2     2     3    2
     3     3     4    1
     4     4     5   am
     5     5     6    2
     6     5     7    1
     7     7     8   ar
     8     8     9    1
     9     8    10   ar
    10    10    11   ar
    11    11    12   ar
    12     7    12   ar
    13    12    13    1
    14    13    14   ar
    15    14    15   ar
    16    15    16   ar
    17    16    17   ar
    18    13    17   ar
    19    17    18    1
    20     2    19    1
    21    19    20   ar
    22    20    21   ar
    23    21    22   ar
    24    22    23    1
    25    22    24   ar
    26    24    25   ar
    27    19    25   ar
    28     1    26    1
    29     1    27    1
    30     1    28    1
    31     4    29    1
    32     9    30    1
    33     9    31    1
    34     9    32    1
    35    18    33    1
    36    18    34    1
    37    20    35    1
    38    21    36    1
    39    23    37    1
    40    24    38    1
    41    25    39    1
