@<TRIPOS>MOLECULE
*****
 57 60 0 0 0
SMALL
USER_CHARGES

@<TRIPOS>ATOM
      1 C1          0.0000    0.0000    0.0000 C.3     1  NONAME1    -0.0424
      2 C2          1.3337   -0.7700    0.0000 C.3     1  NONAME1     0.0676
      3 C3          1.5098   -2.1805    0.9475 C.ar    1  NONAME1     0.1556
      4 N1          2.6705   -2.7442    1.2619 N.ar    1  NONAME1    -0.1315
      5 N2          2.5061   -4.1184    1.3021 N.ar    1  NONAME1    -0.1221
      6 C4          1.2561   -4.3983    1.0046 C.ar    1  NONAME1     0.1966
      7 S1          0.5728   -5.9619    0.6824 S.3     1  NONAME1    -0.0778
      8 C5          1.9390   -7.1366    0.6664 C.3     1  NONAME1     0.0612
      9 C6          2.9592   -7.0357   -0.4430 C.ar    1  NONAME1     0.1464
     10 N3          3.4275   -8.1738   -0.9588 N.ar    1  NONAME1    -0.1988
     11 C7          4.4834   -8.0398   -1.7493 C.ar    1  NONAME1     0.2172
     12 N4          5.0204   -9.1923   -2.2922 N.pl3   1  NONAME1    -0.3274
     13 N5          5.1178   -6.9051   -1.9929 N.ar    1  NONAME1    -0.1810
     14 C8          4.5869   -5.8228   -1.4383 C.ar    1  NONAME1     0.2241
     15 N6          5.1560   -4.5560   -1.5483 N.pl3   1  NONAME1    -0.2835
     16 C9          6.4694   -4.1216   -1.7698 C.ar    1  NONAME1     0.0336
     17 C10         7.5306   -4.9655   -2.1013 C.ar    1  NONAME1    -0.0405
     18 C11         8.8134   -4.4541   -2.3306 C.ar    1  NONAME1    -0.0600
     19 C12         9.0491   -3.0836   -2.2565 C.ar    1  NONAME1    -0.0616
     20 C13         7.9993   -2.2229   -1.9648 C.ar    1  NONAME1    -0.0600
     21 C14         6.7238   -2.7413   -1.7365 C.ar    1  NONAME1    -0.0405
     22 N7          3.4884   -5.8469   -0.6984 N.ar    1  NONAME1    -0.1983
     23 N8          0.5168   -3.2240    1.0583 N.ar    1  NONAME1    -0.2729
     24 C15        -0.9194   -3.0815    1.1200 C.ar    1  NONAME1     0.0504
     25 C16        -1.7696   -3.7923    0.2532 C.ar    1  NONAME1    -0.0350
     26 C17        -3.1425   -3.5097    0.2233 C.ar    1  NONAME1    -0.0245
     27 C18        -3.6575   -2.5162    1.0424 C.ar    1  NONAME1     0.1235
     28 F1         -4.9614   -2.2184    0.9787 F       1  NONAME1    -0.2055
     29 C19        -2.8313   -1.8028    1.9051 C.ar    1  NONAME1    -0.0245
     30 C20        -1.4622   -2.0856    1.9498 C.ar    1  NONAME1    -0.0350
     31 N9          2.6674    0.0000    0.0000 N.3     1  NONAME1    -0.2990
     32 C21         3.8978   -0.6834   -0.2757 C.3     1  NONAME1    -0.0124
     33 C22         2.6801    1.4317    0.1268 C.3     1  NONAME1    -0.0124
     34 H1          0.1814    0.5347    0.9537 H       1  NONAME1     0.0249
     35 H2         -1.3337    0.7700    0.0000 H       1  NONAME1     0.0249
     36 H3          0.2386    0.6267   -0.8819 H       1  NONAME1     0.0249
     37 H4          0.0000   -1.5400    0.0000 H       1  NONAME1     0.0541
     38 H5          1.4683   -8.1248    0.5862 H       1  NONAME1     0.0460
     39 H6          2.4548   -7.1103    1.6296 H       1  NONAME1     0.0460
     40 H7          6.0018   -9.0486   -2.4878 H       1  NONAME1     0.1452
     41 H8          4.7748   -9.9964   -1.7321 H       1  NONAME1     0.1452
     42 H9          4.5999   -3.9400   -0.9625 H       1  NONAME1     0.1550
     43 H10         7.3875   -6.0387   -2.1712 H       1  NONAME1     0.0636
     44 H11         9.6279   -5.1329   -2.5685 H       1  NONAME1     0.0618
     45 H12        10.0454   -2.6888   -2.4329 H       1  NONAME1     0.0618
     46 H13         8.1654   -1.1503   -1.9159 H       1  NONAME1     0.0618
     47 H14         5.9187   -2.0475   -1.5259 H       1  NONAME1     0.0636
     48 H15        -1.3987   -4.5070   -0.4731 H       1  NONAME1     0.0639
     49 H16        -3.8026   -4.0356   -0.4611 H       1  NONAME1     0.0647
     50 H17        -3.2573   -1.0160    2.5197 H       1  NONAME1     0.0647
     51 H18        -0.8281   -1.5046    2.6183 H       1  NONAME1     0.0639
     52 H19         4.5915   -0.0548   -0.8439 H       1  NONAME1     0.0391
     53 H20         4.4025   -0.9550    0.6585 H       1  NONAME1     0.0391
     54 H21         3.7348   -1.5884   -0.8674 H       1  NONAME1     0.0391
     55 H22         2.0600    1.7676    0.9634 H       1  NONAME1     0.0391
     56 H23         2.3251    1.9105   -0.7909 H       1  NONAME1     0.0391
     57 H24         3.6886    1.8116    0.3274 H       1  NONAME1     0.0391
@<TRIPOS>BOND
     1     2     1    1
     2     2     3    1
     3     3     4   ar
     4     4     5   ar
     5     5     6   ar
     6     6     7    1
     7     7     8    1
     8     8     9    1
     9     9    10   ar
    10    10    11   ar
    11    11    12    1
    12    11    13   ar
    13    13    14   ar
    14    14    15    1
    15    15    16    1
    16    16    17   ar
    17    17    18   ar
    18    18    19   ar
    19    19    20   ar
    20    20    21   ar
    21    16    21   ar
    22    14    22   ar
    23     9    22   ar
    24     6    23   ar
    25     3    23   ar
    26    23    24    1
    27    24    25   ar
    28    25    26   ar
    29    26    27   ar
    30    27    28    1
    31    27    29   ar
    32    29    30   ar
    33    24    30   ar
    34     2    31    1
    35    31    32    1
    36    31    33    1
    37     1    34    1
    38     1    35    1
    39     1    36    1
    40     2    37    1
    41     8    38    1
    42     8    39    1
    43    12    40    1
    44    12    41    1
    45    15    42    1
    46    17    43    1
    47    18    44    1
    48    19    45    1
    49    20    46    1
    50    21    47    1
    51    25    48    1
    52    26    49    1
    53    29    50    1
    54    30    51    1
    55    32    52    1
    56    32    53    1
    57    32    54    1
    58    33    55    1
    59    33    56    1
    60    33    57    1
