REMARK  11 active torsions:
REMARK  status: ('A' for Active; 'I' for Inactive)
REMARK    1  A    between atoms: C2_2  and  C3_3 
REMARK    2  A    between atoms: C3_3  and  C4_4 
REMARK    3  A    between atoms: C4_4  and  O1_5 
REMARK    4  A    between atoms: O1_5  and  C5_6 
REMARK    5  A    between atoms: C10_11  and  C11_12 
REMARK       I    between atoms: C11_12  and  N1_14 
REMARK    6  A    between atoms: N1_14  and  C12_15 
REMARK    7  A    between atoms: C12_15  and  N2_17 
REMARK    8  A    between atoms: N2_17  and  N3_18 
REMARK       I    between atoms: N3_18  and  C13_19 
REMARK    9  A    between atoms: C13_19  and  C14_21 
REMARK   10  A    between atoms: C17_24  and  N4_25 
REMARK       I    between atoms: N4_25  and  C18_26 
REMARK   11  A    between atoms: C18_26  and  C19_28 
ROOT
ATOM      1  N2  NON d   1       6.881  -7.458   0.096  0.00  0.00    -0.273 N 
ATOM      2  H15 NON d   1       6.860  -6.450  -0.048  0.00  0.00     0.189 HD
ENDROOT
BRANCH   1   3
ATOM      3  C12 NON d   1       5.744  -8.302   0.069  0.00  0.00     0.193 C 
ATOM      4  S1  NON d   1       5.934  -9.975   0.092  0.00  0.00    -0.039 SA
BRANCH   3   5
ATOM      5  N1  NON d   1       4.496  -7.612   0.042  0.00  0.00    -0.298 N 
ATOM      6  C11 NON d   1       3.172  -8.158  -0.065  0.00  0.00     0.260 C 
ATOM      7  O2  NON d   1       2.982  -9.346  -0.304  0.00  0.00    -0.267 OA
ATOM      8  H14 NON d   1       4.564  -6.622   0.197  0.00  0.00     0.171 HD
BRANCH   6   9
ATOM      9  C10 NON d   1       1.939  -7.254   0.050  0.00  0.00     0.065 A 
ATOM     10  C9  NON d   1       2.066  -5.851  -0.002  0.00  0.00     0.020 A 
ATOM     11  C8  NON d   1       0.943  -5.008   0.053  0.00  0.00     0.001 A 
ATOM     12  C7  NON d   1      -0.333  -5.532   0.166  0.00  0.00     0.003 A 
ATOM     13  C6  NON d   1      -0.500  -6.913   0.226  0.00  0.00     0.038 A 
ATOM     14  C5  NON d   1       0.611  -7.788   0.150  0.00  0.00     0.084 A 
BRANCH  14  15
ATOM     15  O1  NON d   1       0.422  -9.158   0.180  0.00  0.00    -0.350 OA
BRANCH  15  16
ATOM     16  C4  NON d   1      -0.924  -9.648   0.094  0.00  0.00     0.175 C 
BRANCH  16  17
ATOM     17  C3  NON d   1      -0.984 -11.158  -0.148  0.00  0.00     0.026 C 
BRANCH  17  18
ATOM     18  C2  NON d   1      -0.628 -12.019   1.065  0.00  0.00    -0.002 C 
ATOM     19  C1  NON d   1       0.856 -12.023   1.387  0.00  0.00     0.005 C 
ENDBRANCH  17  18
ENDBRANCH  16  17
ENDBRANCH  15  16
ENDBRANCH  14  15
ENDBRANCH   6   9
ENDBRANCH   3   5
ENDBRANCH   1   3
BRANCH   1  20
ATOM     20  N3  NON d   1       8.230  -8.042   0.066  0.00  0.00    -0.264 N 
ATOM     21  C13 NON d   1       9.376  -7.240   0.040  0.00  0.00     0.270 C 
ATOM     22  O3  NON d   1       9.285  -6.012   0.018  0.00  0.00    -0.266 OA
ATOM     23  H16 NON d   1       8.249  -9.059   0.091  0.00  0.00     0.190 HD
BRANCH  21  24
ATOM     24  C14 NON d   1      10.771  -7.901   0.038  0.00  0.00     0.033 A 
ATOM     25  C15 NON d   1      11.923  -7.089   0.056  0.00  0.00     0.019 A 
ATOM     26  C16 NON d   1      13.255  -7.622   0.054  0.00  0.00     0.030 A 
ATOM     27  C17 NON d   1      13.499  -8.997   0.029  0.00  0.00     0.034 A 
ATOM     28  C21 NON d   1      12.346  -9.811   0.006  0.00  0.00     0.030 A 
ATOM     29  C22 NON d   1      11.011  -9.282   0.012  0.00  0.00     0.019 A 
BRANCH  27  30
ATOM     30  N4  NON d   1      14.810  -9.623   0.014  0.00  0.00    -0.327 N 
ATOM     31  C18 NON d   1      16.081  -9.020   0.080  0.00  0.00     0.221 C 
ATOM     32  O4  NON d   1      16.251  -7.806   0.201  0.00  0.00    -0.273 OA
ATOM     33  H19 NON d   1      14.806 -10.637  -0.032  0.00  0.00     0.169 HD
BRANCH  31  34
ATOM     34  C19 NON d   1      17.338 -10.010   0.000  0.00  0.00     0.098 C 
ATOM     35  C20 NON d   1      18.672  -9.240   0.000  0.00  0.00     0.014 C 
ENDBRANCH  31  34
ENDBRANCH  27  30
ENDBRANCH  21  24
ENDBRANCH   1  20
TORSDOF 11
