REMARK  12 active torsions:
REMARK  status: ('A' for Active; 'I' for Inactive)
REMARK    1  A    between atoms: C2_2  and  O1_3 
REMARK    2  A    between atoms: O1_3  and  C3_4 
REMARK    3  A    between atoms: C5_6  and  C6_7 
REMARK    4  A    between atoms: C6_7  and  N1_8 
REMARK    5  A    between atoms: N1_8  and  C7_9 
REMARK    6  A    between atoms: C7_9  and  C8_10 
REMARK    7  A    between atoms: C8_10  and  N2_11 
REMARK       I    between atoms: N2_11  and  C9_12 
REMARK    8  A    between atoms: C9_12  and  C10_14 
REMARK    9  A    between atoms: C11_18  and  N5_19 
REMARK   10  A    between atoms: C14_22  and  O4_23 
REMARK   11  A    between atoms: O4_23  and  C15_24 
REMARK   12  A    between atoms: C15_24  and  C16_25 
ROOT
ATOM      1  C3  NON d   1      -4.333 -10.179   0.152  0.00  0.00     0.102 A 
ATOM      2  C4  NON d   1      -3.128  -9.440   0.186  0.00  0.00     0.048 A 
ATOM      3  C5  NON d   1      -1.859 -10.051   0.171  0.00  0.00    -0.030 A 
ATOM      4  C12 NON d   1      -1.824 -11.446   0.118  0.00  0.00     0.012 A 
ATOM      5  C13 NON d   1      -3.009 -12.199   0.080  0.00  0.00     0.040 A 
ATOM      6  C14 NON d   1      -4.280 -11.598   0.099  0.00  0.00     0.102 A 
ENDROOT
BRANCH   3   7
ATOM      7  C6  NON d   1      -0.631  -9.165   0.170  0.00  0.00     0.271 C 
BRANCH   7   8
ATOM      8  N1  NON d   1       0.678  -9.891   0.261  0.00  0.00    -0.070 N 
ATOM      9  H9  NON d   1       0.645 -10.654  -0.424  0.00  0.00     0.277 HD
ATOM     10  H10 NON d   1       0.740 -10.331   1.190  0.00  0.00     0.277 HD
BRANCH   8  11
ATOM     11  C7  NON d   1       1.926  -9.109  -0.036  0.00  0.00     0.252 C 
BRANCH  11  12
ATOM     12  C8  NON d   1       2.492  -8.385   1.189  0.00  0.00     0.150 C 
BRANCH  12  13
ATOM     13  N2  NON d   1       1.677  -7.286   1.662  0.00  0.00    -0.354 N 
ATOM     14  C9  NON d   1       2.061  -6.617   2.826  0.00  0.00     0.276 C 
ATOM     15  O2  NON d   1       2.910  -7.072   3.587  0.00  0.00    -0.266 OA
ATOM     16  H15 NON d   1       1.213  -6.663   1.002  0.00  0.00     0.162 HD
BRANCH  14  17
ATOM     17  C10 NON d   1       1.410  -5.328   3.011  0.00  0.00     0.201 A 
ATOM     18  N3  NON d   1       0.468  -4.901   2.153  0.00  0.00    -0.096 NA
ATOM     19  O3  NON d   1       0.087  -3.654   2.642  0.00  0.00    -0.104 OA
ATOM     20  N4  NON d   1       0.812  -3.314   3.773  0.00  0.00    -0.085 NA
ATOM     21  C11 NON d   1       1.626  -4.342   4.001  0.00  0.00     0.188 A 
BRANCH  21  22
ATOM     22  N5  NON d   1       2.513  -4.399   5.010  0.00  0.00    -0.380 N 
ATOM     23  H16 NON d   1       3.224  -5.122   5.081  0.00  0.00     0.158 HD
ATOM     24  H17 NON d   1       2.677  -3.577   5.584  0.00  0.00     0.158 HD
ENDBRANCH  21  22
ENDBRANCH  14  17
ENDBRANCH  12  13
ENDBRANCH  11  12
ENDBRANCH   8  11
ENDBRANCH   7   8
ENDBRANCH   3   7
BRANCH   1  25
ATOM     25  O1  NON d   1      -5.441  -9.335   0.177  0.00  0.00    -0.349 OA
BRANCH  25  26
ATOM     26  C2  NON d   1      -6.668 -10.010   0.000  0.00  0.00     0.171 C 
ATOM     27  C1  NON d   1      -8.002  -9.240   0.000  0.00  0.00     0.034 C 
ENDBRANCH  25  26
ENDBRANCH   1  25
BRANCH   6  28
ATOM     28  O4  NON d   1      -5.443 -12.353   0.074  0.00  0.00    -0.344 OA
BRANCH  28  29
ATOM     29  C15 NON d   1      -5.335 -13.782   0.018  0.00  0.00     0.216 C 
BRANCH  29  30
ATOM     30  C16 NON d   1      -6.590 -14.660   0.025  0.00  0.00    -0.012 A 
ATOM     31  C17 NON d   1      -6.340 -16.055   0.053  0.00  0.00     0.013 A 
ATOM     32  C18 NON d   1      -7.376 -16.998   0.056  0.00  0.00     0.024 A 
ATOM     33  C19 NON d   1      -8.693 -16.573   0.030  0.00  0.00     0.035 A 
ATOM     34 Cl1  NON d   1      -9.976 -17.714   0.032  0.00  0.00    -0.084 Cl
ATOM     35  C20 NON d   1      -8.976 -15.215  -0.003  0.00  0.00     0.048 A 
ATOM     36  C21 NON d   1      -7.936 -14.270  -0.009  0.00  0.00     0.044 A 
ATOM     37 Cl2  NON d   1      -8.467 -12.650  -0.073  0.00  0.00    -0.084 Cl
ENDBRANCH  29  30
ENDBRANCH  28  29
ENDBRANCH   6  28
TORSDOF 12
