REMARK  12 active torsions:
REMARK  status: ('A' for Active; 'I' for Inactive)
REMARK    1  A    between atoms: C2_2  and  C3_3 
REMARK    2  A    between atoms: C3_3  and  C4_4 
REMARK    3  A    between atoms: C4_4  and  O1_5 
REMARK    4  A    between atoms: O1_5  and  C5_6 
REMARK    5  A    between atoms: C10_11  and  C11_12 
REMARK       I    between atoms: C11_12  and  N1_14 
REMARK    6  A    between atoms: N1_14  and  C12_15 
REMARK    7  A    between atoms: C12_15  and  N2_17 
REMARK    8  A    between atoms: N2_17  and  C13_18 
REMARK    9  A    between atoms: C18_23  and  C19_24 
REMARK       I    between atoms: C19_24  and  N3_26 
REMARK   10  A    between atoms: N3_26  and  C20_27 
REMARK   11  A    between atoms: C20_27  and  C21_28 
REMARK   12  A    between atoms: C21_28  and  C22_29 
ROOT
ATOM      1  N2  NON d   1       1.437  -2.178  -0.242  0.00  0.00    -0.332 N 
ATOM      2  H15 NON d   1       2.309  -2.685  -0.391  0.00  0.00     0.168 HD
ENDROOT
BRANCH   1   3
ATOM      3  C12 NON d   1       1.584  -0.820  -0.416  0.00  0.00     0.179 C 
ATOM      4  S1  NON d   1       0.447   0.386  -0.663  0.00  0.00    -0.040 SA
BRANCH   3   5
ATOM      5  N1  NON d   1       2.884  -0.344  -0.435  0.00  0.00    -0.299 N 
ATOM      6  C11 NON d   1       4.125  -0.929  -0.168  0.00  0.00     0.260 C 
ATOM      7  O2  NON d   1       4.250  -2.092   0.191  0.00  0.00    -0.267 OA
ATOM      8  H14 NON d   1       2.887   0.628  -0.709  0.00  0.00     0.171 HD
BRANCH   6   9
ATOM      9  C10 NON d   1       5.287   0.004  -0.366  0.00  0.00     0.065 C 
ATOM     10  C9  NON d   1       5.122   1.378  -0.079  0.00  0.00     0.020 C 
ATOM     11  C8  NON d   1       6.110   2.306  -0.423  0.00  0.00     0.001 C 
ATOM     12  C7  NON d   1       7.264   1.884  -1.066  0.00  0.00     0.003 C 
ATOM     13  C6  NON d   1       7.465   0.524  -1.304  0.00  0.00     0.038 C 
ATOM     14  C5  NON d   1       6.512  -0.423  -0.894  0.00  0.00     0.084 C 
BRANCH  14  15
ATOM     15  O1  NON d   1       6.843  -1.740  -1.080  0.00  0.00    -0.350 OA
BRANCH  15  16
ATOM     16  C4  NON d   1       7.490  -2.276   0.097  0.00  0.00     0.175 C 
BRANCH  16  17
ATOM     17  C3  NON d   1       9.030  -2.175   0.028  0.00  0.00     0.026 C 
BRANCH  17  18
ATOM     18  C2  NON d   1       9.677  -1.361   1.164  0.00  0.00    -0.002 C 
ATOM     19  C1  NON d   1       8.755  -0.170   1.482  0.00  0.00     0.005 C 
ENDBRANCH  17  18
ENDBRANCH  16  17
ENDBRANCH  15  16
ENDBRANCH  14  15
ENDBRANCH   6   9
ENDBRANCH   3   5
ENDBRANCH   1   3
BRANCH   1  20
ATOM     20  C13 NON d   1       0.273  -2.994  -0.074  0.00  0.00     0.050 A 
ATOM     21  C14 NON d   1      -0.991  -2.446   0.214  0.00  0.00     0.030 A 
ATOM     22  C15 NON d   1      -2.151  -3.228   0.319  0.00  0.00     0.002 A 
ATOM     23  C16 NON d   1      -2.075  -4.601   0.186  0.00  0.00     0.001 A 
ATOM     24  C17 NON d   1      -0.837  -5.181  -0.057  0.00  0.00     0.019 A 
ATOM     25  C18 NON d   1       0.338  -4.401  -0.195  0.00  0.00     0.058 A 
BRANCH  25  26
ATOM     26  C19 NON d   1       1.536  -5.208  -0.558  0.00  0.00     0.253 C 
ATOM     27  O3  NON d   1       1.379  -6.210  -1.255  0.00  0.00    -0.268 OA
ATOM     28  N3  NON d   1       2.766  -4.859  -0.041  0.00  0.00    -0.356 N 
ATOM     29  H20 NON d   1       2.821  -4.178   0.709  0.00  0.00     0.162 HD
BRANCH  28  30
ATOM     30  C20 NON d   1       3.877  -5.803  -0.150  0.00  0.00     0.127 C 
BRANCH  30  31
ATOM     31  C21 NON d   1       5.211  -5.111  -0.414  0.00  0.00     0.058 C 
BRANCH  31  32
ATOM     32  C22 NON d   1       6.440  -5.997  -0.503  0.00  0.00    -0.057 A 
ATOM     33  C23 NON d   1       7.548  -5.547  -1.242  0.00  0.00     0.007 A 
ATOM     34  C24 NON d   1       8.765  -6.233  -1.213  0.00  0.00     0.001 A 
ATOM     35  C25 NON d   1       8.882  -7.404  -0.472  0.00  0.00     0.000 A 
ATOM     36  C26 NON d   1       7.782  -7.888   0.232  0.00  0.00     0.001 A 
ATOM     37  C27 NON d   1       6.572  -7.186   0.225  0.00  0.00     0.007 A 
ENDBRANCH  31  32
ENDBRANCH  30  31
ENDBRANCH  28  30
ENDBRANCH  25  26
ENDBRANCH   1  20
TORSDOF 12
