@<TRIPOS>MOLECULE
*****
 52 55 0 0 0
SMALL
USER_CHARGES

@<TRIPOS>ATOM
      1 O1          6.9152   -6.0025    0.5728 O.2     1  NONAME1    -0.2513
      2 C1          6.8090   -7.1482    0.1387 C.2     1  NONAME1     0.3162
      3 N1          5.6170   -7.8440    0.0624 N.am    1  NONAME1    -0.2941
      4 C2          4.4458   -6.9943    0.1344 C.3     1  NONAME1     0.0389
      5 C3          3.0645   -7.6020    0.0913 C.ar    1  NONAME1    -0.0226
      6 C4          2.9607   -9.0146    0.1466 C.ar    1  NONAME1    -0.0565
      7 C5          1.7358   -9.6639    0.0548 C.ar    1  NONAME1    -0.0614
      8 C6          0.5872   -8.9139   -0.0981 C.ar    1  NONAME1    -0.0612
      9 C7          0.6652   -7.5153   -0.1309 C.ar    1  NONAME1    -0.0537
     10 C8          1.8815   -6.7888   -0.0091 C.ar    1  NONAME1    -0.0132
     11 C9          1.8173   -5.2575    0.0059 C.ar    1  NONAME1    -0.0176
     12 C10         0.5952   -4.5608    0.1373 C.ar    1  NONAME1    -0.0537
     13 C11         0.4967   -3.1505    0.1140 C.ar    1  NONAME1    -0.0562
     14 C12         1.6249   -2.3316   -0.0169 C.ar    1  NONAME1    -0.0261
     15 C13         1.4224   -0.8343   -0.1034 C.3     1  NONAME1     0.0665
     16 N2          2.5495    0.1113   -0.0270 N.ar    1  NONAME1    -0.2671
     17 C14         2.3906    1.4743    0.1003 C.ar    1  NONAME1     0.0258
     18 C15         3.6499    2.0229    0.0601 C.ar    1  NONAME1    -0.0242
     19 C16         4.5073    0.9265   -0.1106 C.ar    1  NONAME1     0.0494
     20 N3          3.8440   -0.2263   -0.1929 N.ar    1  NONAME1    -0.1794
     21 C17         2.8360   -2.9929   -0.1208 C.ar    1  NONAME1    -0.0562
     22 C18         2.9208   -4.3980   -0.1059 C.ar    1  NONAME1    -0.0537
     23 N4          7.8634   -7.8191   -0.4428 N.am    1  NONAME1    -0.2192
     24 N5          9.0578   -7.0558   -0.5375 N.pl3   1  NONAME1    -0.2472
     25 C19        10.2236   -7.7902   -0.2238 C.ar    1  NONAME1     0.1348
     26 C20        11.4343   -7.0998   -0.1877 C.ar    1  NONAME1    -0.0205
     27 C21        12.6159   -7.8013    0.0303 C.ar    1  NONAME1    -0.0570
     28 C22        12.5623   -9.1771    0.1991 C.ar    1  NONAME1    -0.0435
     29 C23        11.3216   -9.7904    0.1470 C.ar    1  NONAME1     0.0297
     30 N6         10.1567   -9.1334   -0.0597 N.ar    1  NONAME1    -0.2391
     31 H1          5.6189   -8.5210   -0.6870 H       1  NONAME1     0.1506
     32 H2          4.5478   -6.4005   -0.7789 H       1  NONAME1     0.0512
     33 H3          4.5326   -6.3856    1.0410 H       1  NONAME1     0.0512
     34 H4          3.8494   -9.6304    0.2664 H       1  NONAME1     0.0621
     35 H5          1.6831  -10.7484    0.0938 H       1  NONAME1     0.0618
     36 H6         -0.3787   -9.4052   -0.1873 H       1  NONAME1     0.0618
     37 H7         -0.2843   -7.0069   -0.2688 H       1  NONAME1     0.0624
     38 H8         -0.3456   -5.0866    0.2686 H       1  NONAME1     0.0624
     39 H9         -0.4939   -2.7048    0.1940 H       1  NONAME1     0.0621
     40 H10         0.9253   -0.6048   -1.0541 H       1  NONAME1     0.0558
     41 H11         0.7575   -0.5348    0.7178 H       1  NONAME1     0.0558
     42 H12         1.4118    1.9210    0.2000 H       1  NONAME1     0.0826
     43 H13         3.9134    3.0676    0.1337 H       1  NONAME1     0.0648
     44 H14         5.5868    0.9171   -0.1911 H       1  NONAME1     0.0848
     45 H15         3.7781   -2.4638   -0.2278 H       1  NONAME1     0.0621
     46 H16         3.9407   -4.7305   -0.1960 H       1  NONAME1     0.0624
     47 H17         8.0213   -8.7945   -0.1946 H       1  NONAME1     0.1743
     48 H18         8.9874   -6.2163    0.0491 H       1  NONAME1     0.1716
     49 H19        11.4612   -6.0275   -0.3505 H       1  NONAME1     0.0652
     50 H20        13.5692   -7.2792    0.0525 H       1  NONAME1     0.0619
     51 H21        13.4645   -9.7583    0.3564 H       1  NONAME1     0.0633
     52 H22        11.2304  -10.8663    0.2661 H       1  NONAME1     0.0830
@<TRIPOS>BOND
     1     1     2    2
     2     2     3   am
     3     3     4    1
     4     4     5    1
     5     5     6   ar
     6     6     7   ar
     7     7     8   ar
     8     8     9   ar
     9     9    10   ar
    10     5    10   ar
    11    10    11    1
    12    11    12   ar
    13    12    13   ar
    14    13    14   ar
    15    14    15    1
    16    15    16    1
    17    16    17   ar
    18    17    18   ar
    19    18    19   ar
    20    19    20   ar
    21    16    20   ar
    22    14    21   ar
    23    21    22   ar
    24    11    22   ar
    25     2    23   am
    26    23    24    1
    27    24    25    1
    28    25    26   ar
    29    26    27   ar
    30    27    28   ar
    31    28    29   ar
    32    29    30   ar
    33    25    30   ar
    34     3    31    1
    35     4    32    1
    36     4    33    1
    37     6    34    1
    38     7    35    1
    39     8    36    1
    40     9    37    1
    41    12    38    1
    42    13    39    1
    43    15    40    1
    44    15    41    1
    45    17    42    1
    46    18    43    1
    47    19    44    1
    48    21    45    1
    49    22    46    1
    50    23    47    1
    51    24    48    1
    52    26    49    1
    53    27    50    1
    54    28    51    1
    55    29    52    1
