REMARK  9 active torsions:
REMARK  status: ('A' for Active; 'I' for Inactive)
REMARK       I    between atoms: C1_2  and  N1_3 
REMARK    1  A    between atoms: C1_2  and  C14_23 
REMARK    2  A    between atoms: N1_3  and  N2_4 
REMARK    3  A    between atoms: C2_5  and  C3_6 
REMARK    4  A    between atoms: C11_17  and  C2_5 
REMARK    5  A    between atoms: C11_17  and  O3_18 
REMARK    6  A    between atoms: C11_17  and  C12_19 
REMARK    7  A    between atoms: C12_19  and  O4_20 
REMARK    8  A    between atoms: C12_19  and  C13_21 
REMARK    9  A    between atoms: C13_21  and  O5_22 
ROOT
ATOM      1  N2  NON d   1      -1.399  -0.805  -0.109  0.00  0.00    -0.171 NA
ATOM      2  C2  NON d   1      -0.197  -0.282  -0.004  0.00  0.00     0.120 C 
ENDROOT
BRANCH   2   3
ATOM      3  C3  NON d   1       1.251  -1.265   0.137  0.00  0.00     0.154 C 
ATOM      4  N3  NON d   1       2.381  -0.636   0.400  0.00  0.00    -0.239 NA
ATOM      5  C4  NON d   1       3.639  -1.239   0.305  0.00  0.00     0.084 A 
ATOM      6  C5  NON d   1       4.783  -0.436   0.325  0.00  0.00     0.034 A 
ATOM      7  C9  NON d   1       3.786  -2.608   0.112  0.00  0.00     0.064 A 
ATOM      8  C6  NON d   1       6.053  -1.002   0.191  0.00  0.00     0.002 A 
ATOM      9  C7  NON d   1       6.187  -2.383   0.045  0.00  0.00     0.002 A 
ATOM     10  C8  NON d   1       5.049  -3.192   0.007  0.00  0.00     0.032 A 
ATOM     11  N4  NON d   1       2.633  -3.368  -0.017  0.00  0.00    -0.320 N 
ATOM     12  C10 NON d   1       1.375  -2.806  -0.052  0.00  0.00     0.277 C 
ATOM     13  H6  NON d   1       2.682  -4.368  -0.152  0.00  0.00     0.169 HD
ATOM     14  O2  NON d   1       0.410  -3.534  -0.204  0.00  0.00    -0.266 OA
ENDBRANCH   2   3
BRANCH   2  15
ATOM     15  C11 NON d   1       0.000   1.540   0.000  0.00  0.00     0.205 C 
BRANCH  15  16
ATOM     16  O3  NON d   1       0.173   1.685   1.549  0.00  0.00    -0.387 OA
ATOM     17  H8  NON d   1       1.135   1.742   1.696  0.00  0.00     0.210 HD
ENDBRANCH  15  16
BRANCH  15  18
ATOM     18  C12 NON d   1      -1.334   2.310   0.000  0.00  0.00     0.176 C 
BRANCH  18  19
ATOM     19  O4  NON d   1      -1.537   2.861  -1.401  0.00  0.00    -0.390 OA
ATOM     20  H10 NON d   1      -2.012   3.702  -1.270  0.00  0.00     0.210 HD
ENDBRANCH  18  19
BRANCH  18  21
ATOM     21  C13 NON d   1      -2.667   1.540   0.018  0.00  0.00     0.198 C 
BRANCH  21  22
ATOM     22  O5  NON d   1      -2.917   0.863   1.240  0.00  0.00    -0.398 OA
ATOM     23  H13 NON d   1      -2.450   0.007   1.159  0.00  0.00     0.209 HD
ENDBRANCH  21  22
ENDBRANCH  18  21
ENDBRANCH  15  18
ENDBRANCH   2  15
BRANCH   1  24
ATOM     24  N1  NON d   1      -1.607  -2.144  -0.166  0.00  0.00    -0.242 N 
ATOM     25  C1  NON d   1      -2.789  -2.849  -0.303  0.00  0.00     0.273 C 
ATOM     26  O1  NON d   1      -2.780  -4.080  -0.341  0.00  0.00    -0.266 OA
ATOM     27  H1  NON d   1      -0.839  -2.805  -0.150  0.00  0.00     0.192 HD
BRANCH  25  28
ATOM     28  C14 NON d   1      -4.094  -2.187  -0.317  0.00  0.00     0.055 A 
ATOM     29  C15 NON d   1      -5.026  -2.645   0.630  0.00  0.00     0.019 A 
ATOM     30  C16 NON d   1      -6.310  -2.109   0.671  0.00  0.00     0.001 A 
ATOM     31  C17 NON d   1      -6.662  -1.101  -0.222  0.00  0.00     0.002 A 
ATOM     32  C18 NON d   1      -5.756  -0.687  -1.203  0.00  0.00     0.025 A 
ATOM     33  C19 NON d   1      -4.486  -1.269  -1.288  0.00  0.00     0.049 A 
ATOM     34 Cl1  NON d   1      -3.531  -0.923  -2.688  0.00  0.00    -0.083 Cl
ENDBRANCH  25  28
ENDBRANCH   1  24
TORSDOF 9
