@<TRIPOS>MOLECULE
*****
 62 64 0 0 0
SMALL
USER_CHARGES

@<TRIPOS>ATOM
      1 C1         -8.0022   -7.7001   -0.0183 C.3     1  NONAME1    -0.0624
      2 C2         -8.0021   -9.2400    0.0000 C.3     1  NONAME1    -0.0427
      3 C3         -8.7220   -9.8762    1.2865 C.3     1  NONAME1    -0.0624
      4 C4         -6.6684  -10.0100    0.0000 C.3     1  NONAME1    -0.0253
      5 C5         -6.7857  -11.5677    0.0330 C.ar    1  NONAME1    -0.0471
      6 C6         -5.8773  -12.3009    0.8021 C.ar    1  NONAME1    -0.0583
      7 C7         -5.9807  -13.7080    0.9406 C.ar    1  NONAME1    -0.0576
      8 C8         -6.9113  -14.5039    0.1946 C.ar    1  NONAME1    -0.0357
      9 C9         -6.6684  -16.1700    0.0000 C.3     1  NONAME1     0.0594
     10 C10        -5.3347  -16.9400    0.0000 C.3     1  NONAME1    -0.0500
     11 C11        -8.0021  -16.9400    0.0000 C.2     1  NONAME1     0.2393
     12 O1         -9.0773  -16.3288    0.0324 O.2     1  NONAME1    -0.2734
     13 N1         -8.0065  -18.3369   -0.0230 N.am    1  NONAME1    -0.2065
     14 N2         -9.2347  -19.0134   -0.0067 N.2     1  NONAME1    -0.1877
     15 C12        -9.1859  -20.3109   -0.0422 C.2     1  NONAME1     0.0528
     16 C13       -10.3795  -21.2177   -0.0253 C.ar    1  NONAME1    -0.0052
     17 C14       -10.1487  -22.5946   -0.1262 C.ar    1  NONAME1    -0.0496
     18 C15       -11.2082  -23.5314   -0.1100 C.ar    1  NONAME1    -0.0187
     19 C16       -12.5269  -23.1300    0.0633 C.ar    1  NONAME1     0.1286
     20 O2        -13.6770  -23.8831    0.1849 O.3     1  NONAME1    -0.4537
     21 C17       -13.8669  -25.2460    0.1020 C.ar    1  NONAME1     0.1586
     22 C18       -12.8859  -26.2362    0.2022 C.ar    1  NONAME1    -0.0149
     23 C19       -13.1936  -27.6094    0.1122 C.ar    1  NONAME1    -0.0279
     24 C20       -14.5180  -28.0296   -0.0281 C.ar    1  NONAME1     0.1286
     25 N3        -14.8336  -29.4696   -0.0932 N.pl3   1  NONAME1     0.0565
     26 O3        -13.8784  -30.2542   -0.0823 O.2     1  NONAME1    -0.1261
     27 O4        -16.0218  -29.8042   -0.1389 O.2     1  NONAME1    -0.1261
     28 C21       -15.5365  -27.0850   -0.0759 C.ar    1  NONAME1     0.0024
     29 C22       -15.2044  -25.7132   -0.0083 C.ar    1  NONAME1     0.1703
     30 N4        -16.3306  -24.7795   -0.0018 N.pl3   1  NONAME1     0.0601
     31 O5        -16.2380  -23.7468   -0.6730 O.2     1  NONAME1    -0.1260
     32 O6        -17.3340  -25.1223    0.6406 O.2     1  NONAME1    -0.1260
     33 C23       -12.7523  -21.7374    0.1328 C.ar    1  NONAME1    -0.0187
     34 C24       -11.6995  -20.7876    0.0820 C.ar    1  NONAME1    -0.0496
     35 C25        -7.8194  -13.7606   -0.5790 C.ar    1  NONAME1    -0.0576
     36 C26        -7.7727  -12.3254   -0.6333 C.ar    1  NONAME1    -0.0583
     37 H1         -7.2931   -7.6104   -0.8665 H       1  NONAME1     0.0232
     38 H2         -8.0022   -6.1602   -0.0366 H       1  NONAME1     0.0232
     39 H3         -7.4505   -7.5803    0.9386 H       1  NONAME1     0.0232
     40 H4         -9.3358   -8.4700    0.0000 H       1  NONAME1     0.0299
     41 H5         -9.1118   -9.0989    1.9541 H       1  NONAME1     0.0232
     42 H6         -9.5676  -10.4866    0.9416 H       1  NONAME1     0.0232
     43 H7         -8.0848  -10.5031    1.9156 H       1  NONAME1     0.0232
     44 H8         -6.0606   -9.6826    0.8536 H       1  NONAME1     0.0316
     45 H9         -6.1100   -9.7612   -0.9104 H       1  NONAME1     0.0316
     46 H10        -5.0559  -11.7880    1.3000 H       1  NONAME1     0.0620
     47 H11        -5.2104  -14.1857    1.5484 H       1  NONAME1     0.0621
     48 H12        -5.3347  -15.4000    0.0000 H       1  NONAME1     0.0441
     49 H13        -5.6037  -17.6291   -0.8240 H       1  NONAME1     0.0240
     50 H14        -4.0010  -17.7100    0.0000 H       1  NONAME1     0.0240
     51 H15        -5.4940  -17.4149    0.9904 H       1  NONAME1     0.0240
     52 H16        -7.1549  -18.8792   -0.0159 H       1  NONAME1     0.1772
     53 H17        -8.2093  -20.8234   -0.0884 H       1  NONAME1     0.0851
     54 H18        -9.1335  -22.9725   -0.2254 H       1  NONAME1     0.0625
     55 H19       -10.9099  -24.5562   -0.2498 H       1  NONAME1     0.0654
     56 H20       -11.8495  -26.0189    0.4039 H       1  NONAME1     0.0656
     57 H21       -12.3811  -28.3334    0.1779 H       1  NONAME1     0.0641
     58 H22       -16.5789  -27.3983   -0.1530 H       1  NONAME1     0.0664
     59 H23       -13.7776  -21.3734    0.2217 H       1  NONAME1     0.0654
     60 H24       -11.9313  -19.7250    0.1350 H       1  NONAME1     0.0625
     61 H25        -8.5879  -14.2669   -1.1606 H       1  NONAME1     0.0621
     62 H26        -8.5383  -11.8168   -1.2177 H       1  NONAME1     0.0620
@<TRIPOS>BOND
     1     1     2    1
     2     2     3    1
     3     2     4    1
     4     4     5    1
     5     5     6   ar
     6     6     7   ar
     7     7     8   ar
     8     9     8    1
     9     9    10    1
    10     9    11    1
    11    11    12    2
    12    11    13   am
    13    13    14    1
    14    14    15    2
    15    15    16    1
    16    16    17   ar
    17    17    18   ar
    18    18    19   ar
    19    19    20    1
    20    20    21    1
    21    21    22   ar
    22    22    23   ar
    23    23    24   ar
    24    24    25    1
    25    25    26    2
    26    25    27    1
    27    24    28   ar
    28    28    29   ar
    29    21    29   ar
    30    29    30    1
    31    30    31    2
    32    30    32    1
    33    19    33   ar
    34    33    34   ar
    35    16    34   ar
    36     8    35   ar
    37    35    36   ar
    38     5    36   ar
    39     1    37    1
    40     1    38    1
    41     1    39    1
    42     2    40    1
    43     3    41    1
    44     3    42    1
    45     3    43    1
    46     4    44    1
    47     4    45    1
    48     6    46    1
    49     7    47    1
    50     9    48    1
    51    10    49    1
    52    10    50    1
    53    10    51    1
    54    13    52    1
    55    15    53    1
    56    17    54    1
    57    18    55    1
    58    22    56    1
    59    23    57    1
    60    28    58    1
    61    33    59    1
    62    34    60    1
    63    35    61    1
    64    36    62    1
