REMARK  10 active torsions:
REMARK  status: ('A' for Active; 'I' for Inactive)
REMARK    1  A    between atoms: C2_2  and  N1_3 
REMARK    2  A    between atoms: N1_3  and  C3_4 
REMARK    3  A    between atoms: N1_3  and  C5_6 
REMARK    4  A    between atoms: C8_9  and  N2_10 
REMARK       I    between atoms: N2_10  and  C9_11 
REMARK    5  A    between atoms: C9_11  and  C10_13 
REMARK    6  A    between atoms: C10_13  and  S1_14 
REMARK    7  A    between atoms: S1_14  and  C11_15 
REMARK    8  A    between atoms: C12_18  and  N5_19 
REMARK    9  A    between atoms: N6_20  and  N5_19 
REMARK   10  A    between atoms: C13_21  and  C15_23 
ROOT
ATOM      1  C11 NON d   1      -4.017  -9.124   1.252  0.00  0.00     0.228 A 
ATOM      2  N3  NON d   1      -4.618  -8.961   2.442  0.00  0.00    -0.106 NA
ATOM      3  N4  NON d   1      -3.904  -9.691   3.344  0.00  0.00     0.048 NA
ATOM      4  C12 NON d   1      -2.905 -10.262   2.662  0.00  0.00     0.762 A 
ATOM      5  N7  NON d   1      -2.920  -9.900   1.372  0.00  0.00    -0.032 NA
ENDROOT
BRANCH   1   6
ATOM      6  S1  NON d   1      -4.457  -8.283  -0.219  0.00  0.00    -0.079 SA
BRANCH   6   7
ATOM      7  C10 NON d   1      -6.045  -7.521   0.251  0.00  0.00     0.185 C 
BRANCH   7   8
ATOM      8  C9  NON d   1      -7.246  -8.450   0.030  0.00  0.00     0.231 C 
ATOM      9  N2  NON d   1      -8.472  -7.782   0.139  0.00  0.00    -0.327 N 
ATOM     10  H13 NON d   1      -8.442  -6.772   0.219  0.00  0.00     0.169 HD
ATOM     11  O1  NON d   1      -7.129  -9.634  -0.268  0.00  0.00    -0.272 OA
BRANCH   9  12
ATOM     12  C8  NON d   1      -9.761  -8.367   0.067  0.00  0.00     0.034 A 
ATOM     13  C7  NON d   1     -10.886  -7.555  -0.057  0.00  0.00     0.032 A 
ATOM     14  C6  NON d   1     -12.200  -8.105  -0.129  0.00  0.00     0.031 A 
ATOM     15  C5  NON d   1     -12.477  -9.478  -0.032  0.00  0.00     0.030 A 
ATOM     16  C22 NON d   1     -11.299 -10.253   0.092  0.00  0.00     0.031 A 
ATOM     17  C21 NON d   1      -9.987  -9.729   0.136  0.00  0.00     0.032 A 
BRANCH  15  18
ATOM     18  N1  NON d   1     -13.755 -10.076  -0.066  0.00  0.00    -0.382 N 
BRANCH  18  19
ATOM     19  C2  NON d   1     -13.742 -11.565  -0.116  0.00  0.00     0.118 C 
ATOM     20  C1  NON d   1     -15.088 -12.268  -0.190  0.00  0.00     0.026 C 
ENDBRANCH  18  19
BRANCH  18  21
ATOM     21  C3  NON d   1     -15.121  -9.446   0.000  0.00  0.00     0.118 C 
ATOM     22  C4  NON d   1     -15.121  -7.906   0.000  0.00  0.00     0.026 C 
ENDBRANCH  18  21
ENDBRANCH  15  18
ENDBRANCH   9  12
ENDBRANCH   7   8
ENDBRANCH   6   7
ENDBRANCH   1   6
BRANCH   4  23
ATOM     23  N5  NON d   1      -1.977 -11.089   3.255  0.00  0.00    -0.127 N 
ATOM     24  H16 NON d   1      -2.072 -11.121   4.262  0.00  0.00     0.206 HD
BRANCH  23  25
ATOM     25  N6  NON d   1      -1.019 -11.568   2.583  0.00  0.00    -0.290 N 
ATOM     26  C13 NON d   1      -0.154 -12.441   2.988  0.00  0.00     0.032 C 
ATOM     27  C14 NON d   1       1.038 -12.562   2.050  0.00  0.00     0.070 C 
ATOM     28  H17 NON d   1      -0.953 -11.173   1.625  0.00  0.00     0.187 HD
BRANCH  26  29
ATOM     29  C15 NON d   1      -0.191 -13.306   4.230  0.00  0.00    -0.013 A 
ATOM     30  C16 NON d   1      -1.333 -13.456   5.032  0.00  0.00     0.013 A 
ATOM     31  C17 NON d   1      -1.307 -14.242   6.193  0.00  0.00     0.001 A 
ATOM     32  C18 NON d   1      -0.161 -14.945   6.542  0.00  0.00     0.000 A 
ATOM     33  C19 NON d   1       0.960 -14.868   5.727  0.00  0.00     0.001 A 
ATOM     34  C20 NON d   1       0.948 -14.054   4.586  0.00  0.00     0.013 A 
ENDBRANCH  26  29
ENDBRANCH  23  25
ENDBRANCH   4  23
TORSDOF 10
