@<TRIPOS>MOLECULE
*****
 60 63 0 0 0
SMALL
USER_CHARGES

@<TRIPOS>ATOM
      1 C1          8.0021   -4.6200    0.0000 C.3     1  NONAME1    -0.0613
      2 C2          9.3358   -5.3900    0.0000 C.3     1  NONAME1    -0.0305
      3 C3          9.3646   -6.8956   -0.0332 C.ar    1  NONAME1    -0.0475
      4 C4         10.6326   -7.4909   -0.0178 C.ar    1  NONAME1    -0.0568
      5 C5         10.7879   -8.8778   -0.0408 C.ar    1  NONAME1    -0.0402
      6 C6          9.6885   -9.7354   -0.0767 C.ar    1  NONAME1     0.0336
      7 N1          9.8060  -11.1344   -0.1130 N.pl3   1  NONAME1    -0.2835
      8 C7         10.9078  -11.9954   -0.0624 C.ar    1  NONAME1     0.2241
      9 N2         12.1447  -11.5112   -0.0149 N.ar    1  NONAME1    -0.1810
     10 C8         13.1264  -12.3873    0.0554 C.ar    1  NONAME1     0.2172
     11 N3         14.4156  -11.8944    0.1116 N.pl3   1  NONAME1    -0.3274
     12 N4         12.9731  -13.6948    0.0439 N.ar    1  NONAME1    -0.1983
     13 C9         11.7058  -14.1136    0.0069 C.ar    1  NONAME1     0.1501
     14 C10        11.5308  -15.6262    0.0955 C.3     1  NONAME1     0.0591
     15 N5         10.1415  -16.1217    0.1640 N.3     1  NONAME1    -0.2922
     16 C11         9.7172  -16.6999   -1.1258 C.3     1  NONAME1     0.0151
     17 C12         8.3070  -17.3409   -1.0948 C.3     1  NONAME1     0.0251
     18 N6          8.1393  -18.2939    0.0370 N.pl3   1  NONAME1    -0.3246
     19 C13         6.9366  -19.0430    0.0853 C.ar    1  NONAME1     0.0720
     20 C14         5.9689  -18.9486   -0.9395 C.ar    1  NONAME1    -0.0371
     21 C15         4.7626  -19.6646   -0.9166 C.ar    1  NONAME1    -0.0598
     22 C16         4.4719  -20.5094    0.1428 C.ar    1  NONAME1    -0.0582
     23 C17         5.4037  -20.6592    1.1596 C.ar    1  NONAME1    -0.0181
     24 C18         6.6277  -19.9708    1.1121 C.ar    1  NONAME1     0.1410
     25 O1          7.4748  -20.2738    2.1528 O.3     1  NONAME1    -0.4933
     26 C19         8.5161  -21.1483    1.7185 C.3     1  NONAME1     0.0789
     27 C20         8.5490  -17.6645    1.3188 C.3     1  NONAME1     0.0251
     28 C21         9.9993  -17.1467    1.2130 C.3     1  NONAME1     0.0151
     29 N7         10.6431  -13.2998   -0.0584 N.ar    1  NONAME1    -0.1979
     30 C22         8.4166   -9.1344   -0.1020 C.ar    1  NONAME1    -0.0402
     31 C23         8.2520   -7.7331   -0.0801 C.ar    1  NONAME1    -0.0568
     32 H1          8.4645   -3.6185    0.1224 H       1  NONAME1     0.0233
     33 H2          6.6684   -3.8500    0.0000 H       1  NONAME1     0.0233
     34 H3          7.6712   -4.9846    0.9948 H       1  NONAME1     0.0233
     35 H4          9.8866   -5.0547   -0.8898 H       1  NONAME1     0.0311
     36 H5          9.9097   -5.0771    0.8846 H       1  NONAME1     0.0311
     37 H6         11.5273   -6.8717    0.0142 H       1  NONAME1     0.0621
     38 H7         11.8035   -9.2550   -0.0265 H       1  NONAME1     0.0636
     39 H8          8.9529  -11.6731   -0.0823 H       1  NONAME1     0.1550
     40 H9         15.0669  -12.5726   -0.2562 H       1  NONAME1     0.1452
     41 H10        14.4461  -10.9612   -0.2735 H       1  NONAME1     0.1452
     42 H11        12.0816  -15.9259    0.9976 H       1  NONAME1     0.0507
     43 H12        12.0772  -16.0789   -0.7432 H       1  NONAME1     0.0507
     44 H13         9.7194  -15.9166   -1.8938 H       1  NONAME1     0.0442
     45 H14        10.4303  -17.4719   -1.4465 H       1  NONAME1     0.0442
     46 H15         7.5554  -16.5437   -1.0234 H       1  NONAME1     0.0476
     47 H16         8.1828  -17.8614   -2.0520 H       1  NONAME1     0.0476
     48 H17         6.1113  -18.2964   -1.7948 H       1  NONAME1     0.0637
     49 H18         4.0512  -19.5490   -1.7306 H       1  NONAME1     0.0618
     50 H19         3.5340  -21.0560    0.1714 H       1  NONAME1     0.0619
     51 H20         5.1963  -21.3302    1.9888 H       1  NONAME1     0.0655
     52 H21         8.2163  -21.7994    0.8895 H       1  NONAME1     0.0660
     53 H22         9.4003  -20.5674    1.4419 H       1  NONAME1     0.0660
     54 H23         8.7837  -21.7861    2.5672 H       1  NONAME1     0.0660
     55 H24         7.8708  -16.8354    1.5583 H       1  NONAME1     0.0476
     56 H25         8.5378  -18.3439    2.1693 H       1  NONAME1     0.0476
     57 H26        10.6734  -17.9925    1.0157 H       1  NONAME1     0.0442
     58 H27        10.2793  -16.7210    2.1840 H       1  NONAME1     0.0442
     59 H28         7.5244   -9.7558   -0.1360 H       1  NONAME1     0.0636
     60 H29         7.2463   -7.3218   -0.0986 H       1  NONAME1     0.0621
@<TRIPOS>BOND
     1     1     2    1
     2     2     3    1
     3     3     4   ar
     4     4     5   ar
     5     5     6   ar
     6     6     7    1
     7     7     8    1
     8     8     9   ar
     9     9    10   ar
    10    10    11    1
    11    10    12   ar
    12    12    13   ar
    13    13    14    1
    14    14    15    1
    15    15    16    1
    16    16    17    1
    17    17    18    1
    18    18    19    1
    19    19    20   ar
    20    20    21   ar
    21    21    22   ar
    22    22    23   ar
    23    23    24   ar
    24    19    24   ar
    25    24    25    1
    26    25    26    1
    27    18    27    1
    28    27    28    1
    29    15    28    1
    30    13    29   ar
    31     8    29   ar
    32     6    30   ar
    33    30    31   ar
    34     3    31   ar
    35     1    32    1
    36     1    33    1
    37     1    34    1
    38     2    35    1
    39     2    36    1
    40     4    37    1
    41     5    38    1
    42     7    39    1
    43    11    40    1
    44    11    41    1
    45    14    42    1
    46    14    43    1
    47    16    44    1
    48    16    45    1
    49    17    46    1
    50    17    47    1
    51    20    48    1
    52    21    49    1
    53    22    50    1
    54    23    51    1
    55    26    52    1
    56    26    53    1
    57    26    54    1
    58    27    55    1
    59    27    56    1
    60    28    57    1
    61    28    58    1
    62    30    59    1
    63    31    60    1
