@<TRIPOS>MOLECULE
*****
 51 53 0 0 0
SMALL
USER_CHARGES

@<TRIPOS>ATOM
      1 C1         16.0349    1.2569    2.5946 C.3     1  NONAME1    -0.0645
      2 C2         16.0649   -0.2620    2.6649 C.3     1  NONAME1    -0.0469
      3 C3         17.4665   -0.8709    2.7459 C.3     1  NONAME1    -0.0066
      4 S1         18.3335   -0.9840    1.1424 S.3     1  NONAME1    -0.1607
      5 C4         19.1932    0.6196    1.1245 C.3     1  NONAME1    -0.0049
      6 C5         19.9900    0.8048   -0.1698 C.3     1  NONAME1    -0.0283
      7 C6         21.4700    0.4621   -0.0242 C.3     1  NONAME1     0.0126
      8 N1         21.7352   -0.9425    0.1709 N.am    1  NONAME1    -0.3113
      9 C7         22.9135   -1.6452    0.2316 C.2     1  NONAME1     0.2441
     10 O1         22.8216   -2.8655    0.3792 O.2     1  NONAME1    -0.2702
     11 C8         24.2806   -1.0308    0.1250 C.ar    1  NONAME1     0.0368
     12 C9         24.5894    0.3309    0.1765 C.ar    1  NONAME1    -0.0479
     13 C10        25.9194    0.7819    0.1015 C.ar    1  NONAME1    -0.0398
     14 C11        26.9800   -0.1186   -0.0078 C.ar    1  NONAME1     0.0338
     15 N2         28.2838    0.4100   -0.0407 N.am    1  NONAME1    -0.2802
     16 C12        29.4800   -0.2885   -0.0829 C.2     1  NONAME1     0.2679
     17 O2         29.5854   -1.5104   -0.1236 O.2     1  NONAME1    -0.2681
     18 C13        30.6715    0.5912   -0.0679 C.ar    1  NONAME1     0.1424
     19 N3         30.5095    1.9241   -0.0648 N.ar    1  NONAME1    -0.2046
     20 S2         31.9928    2.6507   -0.0530 S.2     1  NONAME1     0.0125
     21 C14        32.9246    1.2104   -0.0410 C.ar    1  NONAME1     0.0401
     22 C15        34.3221    1.0516   -0.0255 C.ar    1  NONAME1    -0.0459
     23 C16        34.8459   -0.2440   -0.0139 C.ar    1  NONAME1    -0.0606
     24 C17        34.0034   -1.3472   -0.0169 C.ar    1  NONAME1    -0.0611
     25 C18        32.6159   -1.1764   -0.0343 C.ar    1  NONAME1    -0.0513
     26 C19        32.0479    0.1233   -0.0484 C.ar    1  NONAME1     0.0212
     27 C20        26.6849   -1.4789   -0.0631 C.ar    1  NONAME1    -0.0398
     28 C21        25.3569   -1.9258    0.0008 C.ar    1  NONAME1    -0.0479
     29 H1         16.6648    1.7026    3.3710 H       1  NONAME1     0.0230
     30 H2         16.3626    1.6221    1.6189 H       1  NONAME1     0.0230
     31 H3         15.0120    1.6183    2.7446 H       1  NONAME1     0.0230
     32 H4         15.5237   -0.5549    3.5737 H       1  NONAME1     0.0270
     33 H5         15.5012   -0.6838    1.8242 H       1  NONAME1     0.0270
     34 H6         17.3627   -1.9034    3.0978 H       1  NONAME1     0.0376
     35 H7         18.0902   -0.3505    3.4801 H       1  NONAME1     0.0376
     36 H8         19.8372    0.6997    2.0062 H       1  NONAME1     0.0377
     37 H9         18.4465    1.4126    1.1800 H       1  NONAME1     0.0377
     38 H10        19.5449    0.2615   -1.0121 H       1  NONAME1     0.0288
     39 H11        19.9425    1.8697   -0.4327 H       1  NONAME1     0.0288
     40 H12        21.8747    1.0013    0.8372 H       1  NONAME1     0.0462
     41 H13        21.9997    0.7786   -0.9286 H       1  NONAME1     0.0462
     42 H14        20.9312   -1.5589    0.2713 H       1  NONAME1     0.1490
     43 H15        23.8372    1.0936    0.2965 H       1  NONAME1     0.0626
     44 H16        26.1064    1.8526    0.1480 H       1  NONAME1     0.0636
     45 H17        28.3947    1.4202   -0.0025 H       1  NONAME1     0.1552
     46 H18        34.9831    1.9132   -0.0219 H       1  NONAME1     0.0629
     47 H19        35.9235   -0.3902   -0.0017 H       1  NONAME1     0.0618
     48 H20        34.4186   -2.3524   -0.0058 H       1  NONAME1     0.0618
     49 H21        31.9753   -2.0565   -0.0358 H       1  NONAME1     0.0624
     50 H22        27.4595   -2.2340   -0.1504 H       1  NONAME1     0.0636
     51 H23        25.1751   -2.9991   -0.0356 H       1  NONAME1     0.0626
@<TRIPOS>BOND
     1     1     2    1
     2     2     3    1
     3     3     4    1
     4     4     5    1
     5     5     6    1
     6     6     7    1
     7     7     8    1
     8     8     9   am
     9     9    10    2
    10     9    11    1
    11    11    12   ar
    12    12    13   ar
    13    13    14   ar
    14    14    15    1
    15    15    16   am
    16    16    17    2
    17    16    18    1
    18    18    19   ar
    19    19    20   ar
    20    20    21   ar
    21    21    22   ar
    22    22    23   ar
    23    23    24   ar
    24    24    25   ar
    25    25    26   ar
    26    18    26   ar
    27    21    26   ar
    28    14    27   ar
    29    27    28   ar
    30    11    28   ar
    31     1    29    1
    32     1    30    1
    33     1    31    1
    34     2    32    1
    35     2    33    1
    36     3    34    1
    37     3    35    1
    38     5    36    1
    39     5    37    1
    40     6    38    1
    41     6    39    1
    42     7    40    1
    43     7    41    1
    44     8    42    1
    45    12    43    1
    46    13    44    1
    47    15    45    1
    48    22    46    1
    49    23    47    1
    50    24    48    1
    51    25    49    1
    52    27    50    1
    53    28    51    1
