@<TRIPOS>MOLECULE
*****
 57 60 0 0 0
SMALL
USER_CHARGES

@<TRIPOS>ATOM
      1 C1         -0.7438    1.4077    0.0000 C.3     1  NONAME1    -0.0377
      2 C2         -0.2679   -0.0569    0.0000 C.ar    1  NONAME1    -0.0168
      3 C3         -1.1155   -1.1656   -0.0942 C.ar    1  NONAME1     0.0807
      4 C4         -2.5800   -1.1891   -0.1085 C.2     1  NONAME1     0.2643
      5 O1         -3.2831   -0.1852    0.0235 O.2     1  NONAME1    -0.2683
      6 N1         -3.1658   -2.4481   -0.2664 N.am    1  NONAME1    -0.2491
      7 N2         -4.5706   -2.5982   -0.2789 N.3     1  NONAME1    -0.2541
      8 S1         -0.2194   -2.6342   -0.1986 S.2     1  NONAME1    -0.0653
      9 C5          1.2571   -1.8318   -0.0513 C.ar    1  NONAME1     0.0979
     10 C6          1.1053   -0.4965    0.1653 C.ar    1  NONAME1     0.0742
     11 C7          2.3007    0.2434    0.5145 C.ar    1  NONAME1     0.2654
     12 O2          2.2439    1.2018    1.2751 O.2     1  NONAME1    -0.2668
     13 N3          3.4609   -0.2841   -0.0433 N.ar    1  NONAME1    -0.2559
     14 C8          4.7368    0.3808    0.2269 C.3     1  NONAME1     0.0560
     15 C9          4.9670    1.8549   -0.0808 C.ar    1  NONAME1    -0.0275
     16 C10         3.9980    2.7770   -0.4904 C.ar    1  NONAME1    -0.0569
     17 C11         4.3027    4.1414   -0.5991 C.ar    1  NONAME1    -0.0614
     18 C12         5.5913    4.6021   -0.3429 C.ar    1  NONAME1    -0.0617
     19 C13         6.5833    3.6994    0.0169 C.ar    1  NONAME1    -0.0614
     20 C14         6.2717    2.3440    0.1504 C.ar    1  NONAME1    -0.0569
     21 C15         3.5642   -1.6299   -0.4697 C.ar    1  NONAME1     0.3335
     22 O3          4.5553   -2.0510   -1.0698 O.2     1  NONAME1    -0.2462
     23 N4          2.4815   -2.4837   -0.1618 N.ar    1  NONAME1    -0.2784
     24 C16         2.6349   -3.9256   -0.4338 C.3     1  NONAME1     0.1048
     25 C17         3.8418   -4.6735    0.1856 C.2     1  NONAME1     0.2332
     26 O4          4.7440   -4.1344    0.8190 O.2     1  NONAME1    -0.2738
     27 N5          3.8115   -6.0496   -0.0408 N.am    1  NONAME1    -0.3097
     28 C18         4.9831   -6.8613    0.2371 C.3     1  NONAME1     0.0369
     29 C19         4.8281   -8.3629    0.0880 C.ar    1  NONAME1    -0.0303
     30 C20         6.0044   -9.1389    0.0586 C.ar    1  NONAME1    -0.0571
     31 C21         5.9572  -10.5343   -0.0119 C.ar    1  NONAME1    -0.0615
     32 C22         4.7266  -11.1836   -0.0585 C.ar    1  NONAME1    -0.0617
     33 C23         3.5538  -10.4381   -0.0285 C.ar    1  NONAME1    -0.0615
     34 C24         3.5999   -9.0390    0.0548 C.ar    1  NONAME1    -0.0571
     35 H1          0.2254    1.8324   -0.3366 H       1  NONAME1     0.0278
     36 H2         -1.2197    2.8723    0.0000 H       1  NONAME1     0.0278
     37 H3         -1.3627    1.3038   -0.9182 H       1  NONAME1     0.0278
     38 H4         -2.5770   -3.2601   -0.4305 H       1  NONAME1     0.1690
     39 H5         -4.9719   -1.6734   -0.4909 H       1  NONAME1     0.1405
     40 H6         -4.8721   -2.7767    0.6833 H       1  NONAME1     0.1405
     41 H7          4.9124    0.2492    1.3036 H       1  NONAME1     0.0544
     42 H8          5.5388   -0.1612   -0.2879 H       1  NONAME1     0.0544
     43 H9          2.9751    2.4798   -0.6947 H       1  NONAME1     0.0621
     44 H10         3.5214    4.8490   -0.8668 H       1  NONAME1     0.0618
     45 H11         5.8186    5.6618   -0.4176 H       1  NONAME1     0.0618
     46 H12         7.5936    4.0478    0.2134 H       1  NONAME1     0.0618
     47 H13         7.0618    1.6608    0.4598 H       1  NONAME1     0.0621
     48 H14         1.7659   -4.4472   -0.0183 H       1  NONAME1     0.0589
     49 H15         2.6518   -4.0670   -1.5199 H       1  NONAME1     0.0589
     50 H16         3.0474   -6.4579   -0.5585 H       1  NONAME1     0.1491
     51 H17         5.3226   -6.6405    1.2551 H       1  NONAME1     0.0512
     52 H18         5.7594   -6.5210   -0.4598 H       1  NONAME1     0.0512
     53 H19         6.9785   -8.6547    0.1057 H       1  NONAME1     0.0621
     54 H20         6.8799  -11.1083   -0.0227 H       1  NONAME1     0.0618
     55 H21         4.6885  -12.2708   -0.1039 H       1  NONAME1     0.0618
     56 H22         2.5946  -10.9515   -0.0527 H       1  NONAME1     0.0618
     57 H23         2.6587   -8.5010    0.1058 H       1  NONAME1     0.0621
@<TRIPOS>BOND
     1     1     2    1
     2     2     3   ar
     3     3     4    1
     4     4     5    2
     5     4     6   am
     6     6     7    1
     7     3     8   ar
     8     8     9   ar
     9     9    10   ar
    10     2    10   ar
    11    10    11   ar
    12    11    12    2
    13    11    13   ar
    14    13    14    1
    15    14    15    1
    16    15    16   ar
    17    16    17   ar
    18    17    18   ar
    19    18    19   ar
    20    19    20   ar
    21    15    20   ar
    22    13    21   ar
    23    21    22    2
    24    21    23   ar
    25     9    23   ar
    26    23    24    1
    27    24    25    1
    28    25    26    2
    29    25    27   am
    30    27    28    1
    31    28    29    1
    32    29    30   ar
    33    30    31   ar
    34    31    32   ar
    35    32    33   ar
    36    33    34   ar
    37    29    34   ar
    38     1    35    1
    39     1    36    1
    40     1    37    1
    41     6    38    1
    42     7    39    1
    43     7    40    1
    44    14    41    1
    45    14    42    1
    46    16    43    1
    47    17    44    1
    48    18    45    1
    49    19    46    1
    50    20    47    1
    51    24    48    1
    52    24    49    1
    53    27    50    1
    54    28    51    1
    55    28    52    1
    56    30    53    1
    57    31    54    1
    58    32    55    1
    59    33    56    1
    60    34    57    1
