REMARK  6 active torsions:
REMARK  status: ('A' for Active; 'I' for Inactive)
REMARK    1  A    between atoms: O1_2  and  N1_3 
REMARK       I    between atoms: N1_3  and  C2_4 
REMARK       I    between atoms: C2_4  and  N2_6 
REMARK    2  A    between atoms: C3_7  and  N2_6 
REMARK    3  A    between atoms: C3_7  and  C5_9 
REMARK    4  A    between atoms: C8_12  and  O3_13 
REMARK    5  A    between atoms: O3_13  and  C9_14 
REMARK    6  A    between atoms: C14_19  and  O4_20 
ROOT
ATOM      1  C5  NON d   1      10.566  -7.786  -0.289  0.00  0.00    -0.033 A 
ATOM      2  C6  NON d   1      11.844  -7.373   0.107  0.00  0.00     0.012 A 
ATOM      3  C7  NON d   1      12.888  -8.301   0.235  0.00  0.00     0.040 A 
ATOM      4  C8  NON d   1      12.695  -9.661  -0.034  0.00  0.00     0.102 A 
ATOM      5  C14 NON d   1      11.447 -10.077  -0.495  0.00  0.00     0.102 A 
ATOM      6  C16 NON d   1      10.409  -9.140  -0.648  0.00  0.00     0.049 A 
ENDROOT
BRANCH   1   7
ATOM      7  C3  NON d   1       9.336  -6.930   0.000  0.00  0.00     0.115 C 
ATOM      8  C4  NON d   1       9.336  -5.390   0.000  0.00  0.00     0.037 C 
BRANCH   7   9
ATOM      9  N2  NON d   1       8.110  -7.433  -0.610  0.00  0.00    -0.338 N 
ATOM     10  C2  NON d   1       6.913  -7.342   0.082  0.00  0.00     0.318 C 
ATOM     11  N1  NON d   1       5.926  -8.101  -0.524  0.00  0.00    -0.120 NA
ATOM     12  O2  NON d   1       6.783  -6.722   1.132  0.00  0.00    -0.252 OA
ATOM     13  H4  NON d   1       6.286  -8.975  -0.888  0.00  0.00     0.165 HD
ATOM     14  H5  NON d   1       8.060  -7.484  -1.616  0.00  0.00     0.164 HD
BRANCH  11  15
ATOM     15  O1  NON d   1       4.823  -8.316   0.352  0.00  0.00    -0.302 OA
ATOM     16  C1  NON d   1       3.654  -7.780  -0.254  0.00  0.00     0.230 C 
ENDBRANCH  11  15
ENDBRANCH   7   9
ENDBRANCH   1   7
BRANCH   5  17
ATOM     17  O4  NON d   1      11.207 -11.399  -0.759  0.00  0.00    -0.353 OA
ATOM     18  C15 NON d   1      10.116 -11.925   0.001  0.00  0.00     0.210 C 
ENDBRANCH   5  17
BRANCH   4  19
ATOM     19  O3  NON d   1      13.729 -10.455   0.378  0.00  0.00    -0.343 OA
BRANCH  19  20
ATOM     20  C9  NON d   1      14.077 -11.610  -0.379  0.00  0.00     0.129 C 
ATOM     21  C10 NON d   1      15.587 -11.807  -0.203  0.00  0.00     0.032 C 
ATOM     22  C11 NON d   1      15.801 -13.289  -0.431  0.00  0.00     0.002 C 
ATOM     23  C12 NON d   1      14.623 -13.925   0.286  0.00  0.00     0.002 C 
ATOM     24  C13 NON d   1      13.484 -12.911   0.183  0.00  0.00     0.032 C 
ENDBRANCH  19  20
ENDBRANCH   4  19
TORSDOF 6
