REMARK  6 active torsions:
REMARK  status: ('A' for Active; 'I' for Inactive)
REMARK    1  A    between atoms: O1_2  and  C2_3 
REMARK    2  A    between atoms: C2_3  and  C3_5 
REMARK    3  A    between atoms: C4_6  and  N1_7 
REMARK       I    between atoms: N1_7  and  C5_8 
REMARK    4  A    between atoms: C5_8  and  C6_10 
REMARK    5  A    between atoms: C13_18  and  C14_19 
REMARK       I    between atoms: C14_19  and  N2_21 
REMARK    6  A    between atoms: N2_21  and  C15_22 
ROOT
ATOM      1  C3  NON d   1       2.768  -4.528  -0.492  0.00  0.00     0.080 C 
ATOM      2  C4  NON d   1       3.670  -5.564  -0.790  0.00  0.00     0.094 C 
ATOM      3  S1  NON d   1       2.868  -7.014  -1.158  0.00  0.00    -0.065 SA
ATOM      4  C13 NON d   1       1.400  -6.523  -0.469  0.00  0.00     0.082 C 
ATOM      5  C21 NON d   1       1.439  -5.157  -0.195  0.00  0.00    -0.020 C 
ATOM      6  C22 NON d   1       0.250  -4.388   0.318  0.00  0.00     0.051 C 
ENDROOT
BRANCH   2   7
ATOM      7  N1  NON d   1       5.005  -5.552  -1.116  0.00  0.00    -0.316 N 
ATOM      8  C5  NON d   1       6.079  -6.426  -1.093  0.00  0.00     0.256 C 
ATOM      9  O3  NON d   1       7.098  -5.907  -1.582  0.00  0.00    -0.267 OA
ATOM     10  H4  NON d   1       5.326  -4.696  -1.550  0.00  0.00     0.169 HD
BRANCH   8  11
ATOM     11  C6  NON d   1       6.252  -7.830  -0.558  0.00  0.00     0.032 C 
ATOM     12  C7  NON d   1       7.534  -8.393  -0.773  0.00  0.00     0.017 C 
ATOM     13  C8  NON d   1       7.844  -9.719  -0.449  0.00  0.00     0.002 C 
ATOM     14  C9  NON d   1       6.860 -10.544   0.067  0.00  0.00     0.007 C 
ATOM     15  C10 NON d   1       5.594 -10.020   0.341  0.00  0.00    -0.061 C 
ATOM     16  C11 NON d   1       4.499 -10.950   0.782  0.00  0.00     0.048 C 
ATOM     17  C12 NON d   1       5.326  -8.650   0.093  0.00  0.00     0.023 C 
ENDBRANCH   8  11
ENDBRANCH   2   7
BRANCH   1  18
ATOM     18  C2  NON d   1       2.894  -3.010  -0.467  0.00  0.00     0.296 C 
ATOM     19  O2  NON d   1       1.926  -2.333  -0.812  0.00  0.00    -0.259 OA
BRANCH  18  20
ATOM     20  O1  NON d   1       4.001  -2.310   0.000  0.00  0.00    -0.322 OA
ATOM     21  C1  NON d   1       5.335  -3.080   0.000  0.00  0.00     0.213 C 
ENDBRANCH  18  20
ENDBRANCH   1  18
BRANCH   4  22
ATOM     22  C14 NON d   1       0.293  -7.491  -0.320  0.00  0.00     0.263 C 
ATOM     23  O4  NON d   1      -0.868  -7.129  -0.146  0.00  0.00    -0.267 OA
ATOM     24  N2  NON d   1       0.690  -8.822  -0.372  0.00  0.00    -0.323 N 
ATOM     25  H12 NON d   1       1.682  -8.970  -0.514  0.00  0.00     0.169 HD
BRANCH  24  26
ATOM     26  C15 NON d   1      -0.091  -9.990  -0.246  0.00  0.00     0.035 A 
ATOM     27  C16 NON d   1       0.585 -11.219  -0.284  0.00  0.00     0.029 A 
ATOM     28  C17 NON d   1      -0.103 -12.429  -0.152  0.00  0.00     0.002 A 
ATOM     29  C18 NON d   1      -1.484 -12.426   0.007  0.00  0.00     0.000 A 
ATOM     30  C19 NON d   1      -2.168 -11.212   0.036  0.00  0.00     0.002 A 
ATOM     31  C20 NON d   1      -1.476 -10.000  -0.086  0.00  0.00     0.029 A 
ENDBRANCH  24  26
ENDBRANCH   4  22
TORSDOF 6
