REMARK  7 active torsions:
REMARK  status: ('A' for Active; 'I' for Inactive)
REMARK    1  A    between atoms: C2_2  and  C3_3 
REMARK    2  A    between atoms: C3_3  and  C4_4 
REMARK    3  A    between atoms: C4_4  and  C5_5 
REMARK       I    between atoms: C5_5  and  N1_7 
REMARK    4  A    between atoms: N1_7  and  N2_8 
REMARK       I    between atoms: N2_8  and  C6_9 
REMARK    5  A    between atoms: C6_9  and  C7_11 
REMARK    6  A    between atoms: C11_15  and  O3_16 
REMARK    7  A    between atoms: C13_18  and  O4_19 
ROOT
ATOM      1  N2  NON d   1       4.549  -8.510   0.079  0.00  0.00    -0.263 N 
ATOM      2  C6  NON d   1       5.737  -9.222   0.010  0.00  0.00     0.273 C 
ATOM      3  O2  NON d   1       5.749 -10.452  -0.071  0.00  0.00    -0.266 OA
ATOM      4  H11 NON d   1       4.465  -7.500   0.164  0.00  0.00     0.190 HD
ENDROOT
BRANCH   2   5
ATOM      5  C7  NON d   1       7.042  -8.467   0.040  0.00  0.00     0.069 A 
ATOM      6  C8  NON d   1       7.082  -7.068   0.083  0.00  0.00     0.020 A 
ATOM      7  C9  NON d   1       8.307  -6.389   0.110  0.00  0.00     0.004 A 
ATOM      8  C10 NON d   1       9.517  -7.090   0.094  0.00  0.00     0.040 A 
ATOM      9  C11 NON d   1       9.521  -8.482   0.039  0.00  0.00     0.102 A 
ATOM     10  C13 NON d   1       8.279  -9.164   0.017  0.00  0.00     0.114 A 
BRANCH   9  11
ATOM     11  O3  NON d   1      10.669  -9.240   0.000  0.00  0.00    -0.353 OA
ATOM     12  C12 NON d   1      12.003  -8.470   0.000  0.00  0.00     0.210 C 
ENDBRANCH   9  11
BRANCH  10  13
ATOM     13  O4  NON d   1       8.325 -10.541  -0.035  0.00  0.00    -0.357 OA
ATOM     14  H18 NON d   1       7.406 -10.885  -0.063  0.00  0.00     0.217 HD
ENDBRANCH  10  13
ENDBRANCH   2   5
BRANCH   1  15
ATOM     15  N1  NON d   1       3.319  -9.202   0.056  0.00  0.00    -0.267 N 
ATOM     16  C5  NON d   1       2.150  -8.463   0.118  0.00  0.00     0.236 C 
ATOM     17  O1  NON d   1       2.162  -7.238   0.228  0.00  0.00    -0.272 OA
ATOM     18  H10 NON d   1       3.358 -10.214  -0.055  0.00  0.00     0.190 HD
BRANCH  16  19
ATOM     19  C4  NON d   1       0.873  -9.295   0.037  0.00  0.00     0.104 C 
BRANCH  19  20
ATOM     20  C3  NON d   1      -0.392  -8.427   0.058  0.00  0.00     0.009 C 
BRANCH  20  21
ATOM     21  C2  NON d   1      -1.685  -9.198  -0.242  0.00  0.00    -0.004 C 
ATOM     22  C1  NON d   1      -2.170 -10.058   0.914  0.00  0.00     0.005 C 
ENDBRANCH  20  21
ENDBRANCH  19  20
ENDBRANCH  16  19
ENDBRANCH   1  15
TORSDOF 7
