@<TRIPOS>MOLECULE
*****
 53 55 0 0 0
SMALL
USER_CHARGES

@<TRIPOS>ATOM
      1 C1          7.4544    6.1599    0.0183 C.3     1  NONAME1     0.0369
      2 O1          7.4543    4.6200    0.0000 O.3     1  NONAME1    -0.3784
      3 C2          6.2001    3.8547   -0.0467 C.3     1  NONAME1     0.0731
      4 C3          6.1938    2.2253   -0.0090 C.ar    1  NONAME1    -0.0088
      5 C4          7.4135    1.4457   -0.0136 C.ar    1  NONAME1    -0.0346
      6 C5          7.4543    0.0000    0.0000 C.ar    1  NONAME1     0.0399
      7 C6          8.7880   -0.7700    0.0000 C.3     1  NONAME1    -0.0223
      8 N1          6.3100   -0.7062    0.0806 N.ar    1  NONAME1    -0.2447
      9 C7          5.1452    0.0014    0.0783 C.ar    1  NONAME1     0.1113
     10 S1          3.6531   -0.8759    0.1693 S.2     1  NONAME1    -0.0622
     11 C8          2.6805    0.5138    0.0060 C.ar    1  NONAME1     0.0973
     12 C9          1.1805    0.4535   -0.1932 C.2     1  NONAME1     0.2568
     13 O2          0.6712    1.3764   -0.8446 O.2     1  NONAME1    -0.2692
     14 N2          0.3601   -0.6399    0.2894 N.am    1  NONAME1    -0.2781
     15 C10        -1.1367   -0.6942    0.2653 C.ar    1  NONAME1     0.0759
     16 C11        -1.9424   -1.9564    0.3721 C.ar    1  NONAME1    -0.0332
     17 C12        -3.3884   -2.0041    0.1804 C.ar    1  NONAME1    -0.0400
     18 C13        -4.5128   -3.2310    0.0000 C.3     1  NONAME1    -0.0126
     19 C14        -5.2828   -4.5647    0.0000 C.3     1  NONAME1    -0.0560
     20 C15        -5.8465   -2.4610    0.0000 C.3     1  NONAME1    -0.0560
     21 C16        -3.9264   -3.5326   -1.4746 C.3     1  NONAME1    -0.0560
     22 C17        -3.9008   -0.7176   -0.2164 C.ar    1  NONAME1    -0.0545
     23 C18        -3.2127    0.4847   -0.1663 C.ar    1  NONAME1    -0.0181
     24 C19        -1.8698    0.4965    0.1243 C.ar    1  NONAME1     0.1380
     25 O3         -1.3813    1.7626    0.2795 O.3     1  NONAME1    -0.5049
     26 C20         3.5208    1.6504   -0.0442 C.ar    1  NONAME1     0.0537
     27 N3          3.0079    2.9063   -0.1614 N.pl3   1  NONAME1    -0.3564
     28 C21         4.9786    1.3970    0.0121 C.ar    1  NONAME1     0.0344
     29 H1          8.5494    6.2189    0.1425 H       1  NONAME1     0.0524
     30 H2          7.4544    7.6998    0.0366 H       1  NONAME1     0.0524
     31 H3          6.9885    6.2188    1.0180 H       1  NONAME1     0.0524
     32 H4          5.5969    4.1786    0.8074 H       1  NONAME1     0.0610
     33 H5          5.6992    4.1389   -0.9771 H       1  NONAME1     0.0610
     34 H6          8.3614    1.9878   -0.0352 H       1  NONAME1     0.0639
     35 H7          8.3632   -1.7003   -0.4314 H       1  NONAME1     0.0292
     36 H8         10.1217   -1.5400    0.0000 H       1  NONAME1     0.0292
     37 H9          9.2204   -0.1947   -0.8451 H       1  NONAME1     0.0292
     38 H10         0.8356   -1.4804    0.5859 H       1  NONAME1     0.1553
     39 H11        -1.4090   -2.8914    0.5271 H       1  NONAME1     0.0640
     40 H12        -6.0981   -4.3797   -0.7398 H       1  NONAME1     0.0238
     41 H13        -6.0528   -5.8984    0.0000 H       1  NONAME1     0.0238
     42 H14        -5.4962   -4.6075    1.0881 H       1  NONAME1     0.0238
     43 H15        -5.6200   -1.8101    0.8803 H       1  NONAME1     0.0238
     44 H16        -7.1802   -1.6910    0.0000 H       1  NONAME1     0.0238
     45 H17        -6.5425   -3.1198    0.5798 H       1  NONAME1     0.0238
     46 H18        -4.5257   -4.2189   -2.0888 H       1  NONAME1     0.0238
     47 H19        -3.7930   -2.6432   -2.1009 H       1  NONAME1     0.0238
     48 H20        -2.9480   -4.0284   -1.3669 H       1  NONAME1     0.0238
     49 H21        -4.9044   -0.5878   -0.6226 H       1  NONAME1     0.0622
     50 H22        -3.7314    1.4139   -0.3927 H       1  NONAME1     0.0655
     51 H23        -0.6913    1.8603   -0.4094 H       1  NONAME1     0.2922
     52 H24         3.5668    3.6834   -0.4940 H       1  NONAME1     0.1424
     53 H25         2.0233    3.0174   -0.4113 H       1  NONAME1     0.1424
@<TRIPOS>BOND
     1     1     2    1
     2     2     3    1
     3     3     4    1
     4     4     5   ar
     5     5     6   ar
     6     6     7    1
     7     6     8   ar
     8     8     9   ar
     9     9    10   ar
    10    10    11   ar
    11    11    12    1
    12    12    13    2
    13    12    14   am
    14    14    15    1
    15    15    16   ar
    16    16    17   ar
    17    17    18    1
    18    18    19    1
    19    18    20    1
    20    18    21    1
    21    17    22   ar
    22    22    23   ar
    23    23    24   ar
    24    15    24   ar
    25    24    25    1
    26    11    26   ar
    27    26    27    1
    28    26    28   ar
    29     4    28   ar
    30     9    28   ar
    31     1    29    1
    32     1    30    1
    33     1    31    1
    34     3    32    1
    35     3    33    1
    36     5    34    1
    37     7    35    1
    38     7    36    1
    39     7    37    1
    40    14    38    1
    41    16    39    1
    42    19    40    1
    43    19    41    1
    44    19    42    1
    45    20    43    1
    46    20    44    1
    47    20    45    1
    48    21    46    1
    49    21    47    1
    50    21    48    1
    51    22    49    1
    52    23    50    1
    53    25    51    1
    54    27    52    1
    55    27    53    1
