@<TRIPOS>MOLECULE
*****
 44 45 0 0 0
SMALL
USER_CHARGES

@<TRIPOS>ATOM
      1 C1          5.3347  -13.8600    0.0000 C.3     1  NONAME1     0.0789
      2 O1          5.3347  -12.3200    0.0000 O.3     1  NONAME1    -0.4933
      3 C2          4.2538  -11.5452    0.1984 C.ar    1  NONAME1     0.1413
      4 C3          2.9553  -12.0477    0.1859 C.ar    1  NONAME1    -0.0169
      5 C4          1.8733  -11.1651    0.1877 C.ar    1  NONAME1    -0.0408
      6 C5          2.0933   -9.7835    0.1928 C.ar    1  NONAME1     0.0538
      7 C6          0.9839   -8.8775    0.1400 C.1     1  NONAME1     0.0992
      8 N1          0.0906   -8.1386    0.0880 N.1     1  NONAME1    -0.1909
      9 C7          3.3999   -9.2799    0.2342 C.ar    1  NONAME1    -0.0195
     10 C8          4.4961  -10.1503    0.2712 C.ar    1  NONAME1     0.0780
     11 N2          5.7898   -9.5443    0.2928 N.am    1  NONAME1    -0.2663
     12 C9          6.9794  -10.1212    0.7010 C.2     1  NONAME1     0.3040
     13 O2          7.1116  -11.1341    1.3762 O.2     1  NONAME1    -0.2525
     14 N3          8.0781   -9.4096    0.2487 N.am    1  NONAME1    -0.2966
     15 C10         9.3312  -10.1197    0.0237 C.3     1  NONAME1     0.0423
     16 C11        10.6045   -9.2535    0.0641 C.3     1  NONAME1     0.1046
     17 O3         10.3023   -7.8804   -0.2223 O.3     1  NONAME1    -0.3869
     18 C12        11.3542   -9.3982    1.3983 C.3     1  NONAME1     0.1169
     19 O4         12.6274   -8.7407    1.2707 O.3     1  NONAME1    -0.4893
     20 C13        13.5473   -8.9578    2.2640 C.ar    1  NONAME1     0.1233
     21 C14        14.7496   -8.2522    2.1206 C.ar    1  NONAME1    -0.0198
     22 C15        15.7753   -8.3777    3.0641 C.ar    1  NONAME1    -0.0556
     23 C16        15.6069   -9.2212    4.1578 C.ar    1  NONAME1    -0.0262
     24 C17        14.4178   -9.9267    4.2932 C.ar    1  NONAME1     0.1269
     25 F1         14.2592  -10.7460    5.3418 F       1  NONAME1    -0.2054
     26 C18        13.3870   -9.8018    3.3625 C.ar    1  NONAME1     0.0153
     27 H1          4.9456  -13.9326   -1.0324 H       1  NONAME1     0.0660
     28 H2          5.3347  -15.4000    0.0000 H       1  NONAME1     0.0660
     29 H3          6.4360  -13.9210   -0.0501 H       1  NONAME1     0.0660
     30 H4          2.7701  -13.1153    0.1297 H       1  NONAME1     0.0655
     31 H5          0.8605  -11.5630    0.1539 H       1  NONAME1     0.0631
     32 H6          3.5544   -8.2028    0.2382 H       1  NONAME1     0.0650
     33 H7          5.8260   -8.5416    0.1983 H       1  NONAME1     0.1565
     34 H8          7.9129   -8.6468   -0.3927 H       1  NONAME1     0.1503
     35 H9          9.2355  -10.5345   -0.9879 H       1  NONAME1     0.0489
     36 H10         9.4200  -10.9812    0.6935 H       1  NONAME1     0.0489
     37 H11        11.2786   -9.5910   -0.7340 H       1  NONAME1     0.0643
     38 H12        11.1223   -7.3809   -0.0304 H       1  NONAME1     0.2100
     39 H13        11.5016  -10.4659    1.5954 H       1  NONAME1     0.0723
     40 H14        10.7937   -8.9230    2.2103 H       1  NONAME1     0.0723
     41 H15        14.8916   -7.5946    1.2658 H       1  NONAME1     0.0654
     42 H16        16.7003   -7.8193    2.9439 H       1  NONAME1     0.0620
     43 H17        16.3885   -9.3348    4.9021 H       1  NONAME1     0.0646
     44 H18        12.4879  -10.3802    3.5346 H       1  NONAME1     0.0683
@<TRIPOS>BOND
     1     1     2    1
     2     2     3    1
     3     3     4   ar
     4     4     5   ar
     5     5     6   ar
     6     6     7    1
     7     7     8    3
     8     6     9   ar
     9     9    10   ar
    10     3    10   ar
    11    10    11    1
    12    11    12   am
    13    12    13    2
    14    12    14   am
    15    14    15    1
    16    16    15    1
    17    16    17    1
    18    16    18    1
    19    18    19    1
    20    19    20    1
    21    20    21   ar
    22    21    22   ar
    23    22    23   ar
    24    23    24   ar
    25    24    25    1
    26    24    26   ar
    27    20    26   ar
    28     1    27    1
    29     1    28    1
    30     1    29    1
    31     4    30    1
    32     5    31    1
    33     9    32    1
    34    11    33    1
    35    14    34    1
    36    15    35    1
    37    15    36    1
    38    16    37    1
    39    17    38    1
    40    18    39    1
    41    18    40    1
    42    21    41    1
    43    22    42    1
    44    23    43    1
    45    26    44    1
