@<TRIPOS>MOLECULE
*****
 61 64 0 0 0
SMALL
USER_CHARGES

@<TRIPOS>ATOM
      1 C1         -6.8676   -2.4250    0.0000 C.3     1  NONAME1    -0.0568
      2 C2         -5.5339   -3.1950    0.0000 C.3     1  NONAME1     0.0237
      3 C3         -5.5583   -4.6668   -0.2123 C.ar    1  NONAME1     0.2274
      4 N1         -4.9935   -5.6104    0.5142 N.ar    1  NONAME1    -0.1912
      5 C4         -5.0050   -6.7015   -0.3381 C.ar    1  NONAME1     0.2053
      6 C5         -4.3289   -7.9561   -0.0261 C.ar    1  NONAME1     0.0623
      7 C6         -2.9249   -7.8453    0.0889 C.ar    1  NONAME1    -0.0462
      8 C7         -2.1333   -8.9644    0.2840 C.ar    1  NONAME1    -0.0428
      9 C8         -2.7737  -10.1742    0.3780 C.ar    1  NONAME1     0.0297
     10 N2         -4.1140  -10.3179    0.2976 N.ar    1  NONAME1    -0.2396
     11 C9         -4.9271   -9.2372    0.0931 C.ar    1  NONAME1     0.1321
     12 N3         -6.2939   -9.5479    0.0452 N.pl3   1  NONAME1    -0.3139
     13 C10        -6.6290  -10.9733    0.1078 C.3     1  NONAME1     0.0136
     14 C11        -8.1195  -11.3025    0.0864 C.3     1  NONAME1    -0.0364
     15 C12        -9.0074  -10.1760    0.5968 C.3     1  NONAME1    -0.0390
     16 C13        -8.7558   -8.9431   -0.2534 C.3     1  NONAME1     0.0513
     17 C14        -9.6077   -7.7393    0.1484 C.2     1  NONAME1     0.2176
     18 O1         -9.1332   -6.6677    0.5211 O.2     1  NONAME1    -0.2755
     19 N4        -10.9682   -7.9011    0.0034 N.am    1  NONAME1    -0.3147
     20 C15       -11.8096   -6.7213    0.1136 C.3     1  NONAME1     0.0153
     21 C16       -13.3087   -7.0121    0.0552 C.3     1  NONAME1    -0.0161
     22 C17       -13.9736   -7.6413    1.2640 C.2     1  NONAME1    -0.0720
     23 C18       -13.3346   -8.0386    2.3791 C.2     1  NONAME1    -0.0847
     24 C19       -14.0152   -8.6475    3.5680 C.3     1  NONAME1    -0.0345
     25 C20       -15.4253   -9.1525    3.2739 C.3     1  NONAME1    -0.0493
     26 C21       -16.2193   -8.1891    2.4020 C.3     1  NONAME1    -0.0491
     27 C22       -15.4765   -7.7684    1.1323 C.3     1  NONAME1    -0.0317
     28 C23        -7.2864   -8.5255   -0.2486 C.3     1  NONAME1     0.0246
     29 N5         -5.4807   -6.4115   -1.5667 N.ar    1  NONAME1    -0.0560
     30 O2         -5.8948   -5.0895   -1.4637 O.2     1  NONAME1    -0.3377
     31 H1         -6.4021   -1.4186   -0.0436 H       1  NONAME1     0.0234
     32 H2         -8.2013   -1.6550    0.0000 H       1  NONAME1     0.0234
     33 H3         -7.1674   -2.7277   -1.0246 H       1  NONAME1     0.0234
     34 H4         -5.0422   -3.0074    0.9629 H       1  NONAME1     0.0358
     35 H5         -4.8797   -2.7759   -0.7777 H       1  NONAME1     0.0358
     36 H6         -2.4490   -6.8709   -0.0024 H       1  NONAME1     0.0626
     37 H7         -1.0547   -8.8917    0.3452 H       1  NONAME1     0.0633
     38 H8         -2.2190  -11.0965    0.5215 H       1  NONAME1     0.0830
     39 H9         -6.1619  -11.4985   -0.7363 H       1  NONAME1     0.0464
     40 H10        -6.2181  -11.4096    1.0281 H       1  NONAME1     0.0464
     41 H11        -8.4114  -11.5453   -0.9441 H       1  NONAME1     0.0281
     42 H12        -8.3008  -12.2121    0.6688 H       1  NONAME1     0.0281
     43 H13       -10.0566  -10.4862    0.5194 H       1  NONAME1     0.0273
     44 H14        -8.8129   -9.9748    1.6561 H       1  NONAME1     0.0273
     45 H15        -9.0327   -9.1777   -1.2907 H       1  NONAME1     0.0410
     46 H16       -11.3133   -8.6990   -0.5138 H       1  NONAME1     0.1487
     47 H17       -11.5412   -6.0717   -0.7295 H       1  NONAME1     0.0465
     48 H18       -11.5474   -6.1737    1.0273 H       1  NONAME1     0.0465
     49 H19       -13.5140   -7.6418   -0.8197 H       1  NONAME1     0.0325
     50 H20       -13.8062   -6.0494   -0.1217 H       1  NONAME1     0.0325
     51 H21       -12.2564   -7.9198    2.4776 H       1  NONAME1     0.0572
     52 H22       -13.4126   -9.4847    3.9388 H       1  NONAME1     0.0307
     53 H23       -14.0448   -7.8990    4.3697 H       1  NONAME1     0.0307
     54 H24       -15.3669  -10.1284    2.7769 H       1  NONAME1     0.0268
     55 H25       -15.9579   -9.3138    4.2197 H       1  NONAME1     0.0268
     56 H26       -16.4691   -7.2958    2.9868 H       1  NONAME1     0.0268
     57 H27       -17.1737   -8.6515    2.1206 H       1  NONAME1     0.0268
     58 H28       -15.6888   -8.4887    0.3329 H       1  NONAME1     0.0310
     59 H29       -15.8918   -6.8057    0.8068 H       1  NONAME1     0.0310
     60 H30        -7.1414   -7.7226    0.4782 H       1  NONAME1     0.0471
     61 H31        -7.0980   -8.1472   -1.2567 H       1  NONAME1     0.0471
@<TRIPOS>BOND
     1     1     2    1
     2     2     3    1
     3     3     4   ar
     4     4     5   ar
     5     5     6    1
     6     6     7   ar
     7     7     8   ar
     8     8     9   ar
     9     9    10   ar
    10    10    11   ar
    11     6    11   ar
    12    11    12    1
    13    12    13    1
    14    13    14    1
    15    14    15    1
    16    16    15    1
    17    16    17    1
    18    17    18    2
    19    17    19   am
    20    19    20    1
    21    20    21    1
    22    21    22    1
    23    22    23    2
    24    23    24    1
    25    24    25    1
    26    25    26    1
    27    26    27    1
    28    22    27    1
    29    16    28    1
    30    12    28    1
    31     5    29   ar
    32    29    30   ar
    33     3    30   ar
    34     1    31    1
    35     1    32    1
    36     1    33    1
    37     2    34    1
    38     2    35    1
    39     7    36    1
    40     8    37    1
    41     9    38    1
    42    13    39    1
    43    13    40    1
    44    14    41    1
    45    14    42    1
    46    15    43    1
    47    15    44    1
    48    16    45    1
    49    19    46    1
    50    20    47    1
    51    20    48    1
    52    21    49    1
    53    21    50    1
    54    23    51    1
    55    24    52    1
    56    24    53    1
    57    25    54    1
    58    25    55    1
    59    26    56    1
    60    26    57    1
    61    27    58    1
    62    27    59    1
    63    28    60    1
    64    28    61    1
