REMARK  2 active torsions:
REMARK  status: ('A' for Active; 'I' for Inactive)
REMARK    1  A    between atoms: N1_1  and  C1_2 
REMARK    2  A    between atoms: C6_8  and  C7_9 
ROOT
ATOM      1  C7  NON d   1       1.404  -1.005  -0.116  0.00  0.00     0.137 C 
ATOM      2  N2  NON d   1       2.477  -0.289   0.108  0.00  0.00    -0.240 NA
ATOM      3  C8  NON d   1       3.738  -0.902   0.104  0.00  0.00     0.084 A 
ATOM      4  C9  NON d   1       4.874  -0.106   0.258  0.00  0.00     0.034 A 
ATOM      5  C10 NON d   1       6.147  -0.680   0.268  0.00  0.00     0.002 A 
ATOM      6  C11 NON d   1       6.292  -2.061   0.136  0.00  0.00     0.002 A 
ATOM      7  C12 NON d   1       5.165  -2.869  -0.023  0.00  0.00     0.032 A 
ATOM      8  C13 NON d   1       3.899  -2.283  -0.050  0.00  0.00     0.064 A 
ATOM      9  N3  NON d   1       2.769  -3.067  -0.278  0.00  0.00    -0.320 N 
ATOM     10  C14 NON d   1       1.522  -2.510  -0.430  0.00  0.00     0.275 C 
ATOM     11  O1  NON d   1       0.578  -3.181  -0.823  0.00  0.00    -0.266 OA
ATOM     12  H10 NON d   1       2.857  -4.055  -0.466  0.00  0.00     0.169 HD
ENDROOT
BRANCH   1  13
ATOM     13  C6  NON d   1       0.072  -0.297  -0.097  0.00  0.00     0.021 A 
ATOM     14  C5  NON d   1       0.140   1.100  -0.310  0.00  0.00     0.039 A 
ATOM     15  C4  NON d   1      -1.000   1.897  -0.257  0.00  0.00     0.035 A 
ATOM     16  C3  NON d   1      -2.233   1.329   0.017  0.00  0.00     0.026 A 
ATOM     17 Cl1  NON d   1      -0.875   3.595  -0.500  0.00  0.00    -0.084 Cl
ATOM     18  C2  NON d   1      -2.317  -0.045   0.237  0.00  0.00     0.026 A 
ATOM     19  C1  NON d   1      -1.188  -0.886   0.147  0.00  0.00     0.018 A 
BRANCH  19  20
ATOM     20  N1  NON d   1      -1.379  -2.220   0.556  0.00  0.00    -0.302 NA
ATOM     21  H1  NON d   1      -2.332  -2.549   0.429  0.00  0.00     0.124 HD
ATOM     22  H2  NON d   1      -0.746  -2.872   0.081  0.00  0.00     0.124 HD
ENDBRANCH  19  20
ENDBRANCH   1  13
TORSDOF 2
