@<TRIPOS>MOLECULE
*****
 69 74 0 0 0
SMALL
USER_CHARGES

@<TRIPOS>ATOM
      1 C1         12.1552   -3.4348    4.0909 C.3     1  NONAME1     0.0790
      2 O1         11.0681   -4.2718    4.4912 O.3     1  NONAME1    -0.4915
      3 C2         10.2613   -4.6544    3.4533 C.ar    1  NONAME1     0.1615
      4 C3          8.9133   -4.2888    3.5531 C.ar    1  NONAME1    -0.0160
      5 C4          7.9920   -4.5576    2.5184 C.ar    1  NONAME1    -0.0548
      6 C5          8.4121   -5.1939    1.3518 C.ar    1  NONAME1    -0.0422
      7 C6          7.5086   -5.4911    0.1518 C.3     1  NONAME1    -0.0112
      8 C7          5.9803   -5.1223    0.0862 C.3     1  NONAME1     0.0263
      9 N1          5.5986   -3.7357   -0.1901 N.am    1  NONAME1    -0.2413
     10 C8          4.3077   -3.1885   -0.3267 C.2     1  NONAME1     0.2272
     11 O2          3.2551   -3.7439   -0.0867 O.2     1  NONAME1    -0.2748
     12 C9          4.5244   -1.7579   -0.9112 C.3     1  NONAME1     0.0653
     13 C10         3.8273   -0.4260   -0.7950 C.3     1  NONAME1     0.0247
     14 C11         2.3523   -0.5130   -0.3788 C.3     1  NONAME1    -0.0113
     15 C12         1.4263   -1.2029   -1.3801 C.ar    1  NONAME1    -0.0422
     16 C13         0.0845   -1.4203   -1.0189 C.ar    1  NONAME1    -0.0548
     17 C14        -0.8089   -2.0709   -1.8835 C.ar    1  NONAME1    -0.0163
     18 C15        -0.3581   -2.5185   -3.1160 C.ar    1  NONAME1     0.1582
     19 O3         -1.1704   -3.1789   -3.9927 O.3     1  NONAME1    -0.5033
     20 C16         0.9585   -2.3010   -3.4958 C.ar    1  NONAME1     0.1585
     21 O4          1.4095   -2.7496   -4.7049 O.3     1  NONAME1    -0.5033
     22 C17         1.8379   -1.6329   -2.6552 C.ar    1  NONAME1    -0.0133
     23 N2          4.7295    0.5004    0.0000 N.3     1  NONAME1    -0.2950
     24 C18         6.1777   -0.0233    0.0000 C.3     1  NONAME1     0.1357
     25 C19         6.5076    0.8799   -1.4500 C.2     1  NONAME1     0.2428
     26 O5          5.7020    1.5394   -2.1030 O.2     1  NONAME1    -0.2730
     27 N3          7.8409    0.9246   -1.7112 N.am    1  NONAME1    -0.2834
     28 C20         8.5133    0.1126   -0.8536 C.ar    1  NONAME1     0.0389
     29 C21         9.8982    0.0235   -0.8021 C.ar    1  NONAME1    -0.0401
     30 C22        10.4608   -0.8074    0.1551 C.ar    1  NONAME1    -0.0600
     31 C23         9.6342   -1.4607    1.0690 C.ar    1  NONAME1    -0.0613
     32 C24         8.2435   -1.2693    1.0443 C.ar    1  NONAME1    -0.0546
     33 C25         7.6259   -0.5470    0.0000 C.ar    1  NONAME1     0.0034
     34 C26         5.7410   -1.5016   -0.1027 C.3     1  NONAME1     0.0795
     35 C27         6.4595   -2.7602   -0.5981 C.2     1  NONAME1     0.2283
     36 O6          7.4068   -2.8867   -1.3447 O.2     1  NONAME1    -0.2748
     37 C28         9.7677   -5.6152    1.2961 C.ar    1  NONAME1    -0.0131
     38 C29        10.6817   -5.3874    2.3455 C.ar    1  NONAME1     0.1617
     39 O7         11.9533   -5.8537    2.1359 O.3     1  NONAME1    -0.4914
     40 C30        12.5540   -6.5512    3.2393 C.3     1  NONAME1     0.0790
     41 H1         12.1530   -2.5473    4.7320 H       1  NONAME1     0.0660
     42 H2         13.1002   -3.9577    4.2659 H       1  NONAME1     0.0660
     43 H3         12.1068   -3.1029    3.0482 H       1  NONAME1     0.0660
     44 H4          8.5783   -3.7565    4.4458 H       1  NONAME1     0.0655
     45 H5          6.9657   -4.2337    2.6442 H       1  NONAME1     0.0621
     46 H6          7.5483   -6.5843    0.0448 H       1  NONAME1     0.0329
     47 H7          8.0153   -5.0941   -0.7361 H       1  NONAME1     0.0329
     48 H8          5.4861   -5.4213    1.0154 H       1  NONAME1     0.0473
     49 H9          5.5309   -5.7189   -0.7155 H       1  NONAME1     0.0473
     50 H10         4.7604   -1.9102   -1.9775 H       1  NONAME1     0.0418
     51 H11         3.8265    0.0229   -1.7967 H       1  NONAME1     0.0471
     52 H12         2.2784   -1.0302    0.5861 H       1  NONAME1     0.0328
     53 H13         1.9690    0.5055   -0.2343 H       1  NONAME1     0.0328
     54 H14        -0.2763   -1.0848   -0.0465 H       1  NONAME1     0.0621
     55 H15        -1.8370   -2.2215   -1.5718 H       1  NONAME1     0.0655
     56 H16        -2.0494   -3.2538   -3.5991 H       1  NONAME1     0.2923
     57 H17         0.6383   -3.2042   -5.0984 H       1  NONAME1     0.2923
     58 H18         2.8409   -1.4748   -3.0337 H       1  NONAME1     0.0658
     59 H19         4.6825    1.4400   -0.4146 H       1  NONAME1     0.1235
     60 H20         8.2431    1.5175   -2.4205 H       1  NONAME1     0.1549
     61 H21        10.5288    0.6030   -1.4677 H       1  NONAME1     0.0636
     62 H22        11.5395   -0.9276    0.2118 H       1  NONAME1     0.0618
     63 H23        10.0792   -2.1052    1.8216 H       1  NONAME1     0.0618
     64 H24         7.6555   -1.7193    1.8402 H       1  NONAME1     0.0622
     65 H25         5.5146   -1.7177    0.9660 H       1  NONAME1     0.0429
     66 H26        10.1294   -6.1415    0.4127 H       1  NONAME1     0.0658
     67 H27        11.9371   -6.6125    4.1395 H       1  NONAME1     0.0660
     68 H28        12.7829   -7.5711    2.9172 H       1  NONAME1     0.0660
     69 H29        13.5065   -6.0631    3.4812 H       1  NONAME1     0.0660
@<TRIPOS>BOND
     1     1     2    1
     2     2     3    1
     3     3     4   ar
     4     4     5   ar
     5     5     6   ar
     6     6     7    1
     7     7     8    1
     8     8     9    1
     9     9    10   am
    10    10    11    2
    11    12    10    1
    12    12    13    1
    13    13    14    1
    14    14    15    1
    15    15    16   ar
    16    16    17   ar
    17    17    18   ar
    18    18    19    1
    19    18    20   ar
    20    20    21    1
    21    20    22   ar
    22    15    22   ar
    23    13    23    1
    24    24    23    1
    25    24    25    1
    26    25    26    2
    27    25    27   am
    28    27    28    1
    29    28    29   ar
    30    29    30   ar
    31    30    31   ar
    32    31    32   ar
    33    32    33   ar
    34    28    33   ar
    35    24    33    1
    36    34    24    1
    37    12    34    1
    38    34    35    1
    39     9    35   am
    40    35    36    2
    41     6    37   ar
    42    37    38   ar
    43     3    38   ar
    44    38    39    1
    45    39    40    1
    46     1    41    1
    47     1    42    1
    48     1    43    1
    49     4    44    1
    50     5    45    1
    51     7    46    1
    52     7    47    1
    53     8    48    1
    54     8    49    1
    55    12    50    1
    56    13    51    1
    57    14    52    1
    58    14    53    1
    59    16    54    1
    60    17    55    1
    61    19    56    1
    62    21    57    1
    63    22    58    1
    64    23    59    1
    65    27    60    1
    66    29    61    1
    67    30    62    1
    68    31    63    1
    69    32    64    1
    70    34    65    1
    71    37    66    1
    72    40    67    1
    73    40    68    1
    74    40    69    1
