@<TRIPOS>MOLECULE
*****
 56 59 0 0 0
SMALL
USER_CHARGES

@<TRIPOS>ATOM
      1 C1         10.4915   -3.6338    0.1888 C.3     1  NONAME1     0.0788
      2 O1         11.7318   -2.9436    0.1336 O.3     1  NONAME1    -0.4950
      3 C2         12.8677   -3.7052    0.1362 C.ar    1  NONAME1     0.1237
      4 C3         14.0471   -2.9877    0.2676 C.ar    1  NONAME1    -0.0180
      5 C4         15.2811   -3.6438    0.2703 C.ar    1  NONAME1    -0.0335
      6 C5         15.3961   -5.0314    0.0877 C.ar    1  NONAME1     0.0751
      7 N1         16.7278   -5.6173    0.0203 N.am    1  NONAME1    -0.2929
      8 C6         17.9378   -5.0046   -0.4227 C.2     1  NONAME1     0.1526
      9 S1         18.0330   -3.6389   -1.4192 S.2     1  NONAME1    -0.0171
     10 N2         19.0936   -5.6785    0.0262 N.am    1  NONAME1    -0.2239
     11 N3         20.4738   -5.0655   -0.1555 N.am    1  NONAME1    -0.1054
     12 C7         21.5502   -5.8323    0.1419 C.2     1  NONAME1     0.3166
     13 O2         21.5285   -7.0292    0.4278 O.2     1  NONAME1    -0.2634
     14 C8         22.8123   -5.0452    0.0714 C.ar    1  NONAME1     0.1929
     15 C9         23.0491   -3.6799   -0.0308 C.ar    1  NONAME1    -0.0108
     16 C10        24.4506   -3.4708   -0.0455 C.ar    1  NONAME1    -0.0165
     17 C11        25.0470   -4.7127    0.0366 C.ar    1  NONAME1     0.1432
     18 C12        26.4912   -5.1563    0.0413 C.3     1  NONAME1     0.1469
     19 O3         27.3180   -3.9729    0.0298 O.3     1  NONAME1    -0.4843
     20 C13        28.6856   -4.0733    0.0181 C.ar    1  NONAME1     0.1217
     21 C14        29.3520   -2.8428    0.0064 C.ar    1  NONAME1    -0.0193
     22 C15        30.7477   -2.7700   -0.0012 C.ar    1  NONAME1    -0.0506
     23 C16        31.5280   -3.9303    0.0026 C.ar    1  NONAME1    -0.0177
     24 C17        32.9345   -3.8687   -0.0027 C.ar    1  NONAME1    -0.0540
     25 C18        33.7053   -5.0319    0.0011 C.ar    1  NONAME1    -0.0612
     26 C19        33.0737   -6.2712    0.0088 C.ar    1  NONAME1    -0.0612
     27 C20        31.6757   -6.3468    0.0148 C.ar    1  NONAME1    -0.0539
     28 C21        30.8752   -5.1861    0.0135 C.ar    1  NONAME1    -0.0144
     29 C22        29.4525   -5.2396    0.0208 C.ar    1  NONAME1    -0.0122
     30 O4         24.0588   -5.6785    0.1211 O.2     1  NONAME1    -0.4515
     31 C23        14.1676   -5.7739    0.0449 C.ar    1  NONAME1     0.1446
     32 O5         14.1771   -7.1469    0.0000 O.3     1  NONAME1    -0.4931
     33 C24        12.8434   -7.9169    0.0000 C.3     1  NONAME1     0.0789
     34 C25        12.9308   -5.0943    0.0379 C.ar    1  NONAME1     0.0236
     35 H1          9.7004   -2.8881    0.3121 H       1  NONAME1     0.0660
     36 H2         10.3022   -4.1737   -0.7446 H       1  NONAME1     0.0660
     37 H3         10.4482   -4.3069    1.0515 H       1  NONAME1     0.0660
     38 H4         14.0211   -1.9064    0.3740 H       1  NONAME1     0.0655
     39 H5         16.1612   -3.0318    0.4468 H       1  NONAME1     0.0638
     40 H6         16.7748   -6.6224    0.1107 H       1  NONAME1     0.1540
     41 H7         19.1074   -6.5881    0.4745 H       1  NONAME1     0.1738
     42 H8         22.2736   -2.9288   -0.0780 H       1  NONAME1     0.0657
     43 H9         24.9718   -2.5256   -0.1101 H       1  NONAME1     0.0653
     44 H10        26.6937   -5.7522   -0.8555 H       1  NONAME1     0.0779
     45 H11        26.6986   -5.7403    0.9444 H       1  NONAME1     0.0779
     46 H12        28.7754   -1.9209    0.0041 H       1  NONAME1     0.0654
     47 H13        31.2263   -1.7896   -0.0100 H       1  NONAME1     0.0625
     48 H14        33.4460   -2.9067   -0.0082 H       1  NONAME1     0.0624
     49 H15        34.7903   -4.9690   -0.0017 H       1  NONAME1     0.0618
     50 H16        33.6708   -7.1803    0.0114 H       1  NONAME1     0.0618
     51 H17        31.2121   -7.3308    0.0212 H       1  NONAME1     0.0624
     52 H18        28.9706   -6.2132    0.0300 H       1  NONAME1     0.0660
     53 H19        12.8088   -7.9936   -1.1024 H       1  NONAME1     0.0660
     54 H20        11.5097   -8.6869    0.0000 H       1  NONAME1     0.0660
     55 H21        13.3055   -8.8401    0.3913 H       1  NONAME1     0.0660
     56 H22        12.0134   -5.6580   -0.0580 H       1  NONAME1     0.0691
@<TRIPOS>BOND
     1     1     2    1
     2     2     3    1
     3     3     4   ar
     4     4     5   ar
     5     5     6   ar
     6     6     7    1
     7     7     8    1
     8     8     9    2
     9     8    10    1
    10    10    11    1
    11    11    12   am
    12    12    13    2
    13    12    14    1
    14    14    15   ar
    15    15    16   ar
    16    16    17   ar
    17    17    18    1
    18    18    19    1
    19    19    20    1
    20    20    21   ar
    21    21    22   ar
    22    22    23   ar
    23    23    24   ar
    24    24    25   ar
    25    25    26   ar
    26    26    27   ar
    27    27    28   ar
    28    23    28   ar
    29    28    29   ar
    30    20    29   ar
    31    17    30   ar
    32    14    30   ar
    33     6    31   ar
    34    31    32    1
    35    32    33    1
    36    31    34   ar
    37     3    34   ar
    38     1    35    1
    39     1    36    1
    40     1    37    1
    41     4    38    1
    42     5    39    1
    43     7    40    1
    44    10    41    1
    45    15    42    1
    46    16    43    1
    47    18    44    1
    48    18    45    1
    49    21    46    1
    50    22    47    1
    51    24    48    1
    52    25    49    1
    53    26    50    1
    54    27    51    1
    55    29    52    1
    56    33    53    1
    57    33    54    1
    58    33    55    1
    59    34    56    1
