@<TRIPOS>MOLECULE
*****
 57 59 0 0 0
SMALL
USER_CHARGES

@<TRIPOS>ATOM
      1 C1         -2.6303  -14.3479   -0.0672 C.3     1  NONAME1     0.0820
      2 O1         -1.3351  -13.7338   -0.0817 O.3     1  NONAME1    -0.4645
      3 C2         -0.2944  -14.5958    0.0548 C.2     1  NONAME1     0.3389
      4 O2         -0.3867  -15.8057    0.1832 O.2     1  NONAME1    -0.2450
      5 C3          1.0121  -13.8709    0.0284 C.ar    1  NONAME1     0.0597
      6 C4          1.1028  -12.4781    0.0320 C.ar    1  NONAME1    -0.0477
      7 C5          2.3596  -11.8619    0.0188 C.ar    1  NONAME1    -0.0603
      8 C6          3.5415  -12.6236   -0.0034 C.ar    1  NONAME1    -0.0496
      9 C7          3.4761  -14.0205   -0.0110 C.ar    1  NONAME1     0.0378
     10 C8          4.6682  -14.9436   -0.0590 C.2     1  NONAME1     0.2496
     11 O3          4.4148  -16.1422   -0.1689 O.2     1  NONAME1    -0.2698
     12 N1          5.9753  -14.4239   -0.0037 N.am    1  NONAME1    -0.2627
     13 C9          7.1874  -15.1443    0.0316 C.2     1  NONAME1     0.1533
     14 S1          7.3522  -16.8217    0.0683 S.2     1  NONAME1    -0.0170
     15 N2          8.3223  -14.3204    0.0503 N.am    1  NONAME1    -0.2453
     16 N3          9.6225  -14.9154    0.0523 N.am    1  NONAME1    -0.2311
     17 C10        10.7653  -14.1292    0.0199 C.2     1  NONAME1     0.2601
     18 O4         10.6944  -12.8998   -0.0224 O.2     1  NONAME1    -0.2687
     19 C11        12.1119  -14.8304    0.0358 C.ar    1  NONAME1     0.0383
     20 C12        13.2795  -14.0535   -0.0364 C.ar    1  NONAME1    -0.0478
     21 C13        14.5713  -14.6378   -0.0196 C.ar    1  NONAME1    -0.0398
     22 C14        14.7433  -16.0196    0.0781 C.ar    1  NONAME1     0.0337
     23 N4         16.0063  -16.7014    0.1132 N.am    1  NONAME1    -0.2815
     24 C15        17.2890  -16.1540   -0.0053 C.2     1  NONAME1     0.2485
     25 O5         17.4701  -14.9429   -0.1395 O.2     1  NONAME1    -0.2698
     26 C16        18.5622  -17.0496    0.0217 C.ar    1  NONAME1     0.0399
     27 C17        19.7727  -16.3310    0.0361 C.ar    1  NONAME1    -0.0494
     28 C18        21.0139  -16.9769    0.0199 C.ar    1  NONAME1    -0.0610
     29 C19        21.0838  -18.3666   -0.0193 C.ar    1  NONAME1    -0.0615
     30 C20        19.9164  -19.1243   -0.0332 C.ar    1  NONAME1    -0.0581
     31 C21        18.6715  -18.4800    0.0000 C.ar    1  NONAME1    -0.0383
     32 C22        17.3378  -19.2500    0.0000 C.3     1  NONAME1    -0.0390
     33 C23        13.5730  -16.7966    0.1512 C.ar    1  NONAME1    -0.0398
     34 C24        12.2793  -16.2175    0.1282 C.ar    1  NONAME1    -0.0478
     35 C25         2.1966  -14.6265    0.0094 C.ar    1  NONAME1    -0.0356
     36 H1         -3.3366  -13.6636   -0.5468 H       1  NONAME1     0.0661
     37 H2         -2.9489  -14.5064    0.9675 H       1  NONAME1     0.0661
     38 H3         -2.6472  -15.2922   -0.6214 H       1  NONAME1     0.0661
     39 H4          0.2067  -11.8608    0.0482 H       1  NONAME1     0.0626
     40 H5          2.4140  -10.7738    0.0230 H       1  NONAME1     0.0618
     41 H6          4.4831  -12.0875   -0.0210 H       1  NONAME1     0.0625
     42 H7          6.0703  -13.4252    0.0603 H       1  NONAME1     0.1569
     43 H8          8.3150  -13.3079   -0.0542 H       1  NONAME1     0.1718
     44 H9          9.6268  -15.9314    0.0563 H       1  NONAME1     0.1731
     45 H10        13.2036  -12.9682   -0.1050 H       1  NONAME1     0.0626
     46 H11        15.4234  -13.9661   -0.0755 H       1  NONAME1     0.0636
     47 H12        15.9220  -17.6900    0.2551 H       1  NONAME1     0.1551
     48 H13        19.7650  -15.2412    0.0550 H       1  NONAME1     0.0625
     49 H14        21.9258  -16.3843    0.0308 H       1  NONAME1     0.0618
     50 H15        22.0535  -18.8578   -0.0391 H       1  NONAME1     0.0618
     51 H16        19.9817  -20.2088   -0.0650 H       1  NONAME1     0.0620
     52 H17        17.3956  -19.5093   -1.0772 H       1  NONAME1     0.0278
     53 H18        16.0041  -20.0200    0.0000 H       1  NONAME1     0.0278
     54 H19        17.7098  -20.0946    0.6139 H       1  NONAME1     0.0278
     55 H20        13.6387  -17.8806    0.2217 H       1  NONAME1     0.0636
     56 H21        11.4299  -16.8908    0.1888 H       1  NONAME1     0.0626
     57 H22         2.1162  -15.7154    0.0050 H       1  NONAME1     0.0633
@<TRIPOS>BOND
     1     1     2    1
     2     2     3    1
     3     3     4    2
     4     3     5    1
     5     5     6   ar
     6     6     7   ar
     7     7     8   ar
     8     8     9   ar
     9     9    10    1
    10    10    11    2
    11    10    12   am
    12    12    13    1
    13    13    14    2
    14    13    15    1
    15    15    16    1
    16    16    17   am
    17    17    18    2
    18    17    19    1
    19    19    20   ar
    20    20    21   ar
    21    21    22   ar
    22    22    23    1
    23    23    24   am
    24    24    25    2
    25    24    26    1
    26    26    27   ar
    27    27    28   ar
    28    28    29   ar
    29    29    30   ar
    30    30    31   ar
    31    26    31   ar
    32    31    32    1
    33    22    33   ar
    34    33    34   ar
    35    19    34   ar
    36     9    35   ar
    37     5    35   ar
    38     1    36    1
    39     1    37    1
    40     1    38    1
    41     6    39    1
    42     7    40    1
    43     8    41    1
    44    12    42    1
    45    15    43    1
    46    16    44    1
    47    20    45    1
    48    21    46    1
    49    23    47    1
    50    27    48    1
    51    28    49    1
    52    29    50    1
    53    30    51    1
    54    32    52    1
    55    32    53    1
    56    32    54    1
    57    33    55    1
    58    34    56    1
    59    35    57    1
