@<TRIPOS>MOLECULE
*****
 61 64 0 0 0
SMALL
USER_CHARGES

@<TRIPOS>ATOM
      1 C1         10.4702    4.2750    0.0000 C.3     1  NONAME1    -0.0307
      2 C2         10.4702    2.7350    0.0000 C.3     1  NONAME1     0.0870
      3 O1         11.8293    2.0011   -0.1042 O.3     1  NONAME1    -0.4885
      4 C3         11.9276    0.5914    0.1246 C.ar    1  NONAME1     0.1651
      5 C4         10.7528   -0.2520    0.0735 C.ar    1  NONAME1    -0.0121
      6 C5         10.7032   -1.6183    0.5531 C.ar    1  NONAME1    -0.0315
      7 C6          9.4158   -2.5616    0.6121 C.3     1  NONAME1     0.0480
      8 C7          9.4954   -4.1243    0.3601 C.ar    1  NONAME1     0.0504
      9 C8          8.3209   -4.9659    0.7530 C.ar    1  NONAME1     0.2688
     10 O2          7.3538   -4.5675    1.3798 O.2     1  NONAME1    -0.2661
     11 N1          8.5868   -6.2820    0.3980 N.ar    1  NONAME1    -0.2657
     12 N2          9.9414   -6.4000    0.0732 N.ar    1  NONAME1    -0.3012
     13 C9         10.3825   -5.1002    0.0000 C.ar    1  NONAME1     0.0388
     14 C10        11.8471   -4.6243    0.0000 C.3     1  NONAME1    -0.0226
     15 C11         8.1902   -1.9455   -0.0348 C.ar    1  NONAME1     0.0504
     16 C12         7.4042   -0.9108    0.3425 C.ar    1  NONAME1     0.0388
     17 C13         7.6384    0.0821    1.4332 C.3     1  NONAME1    -0.0226
     18 N3          6.2509   -0.8023   -0.4202 N.ar    1  NONAME1    -0.3012
     19 N4          6.3751   -1.7055   -1.4633 N.ar    1  NONAME1    -0.2657
     20 C14         7.4740   -2.5133   -1.2138 C.ar    1  NONAME1     0.2688
     21 O3          7.7707   -3.5150   -1.8399 O.2     1  NONAME1    -0.2661
     22 C15        11.8553   -2.0371    1.2183 C.ar    1  NONAME1    -0.0539
     23 C16        13.0639   -1.3334    1.1120 C.ar    1  NONAME1    -0.0131
     24 C17        13.1622   -0.0843    0.4663 C.ar    1  NONAME1     0.1981
     25 O4         14.5137    0.3268    0.3314 O.3     1  NONAME1    -0.3386
     26 S1         15.5034   -0.4289   -0.8189 S.O2    1  NONAME1     0.1511
     27 O5         14.7819   -1.5455   -1.4107 O.2     1  NONAME1    -0.1314
     28 O6         16.0109    0.6247   -1.6830 O.2     1  NONAME1    -0.1314
     29 C18        17.1277   -1.2458   -0.1331 C.ar    1  NONAME1     0.1281
     30 C19        18.3583   -0.5562   -0.1242 C.ar    1  NONAME1    -0.0332
     31 C20        19.6526   -1.2460   -0.0405 C.ar    1  NONAME1    -0.0569
     32 C21        19.8060   -2.6550    0.0000 C.ar    1  NONAME1    -0.0503
     33 C22        21.1397   -3.4250    0.0000 C.3     1  NONAME1    -0.0397
     34 C23        18.5482   -3.3182   -0.0584 C.ar    1  NONAME1    -0.0569
     35 C24        17.2546   -2.6479   -0.1311 C.ar    1  NONAME1    -0.0332
     36 H1         11.1718    4.3698    0.8525 H       1  NONAME1     0.0262
     37 H2         10.4702    5.8150    0.0000 H       1  NONAME1     0.0262
     38 H3          9.4231    4.3733    0.3507 H       1  NONAME1     0.0262
     39 H4          9.8930    2.3876   -0.8632 H       1  NONAME1     0.0694
     40 H5         10.0142    2.3635    0.9256 H       1  NONAME1     0.0694
     41 H6          9.8505    0.1777   -0.3503 H       1  NONAME1     0.0658
     42 H7          9.1902   -2.5191    1.6923 H       1  NONAME1     0.0450
     43 H8          8.1266   -7.0226    0.9125 H       1  NONAME1     0.1899
     44 H9         10.0896   -6.8836   -0.8177 H       1  NONAME1     0.1864
     45 H10        12.2151   -5.4455    0.6507 H       1  NONAME1     0.0292
     46 H11        13.3117   -4.1484    0.0000 H       1  NONAME1     0.0292
     47 H12        12.0226   -4.8969   -1.0617 H       1  NONAME1     0.0292
     48 H13         7.8035    1.0739    0.9950 H       1  NONAME1     0.0292
     49 H14         8.5115   -0.1611    2.0442 H       1  NONAME1     0.0292
     50 H15         6.7707    0.1468    2.0952 H       1  NONAME1     0.0292
     51 H16         6.0110    0.1528   -0.6909 H       1  NONAME1     0.1864
     52 H17         5.5481   -2.1584   -1.8384 H       1  NONAME1     0.1899
     53 H18        11.8534   -2.9562    1.8011 H       1  NONAME1     0.0622
     54 H19        13.9542   -1.7895    1.5430 H       1  NONAME1     0.0656
     55 H20        18.3666    0.5274   -0.2464 H       1  NONAME1     0.0638
     56 H21        20.5468   -0.6204   -0.0515 H       1  NONAME1     0.0621
     57 H22        20.7751   -4.2470    0.6510 H       1  NONAME1     0.0278
     58 H23        22.4734   -4.1950    0.0000 H       1  NONAME1     0.0278
     59 H24        21.6568   -2.7052    0.6684 H       1  NONAME1     0.0278
     60 H25        18.5352   -4.4097   -0.0923 H       1  NONAME1     0.0621
     61 H26        16.3693   -3.2695   -0.2657 H       1  NONAME1     0.0638
@<TRIPOS>BOND
     1     1     2    1
     2     2     3    1
     3     3     4    1
     4     4     5   ar
     5     5     6   ar
     6     7     6    1
     7     7     8    1
     8     8     9   ar
     9     9    10    2
    10     9    11   ar
    11    11    12   ar
    12    12    13   ar
    13     8    13   ar
    14    13    14    1
    15     7    15    1
    16    15    16   ar
    17    16    17    1
    18    16    18   ar
    19    18    19   ar
    20    19    20   ar
    21    15    20   ar
    22    20    21    2
    23     6    22   ar
    24    22    23   ar
    25    23    24   ar
    26     4    24   ar
    27    24    25    1
    28    25    26    1
    29    26    27    2
    30    26    28    2
    31    26    29    1
    32    29    30   ar
    33    30    31   ar
    34    31    32   ar
    35    32    33    1
    36    32    34   ar
    37    34    35   ar
    38    29    35   ar
    39     1    36    1
    40     1    37    1
    41     1    38    1
    42     2    39    1
    43     2    40    1
    44     5    41    1
    45     7    42    1
    46    11    43    1
    47    12    44    1
    48    14    45    1
    49    14    46    1
    50    14    47    1
    51    17    48    1
    52    17    49    1
    53    17    50    1
    54    18    51    1
    55    19    52    1
    56    22    53    1
    57    23    54    1
    58    30    55    1
    59    31    56    1
    60    33    57    1
    61    33    58    1
    62    33    59    1
    63    34    60    1
    64    35    61    1
