@<TRIPOS>MOLECULE
*****
 41 41 0 0 0
SMALL
USER_CHARGES

@<TRIPOS>ATOM
      1 C1          5.0016    5.7187    5.6772 C.3     1  NONAME1     0.0788
      2 O1          5.3349    4.7290    4.5454 O.3     1  NONAME1    -0.4951
      3 C2          4.4536    4.5535    3.5309 C.ar    1  NONAME1     0.1204
      4 C3          3.1843    5.1008    3.4531 C.ar    1  NONAME1    -0.0199
      5 C4          2.3994    4.8217    2.3329 C.ar    1  NONAME1    -0.0580
      6 C5          2.8874    4.0001    1.3045 C.ar    1  NONAME1    -0.0576
      7 C6          4.1706    3.4265    1.3703 C.ar    1  NONAME1    -0.0341
      8 C7          4.6674    2.5982    0.1986 C.3     1  NONAME1     0.0189
      9 S1          6.0335    1.4116    0.4914 S.3     1  NONAME1    -0.1555
     10 C8          7.4669    2.3802   -0.1406 C.3     1  NONAME1     0.0041
     11 C9          8.8066    1.6507    0.0477 C.3     1  NONAME1     0.0539
     12 C10         9.4223    1.1536   -1.2560 C.2     1  NONAME1     0.3084
     13 O2          9.6106    1.8375   -2.2484 O.2     1  NONAME1    -0.2508
     14 O3          9.6771   -0.1787   -1.1640 O.3     1  NONAME1    -0.4589
     15 C11        10.0186   -1.1274   -2.3281 C.3     1  NONAME1     0.1052
     16 C12        10.3600   -2.0761   -3.4921 C.3     1  NONAME1    -0.0254
     17 C13        11.3615   -1.4687   -1.6560 C.3     1  NONAME1    -0.0254
     18 C14         8.6756   -0.7860   -3.0002 C.3     1  NONAME1    -0.0254
     19 C15         4.9389    3.7272    2.4995 C.ar    1  NONAME1    -0.0160
     20 H1          5.3470    6.6006    5.1061 H       1  NONAME1     0.0660
     21 H2          4.6682    6.7085    6.8090 H       1  NONAME1     0.0660
     22 H3          5.8397    5.3748    6.3084 H       1  NONAME1     0.0660
     23 H4          2.7871    5.7354    4.2377 H       1  NONAME1     0.0654
     24 H5          1.4013    5.2474    2.2553 H       1  NONAME1     0.0619
     25 H6          2.2487    3.8130    0.4424 H       1  NONAME1     0.0621
     26 H7          3.8284    1.9816   -0.1476 H       1  NONAME1     0.0425
     27 H8          4.9343    3.2665   -0.6265 H       1  NONAME1     0.0425
     28 H9          7.4888    3.3093    0.4383 H       1  NONAME1     0.0382
     29 H10         7.2810    2.6287   -1.1892 H       1  NONAME1     0.0382
     30 H11         8.7173    0.8173    0.7552 H       1  NONAME1     0.0386
     31 H12         9.5415    2.3402    0.4786 H       1  NONAME1     0.0386
     32 H13         9.7180   -2.9344   -3.2076 H       1  NONAME1     0.0268
     33 H14        10.7014   -3.0248   -4.6562 H       1  NONAME1     0.0268
     34 H15        10.1587   -1.4059   -4.3533 H       1  NONAME1     0.0268
     35 H16        11.6800   -0.7781   -0.8618 H       1  NONAME1     0.0268
     36 H17        11.3029   -2.4549   -1.1752 H       1  NONAME1     0.0268
     37 H18        12.2125   -1.4736   -2.3528 H       1  NONAME1     0.0268
     38 H19         8.3085   -1.7984   -3.2941 H       1  NONAME1     0.0268
     39 H20         7.3327   -0.4446   -3.6722 H       1  NONAME1     0.0268
     40 H21         8.0275   -0.6869   -2.0942 H       1  NONAME1     0.0268
     41 H22         5.9429    3.3237    2.6072 H       1  NONAME1     0.0657
@<TRIPOS>BOND
     1     1     2    1
     2     2     3    1
     3     3     4   ar
     4     4     5   ar
     5     5     6   ar
     6     6     7   ar
     7     7     8    1
     8     8     9    1
     9     9    10    1
    10    10    11    1
    11    11    12    1
    12    12    13    2
    13    12    14    1
    14    14    15    1
    15    15    16    1
    16    15    17    1
    17    15    18    1
    18     7    19   ar
    19     3    19   ar
    20     1    20    1
    21     1    21    1
    22     1    22    1
    23     4    23    1
    24     5    24    1
    25     6    25    1
    26     8    26    1
    27     8    27    1
    28    10    28    1
    29    10    29    1
    30    11    30    1
    31    11    31    1
    32    16    32    1
    33    16    33    1
    34    16    34    1
    35    17    35    1
    36    17    36    1
    37    17    37    1
    38    18    38    1
    39    18    39    1
    40    18    40    1
    41    19    41    1
