@<TRIPOS>MOLECULE
*****
 45 47 0 0 0
SMALL
USER_CHARGES

@<TRIPOS>ATOM
      1 O1          5.1286   -8.4775    2.4047 O.2     1  NONAME1    -0.2749
      2 C1          5.7045   -8.6596    1.3356 C.2     1  NONAME1     0.2236
      3 C2          5.3769   -7.9267    0.0399 C.3     1  NONAME1     0.0776
      4 S1          3.9394   -6.8254    0.1872 S.3     1  NONAME1    -0.0768
      5 C3          2.6330   -7.9259   -0.0092 C.ar    1  NONAME1     0.1907
      6 N1          2.6513   -9.1723   -0.4071 N.ar    1  NONAME1    -0.1210
      7 N2          1.3389   -9.6062   -0.4319 N.ar    1  NONAME1    -0.1110
      8 C4          0.5577   -8.6139   -0.0486 C.ar    1  NONAME1     0.2346
      9 N3         -0.7891   -8.5258    0.1212 N.pl3   1  NONAME1    -0.2053
     10 N4         -1.7477   -9.4997   -0.0053 N.2     1  NONAME1    -0.1874
     11 C5         -1.3842  -10.7408    0.1034 C.2     1  NONAME1     0.0563
     12 C6         -2.3592  -11.8504    0.0180 C.ar    1  NONAME1     0.0360
     13 C7         -1.8503  -13.1551    0.0309 C.ar    1  NONAME1    -0.0496
     14 C8         -2.7221  -14.2456   -0.0024 C.ar    1  NONAME1    -0.0609
     15 C9         -4.1003  -14.0362   -0.0449 C.ar    1  NONAME1    -0.0583
     16 C10        -4.6109  -12.7369   -0.0642 C.ar    1  NONAME1    -0.0195
     17 C11        -3.7432  -11.6463   -0.0383 C.ar    1  NONAME1     0.1255
     18 O2         -4.3185  -10.4064   -0.0598 O.3     1  NONAME1    -0.5061
     19 N5          1.3513   -7.5269    0.2099 N.ar    1  NONAME1    -0.3033
     20 N6          6.7757   -9.5366    1.2090 N.am    1  NONAME1    -0.3105
     21 C12         7.1430  -10.3699    2.3345 C.3     1  NONAME1     0.0369
     22 C13         8.4756  -11.0759    2.2241 C.ar    1  NONAME1    -0.0303
     23 C14         8.7993  -12.0152    3.2221 C.ar    1  NONAME1    -0.0571
     24 C15        10.0170  -12.6984    3.2070 C.ar    1  NONAME1    -0.0615
     25 C16        10.9349  -12.4549    2.1908 C.ar    1  NONAME1    -0.0617
     26 C17        10.6378  -11.5219    1.1989 C.ar    1  NONAME1    -0.0615
     27 C18         9.4211  -10.8298    1.2187 C.ar    1  NONAME1    -0.0571
     28 H1          5.2334   -8.6464   -0.7717 H       1  NONAME1     0.0475
     29 H2          6.2410   -7.3020   -0.2104 H       1  NONAME1     0.0475
     30 H3         -1.1924   -7.5958    0.2320 H       1  NONAME1     0.1774
     31 H4         -0.3434  -11.0464    0.2934 H       1  NONAME1     0.0852
     32 H5         -0.7781  -13.3333    0.0665 H       1  NONAME1     0.0625
     33 H6         -2.3255  -15.2582    0.0087 H       1  NONAME1     0.0618
     34 H7         -4.7789  -14.8849   -0.0618 H       1  NONAME1     0.0619
     35 H8         -5.6846  -12.5738   -0.0964 H       1  NONAME1     0.0654
     36 H9         -3.5833   -9.7530   -0.0750 H       1  NONAME1     0.2922
     37 H10         1.0585   -6.6187    0.5278 H       1  NONAME1     0.1706
     38 H11         6.9862   -9.8859    0.2842 H       1  NONAME1     0.1490
     39 H12         6.3496  -11.1208    2.4327 H       1  NONAME1     0.0512
     40 H13         7.1437   -9.7533    3.2412 H       1  NONAME1     0.0512
     41 H14         8.0984  -12.2143    4.0316 H       1  NONAME1     0.0621
     42 H15        10.2482  -13.4147    3.9913 H       1  NONAME1     0.0618
     43 H16        11.8841  -12.9852    2.1760 H       1  NONAME1     0.0618
     44 H17        11.3603  -11.3266    0.4101 H       1  NONAME1     0.0618
     45 H18         9.2368  -10.0934    0.4421 H       1  NONAME1     0.0621
@<TRIPOS>BOND
     1     1     2    2
     2     2     3    1
     3     3     4    1
     4     4     5    1
     5     5     6   ar
     6     6     7   ar
     7     7     8   ar
     8     8     9    1
     9    10     9    1
    10    10    11    2
    11    11    12    1
    12    12    13   ar
    13    13    14   ar
    14    14    15   ar
    15    15    16   ar
    16    16    17   ar
    17    12    17   ar
    18    17    18    1
    19     8    19   ar
    20     5    19   ar
    21     2    20   am
    22    20    21    1
    23    21    22    1
    24    22    23   ar
    25    23    24   ar
    26    24    25   ar
    27    25    26   ar
    28    26    27   ar
    29    22    27   ar
    30     3    28    1
    31     3    29    1
    32     9    30    1
    33    11    31    1
    34    13    32    1
    35    14    33    1
    36    15    34    1
    37    16    35    1
    38    18    36    1
    39    19    37    1
    40    20    38    1
    41    21    39    1
    42    21    40    1
    43    23    41    1
    44    24    42    1
    45    25    43    1
    46    26    44    1
    47    27    45    1
