REMARK  10 active torsions:
REMARK  status: ('A' for Active; 'I' for Inactive)
REMARK    1  A    between atoms: C2_2  and  C4_4 
REMARK    2  A    between atoms: C4_4  and  C5_5 
REMARK    3  A    between atoms: C9_9  and  C8_8 
REMARK    4  A    between atoms: C9_9  and  C11_11 
REMARK       I    between atoms: C11_11  and  N1_13 
REMARK    5  A    between atoms: N1_13  and  N2_14 
REMARK    6  A    between atoms: C12_15  and  C13_16 
REMARK    7  A    between atoms: C16_19  and  O2_20 
REMARK    8  A    between atoms: O2_20  and  C17_21 
REMARK    9  A    between atoms: C20_24  and  N3_25 
REMARK   10  A    between atoms: C22_29  and  N4_30 
ROOT
ATOM      1  C13 NON d   1     -10.380 -21.218  -0.025  0.00  0.00    -0.017 A 
ATOM      2  C14 NON d   1     -10.149 -22.595  -0.126  0.00  0.00     0.015 A 
ATOM      3  C15 NON d   1     -11.208 -23.531  -0.110  0.00  0.00     0.038 A 
ATOM      4  C16 NON d   1     -12.527 -23.130   0.063  0.00  0.00     0.076 A 
ATOM      5  C23 NON d   1     -12.752 -21.737   0.133  0.00  0.00     0.038 A 
ATOM      6  C24 NON d   1     -11.700 -20.788   0.082  0.00  0.00     0.015 A 
ENDROOT
BRANCH   1   7
ATOM      7  C12 NON d   1      -9.186 -20.311  -0.042  0.00  0.00     0.150 C 
ATOM      8  N2  NON d   1      -9.235 -19.013  -0.007  0.00  0.00    -0.184 NA
BRANCH   8   9
ATOM      9  N1  NON d   1      -8.007 -18.337  -0.023  0.00  0.00    -0.247 N 
ATOM     10  C11 NON d   1      -8.002 -16.940   0.000  0.00  0.00     0.245 C 
ATOM     11  O1  NON d   1      -9.077 -16.329   0.032  0.00  0.00    -0.271 OA
ATOM     12  H16 NON d   1      -7.155 -18.879  -0.016  0.00  0.00     0.192 HD
BRANCH  10  13
ATOM     13  C9  NON d   1      -6.668 -16.170   0.000  0.00  0.00     0.108 C 
ATOM     14  C10 NON d   1      -5.335 -16.940   0.000  0.00  0.00     0.025 C 
BRANCH  13  15
ATOM     15  C8  NON d   1      -6.911 -14.504   0.195  0.00  0.00    -0.045 A 
ATOM     16  C7  NON d   1      -5.981 -13.708   0.941  0.00  0.00     0.008 A 
ATOM     17  C6  NON d   1      -5.877 -12.301   0.802  0.00  0.00     0.007 A 
ATOM     18  C5  NON d   1      -6.786 -11.568   0.033  0.00  0.00    -0.058 A 
ATOM     19  C26 NON d   1      -7.773 -12.325  -0.633  0.00  0.00     0.007 A 
ATOM     20  C25 NON d   1      -7.819 -13.761  -0.579  0.00  0.00     0.008 A 
BRANCH  18  21
ATOM     21  C4  NON d   1      -6.668 -10.010   0.000  0.00  0.00     0.042 C 
BRANCH  21  22
ATOM     22  C2  NON d   1      -8.002  -9.240   0.000  0.00  0.00    -0.019 C 
ATOM     23  C1  NON d   1      -8.002  -7.700  -0.018  0.00  0.00     0.010 C 
ATOM     24  C3  NON d   1      -8.722  -9.876   1.286  0.00  0.00     0.010 C 
ENDBRANCH  21  22
ENDBRANCH  18  21
ENDBRANCH  13  15
ENDBRANCH  10  13
ENDBRANCH   8   9
ENDBRANCH   1   7
BRANCH   4  25
ATOM     25  O2  NON d   1     -13.677 -23.883   0.185  0.00  0.00    -0.308 OA
BRANCH  25  26
ATOM     26  C17 NON d   1     -13.867 -25.246   0.102  0.00  0.00     0.109 A 
ATOM     27  C18 NON d   1     -12.886 -26.236   0.202  0.00  0.00     0.042 A 
ATOM     28  C19 NON d   1     -13.194 -27.609   0.112  0.00  0.00     0.039 A 
ATOM     29  C20 NON d   1     -14.518 -28.030  -0.028  0.00  0.00     0.105 A 
ATOM     30  C21 NON d   1     -15.537 -27.085  -0.076  0.00  0.00     0.075 A 
ATOM     31  C22 NON d   1     -15.204 -25.713  -0.008  0.00  0.00     0.139 A 
BRANCH  29  32
ATOM     32  N3  NON d   1     -14.834 -29.470  -0.093  0.00  0.00    -0.116 N 
ATOM     33  O3  NON d   1     -13.878 -30.254  -0.082  0.00  0.00    -0.532 OA
ATOM     34  O4  NON d   1     -16.022 -29.804  -0.139  0.00  0.00    -0.532 OA
ENDBRANCH  29  32
BRANCH  31  35
ATOM     35  N4  NON d   1     -16.331 -24.779  -0.002  0.00  0.00    -0.113 N 
ATOM     36  O5  NON d   1     -16.238 -23.747  -0.673  0.00  0.00    -0.532 OA
ATOM     37  O6  NON d   1     -17.334 -25.122   0.641  0.00  0.00    -0.532 OA
ENDBRANCH  31  35
ENDBRANCH  25  26
ENDBRANCH   4  25
TORSDOF 10
