@<TRIPOS>MOLECULE
*****
 37 37 0 0 0
SMALL
USER_CHARGES

@<TRIPOS>ATOM
      1 C1         -2.1701  -10.0578    0.9138 C.3     1  NONAME1    -0.0653
      2 C2         -1.6851   -9.1984   -0.2417 C.3     1  NONAME1    -0.0555
      3 C3         -0.3923   -8.4267    0.0581 C.3     1  NONAME1    -0.0450
      4 C4          0.8730   -9.2954    0.0372 C.3     1  NONAME1     0.0254
      5 C5          2.1495   -8.4631    0.1185 C.2     1  NONAME1     0.2291
      6 O1          2.1620   -7.2377    0.2277 O.2     1  NONAME1    -0.2743
      7 N1          3.3190   -9.2021    0.0556 N.am    1  NONAME1    -0.2341
      8 N2          4.5487   -8.5096    0.0785 N.am    1  NONAME1    -0.2303
      9 C6          5.7373   -9.2221    0.0096 C.2     1  NONAME1     0.2638
     10 O2          5.7490  -10.4524   -0.0711 O.2     1  NONAME1    -0.2685
     11 C7          7.0420   -8.4675    0.0395 C.ar    1  NONAME1     0.0831
     12 C8          7.0816   -7.0678    0.0825 C.ar    1  NONAME1    -0.0458
     13 C9          8.3066   -6.3893    0.1099 C.ar    1  NONAME1    -0.0574
     14 C10         9.5170   -7.0898    0.0937 C.ar    1  NONAME1    -0.0163
     15 C11         9.5214   -8.4815    0.0394 C.ar    1  NONAME1     0.1620
     16 O3         10.6694   -9.2400    0.0000 O.3     1  NONAME1    -0.4914
     17 C12        12.0031   -8.4700    0.0000 C.3     1  NONAME1     0.0790
     18 C13         8.2788   -9.1637    0.0167 C.ar    1  NONAME1     0.1708
     19 O4          8.3246  -10.5410   -0.0351 O.3     1  NONAME1    -0.5028
     20 H1         -1.4171  -10.7896    1.2209 H       1  NONAME1     0.0230
     21 H2         -2.4260   -9.4391    1.7811 H       1  NONAME1     0.0230
     22 H3         -3.0726  -10.6064    0.6222 H       1  NONAME1     0.0230
     23 H4         -2.4764   -8.4756   -0.4788 H       1  NONAME1     0.0263
     24 H5         -1.5539   -9.8218   -1.1337 H       1  NONAME1     0.0263
     25 H6         -0.4818   -7.9156    1.0239 H       1  NONAME1     0.0270
     26 H7         -0.2957   -7.6384   -0.6996 H       1  NONAME1     0.0270
     27 H8          0.8624   -9.9955    0.8792 H       1  NONAME1     0.0359
     28 H9          0.9068   -9.8739   -0.8932 H       1  NONAME1     0.0359
     29 H10         3.3581  -10.2141   -0.0549 H       1  NONAME1     0.1728
     30 H11         4.4652   -7.5000    0.1640 H       1  NONAME1     0.1731
     31 H12         6.1804   -6.4643    0.0909 H       1  NONAME1     0.0626
     32 H13         8.3161   -5.3012    0.1455 H       1  NONAME1     0.0619
     33 H14        10.4382   -6.5196    0.1182 H       1  NONAME1     0.0655
     34 H15        12.5979   -9.3778    0.2036 H       1  NONAME1     0.0660
     35 H16        13.3368   -7.7000    0.0000 H       1  NONAME1     0.0660
     36 H17        11.9962   -8.3123   -1.0951 H       1  NONAME1     0.0660
     37 H18         7.4060  -10.8853   -0.0634 H       1  NONAME1     0.2923
@<TRIPOS>BOND
     1     1     2    1
     2     2     3    1
     3     3     4    1
     4     4     5    1
     5     5     6    2
     6     5     7   am
     7     7     8    1
     8     8     9   am
     9     9    10    2
    10     9    11    1
    11    11    12   ar
    12    12    13   ar
    13    13    14   ar
    14    14    15   ar
    15    15    16    1
    16    16    17    1
    17    15    18   ar
    18    11    18   ar
    19    18    19    1
    20     1    20    1
    21     1    21    1
    22     1    22    1
    23     2    23    1
    24     2    24    1
    25     3    25    1
    26     3    26    1
    27     4    27    1
    28     4    28    1
    29     7    29    1
    30     8    30    1
    31    12    31    1
    32    13    32    1
    33    14    33    1
    34    17    34    1
    35    17    35    1
    36    17    36    1
    37    19    37    1
