REMARK  7 active torsions:
REMARK  status: ('A' for Active; 'I' for Inactive)
REMARK    1  A    between atoms: C2_2  and  O1_3 
REMARK    2  A    between atoms: C2_2  and  C10_16 
REMARK    3  A    between atoms: O1_3  and  C3_4 
REMARK    4  A    between atoms: C3_4  and  C4_6 
REMARK    5  A    between atoms: C9_12  and  N1_13 
REMARK       I    between atoms: C10_16  and  N2_18 
REMARK    6  A    between atoms: N2_18  and  N3_19 
REMARK       I    between atoms: N3_19  and  C11_20 
REMARK    7  A    between atoms: C11_20  and  C12_22 
ROOT
ATOM      1  C1  NON d   1       8.002  -7.700   0.000  0.00  0.00     0.050 C 
ATOM      2  C2  NON d   1       8.002  -9.240   0.000  0.00  0.00     0.221 C 
ENDROOT
BRANCH   2   3
ATOM      3  O1  NON d   1       7.015 -10.251   0.421  0.00  0.00    -0.303 OA
BRANCH   3   4
ATOM      4  C3  NON d   1       6.149 -10.488  -0.612  0.00  0.00     0.296 C 
ATOM      5  O2  NON d   1       6.284 -10.121  -1.770  0.00  0.00    -0.259 OA
BRANCH   4   6
ATOM      6  C4  NON d   1       4.862 -11.032  -0.152  0.00  0.00     0.072 A 
ATOM      7  C5  NON d   1       4.770 -12.399   0.117  0.00  0.00     0.022 A 
ATOM      8  C6  NON d   1       3.515 -12.975   0.362  0.00  0.00     0.025 A 
ATOM      9  C7  NON d   1       2.356 -12.193   0.335  0.00  0.00     0.036 A 
ATOM     10 Cl1  NON d   1       0.824 -12.921   0.615  0.00  0.00    -0.084 Cl
ATOM     11  C8  NON d   1       2.428 -10.830   0.071  0.00  0.00     0.060 A 
ATOM     12  C9  NON d   1       3.686 -10.266  -0.178  0.00  0.00     0.120 A 
BRANCH  12  13
ATOM     13  N1  NON d   1       3.720  -8.838  -0.428  0.00  0.00    -0.115 N 
ATOM     14  O3  NON d   1       4.375  -8.150   0.364  0.00  0.00    -0.532 OA
ATOM     15  O4  NON d   1       3.010  -8.408  -1.344  0.00  0.00    -0.532 OA
ENDBRANCH  12  13
ENDBRANCH   4   6
ENDBRANCH   3   4
ENDBRANCH   2   3
BRANCH   2  16
ATOM     16  C10 NON d   1       9.336 -10.010   0.000  0.00  0.00     0.265 C 
ATOM     17  O5  NON d   1       9.390 -11.242  -0.107  0.00  0.00    -0.269 OA
ATOM     18  N2  NON d   1      10.494  -9.278   0.151  0.00  0.00    -0.265 N 
ATOM     19  H8  NON d   1      10.565  -8.262   0.118  0.00  0.00     0.190 HD
BRANCH  18  20
ATOM     20  N3  NON d   1      11.710  -9.977   0.111  0.00  0.00    -0.263 N 
ATOM     21  C11 NON d   1      12.885  -9.256   0.057  0.00  0.00     0.270 C 
ATOM     22  O6  NON d   1      12.883  -8.025   0.047  0.00  0.00    -0.266 OA
ATOM     23  H9  NON d   1      11.629 -10.990   0.077  0.00  0.00     0.190 HD
BRANCH  21  24
ATOM     24  C12 NON d   1      14.169 -10.022   0.018  0.00  0.00     0.033 A 
ATOM     25  C13 NON d   1      15.366  -9.289   0.009  0.00  0.00     0.017 A 
ATOM     26  C14 NON d   1      16.602  -9.940  -0.012  0.00  0.00     0.001 A 
ATOM     27  C15 NON d   1      16.654 -11.331  -0.024  0.00  0.00     0.000 A 
ATOM     28  C16 NON d   1      15.474 -12.071  -0.019  0.00  0.00     0.001 A 
ATOM     29  C17 NON d   1      14.233 -11.423   0.002  0.00  0.00     0.017 A 
ENDBRANCH  21  24
ENDBRANCH  18  20
ENDBRANCH   2  16
TORSDOF 7
