REMARK  8 active torsions:
REMARK  status: ('A' for Active; 'I' for Inactive)
REMARK    1  A    between atoms: O1_2  and  C2_3 
REMARK    2  A    between atoms: C8_10  and  N2_11 
REMARK       I    between atoms: N2_11  and  C9_12 
REMARK       I    between atoms: C9_12  and  N3_14 
REMARK    3  A    between atoms: N3_14  and  C10_15 
REMARK    4  A    between atoms: C11_16  and  C10_15 
REMARK    5  A    between atoms: C11_16  and  O3_17 
REMARK    6  A    between atoms: C11_16  and  C12_18 
REMARK    7  A    between atoms: C12_18  and  O4_19 
REMARK    8  A    between atoms: O4_19  and  C13_20 
ROOT
ATOM      1  C2  NON d   1       4.254 -11.545   0.198  0.00  0.00     0.095 A 
ATOM      2  C3  NON d   1       2.955 -12.048   0.186  0.00  0.00     0.040 A 
ATOM      3  C4  NON d   1       1.873 -11.165   0.188  0.00  0.00     0.025 A 
ATOM      4  C5  NON d   1       2.093  -9.784   0.193  0.00  0.00     0.046 A 
ATOM      5  C6  NON d   1       0.984  -8.877   0.140  0.00  0.00     0.099 C 
ATOM      6  N1  NON d   1       0.091  -8.139   0.088  0.00  0.00    -0.191 NA
ATOM      7  C7  NON d   1       3.400  -9.280   0.234  0.00  0.00     0.055 A 
ATOM      8  C8  NON d   1       4.496 -10.150   0.271  0.00  0.00     0.071 A 
ENDROOT
BRANCH   8   9
ATOM      9  N2  NON d   1       5.790  -9.544   0.293  0.00  0.00    -0.306 N 
ATOM     10  C9  NON d   1       6.979 -10.121   0.701  0.00  0.00     0.320 C 
ATOM     11  O2  NON d   1       7.112 -11.134   1.376  0.00  0.00    -0.247 OA
ATOM     12  N3  NON d   1       8.078  -9.410   0.249  0.00  0.00    -0.340 N 
ATOM     13  H8  NON d   1       7.913  -8.647  -0.393  0.00  0.00     0.164 HD
ATOM     14  H7  NON d   1       5.826  -8.542   0.198  0.00  0.00     0.171 HD
BRANCH  12  15
ATOM     15  C10 NON d   1       9.331 -10.120   0.024  0.00  0.00     0.158 C 
BRANCH  15  16
ATOM     16  C11 NON d   1      10.604  -9.254   0.064  0.00  0.00     0.160 C 
BRANCH  16  17
ATOM     17  O3  NON d   1      10.302  -7.880  -0.222  0.00  0.00    -0.392 OA
ATOM     18  H12 NON d   1      11.122  -7.381  -0.030  0.00  0.00     0.210 HD
ENDBRANCH  16  17
BRANCH  16  19
ATOM     19  C12 NON d   1      11.354  -9.398   1.398  0.00  0.00     0.209 C 
BRANCH  19  20
ATOM     20  O4  NON d   1      12.627  -8.741   1.271  0.00  0.00    -0.348 OA
BRANCH  20  21
ATOM     21  C13 NON d   1      13.547  -8.958   2.264  0.00  0.00     0.071 A 
ATOM     22  C14 NON d   1      14.750  -8.252   2.121  0.00  0.00     0.037 A 
ATOM     23  C15 NON d   1      15.775  -8.378   3.064  0.00  0.00     0.006 A 
ATOM     24  C16 NON d   1      15.607  -9.221   4.158  0.00  0.00     0.042 A 
ATOM     25  C17 NON d   1      14.418  -9.927   4.293  0.00  0.00     0.119 A 
ATOM     26  F1  NON d   1      14.259 -10.746   5.342  0.00  0.00    -0.206 F 
ATOM     27  C18 NON d   1      13.387  -9.802   3.362  0.00  0.00     0.079 A 
ENDBRANCH  20  21
ENDBRANCH  19  20
ENDBRANCH  16  19
ENDBRANCH  15  16
ENDBRANCH  12  15
ENDBRANCH   8   9
BRANCH   1  28
ATOM     28  O1  NON d   1       5.335 -12.320   0.000  0.00  0.00    -0.354 OA
ATOM     29  C1  NON d   1       5.335 -13.860   0.000  0.00  0.00     0.210 C 
ENDBRANCH   1  28
TORSDOF 8
