@<TRIPOS>MOLECULE
*****
 60 63 0 0 0
SMALL
USER_CHARGES

@<TRIPOS>ATOM
      1 C1         10.4702    4.2750    0.0000 C.3     1  NONAME1    -0.0307
      2 C2         10.4702    2.7350    0.0000 C.3     1  NONAME1     0.0870
      3 O1         11.8287    1.9982   -0.1784 O.3     1  NONAME1    -0.4885
      4 C3         11.9348    0.5860    0.0617 C.ar    1  NONAME1     0.1651
      5 C4         10.7667   -0.2720   -0.0256 C.ar    1  NONAME1    -0.0121
      6 C5         10.6685   -1.5859    0.5479 C.ar    1  NONAME1    -0.0315
      7 C6          9.3999   -2.5667    0.6597 C.3     1  NONAME1     0.0481
      8 C7          9.4809   -4.0617    0.0760 C.ar    1  NONAME1     0.0528
      9 C8          8.3827   -4.7162   -0.6998 C.ar    1  NONAME1     0.2705
     10 O2          7.4053   -4.1713   -1.1936 O.2     1  NONAME1    -0.2660
     11 N1          8.7303   -6.0407   -0.8715 N.ar    1  NONAME1    -0.2427
     12 N2         10.0852   -6.3006   -0.5256 N.ar    1  NONAME1    -0.1757
     13 C9         10.3825   -5.1002    0.0000 C.ar    1  NONAME1     0.0677
     14 C10        11.8471   -4.6243    0.0000 C.3     1  NONAME1    -0.0202
     15 C11         7.9807   -1.9645    0.6171 C.ar    1  NONAME1     0.0504
     16 C12         7.2932   -0.8148    0.4038 C.ar    1  NONAME1     0.0388
     17 C13         7.7385    0.5944    0.2518 C.3     1  NONAME1    -0.0226
     18 N3          5.9032   -0.9701    0.4059 N.ar    1  NONAME1    -0.3012
     19 N4          5.6630   -2.2987    0.7053 N.ar    1  NONAME1    -0.2657
     20 C14         6.8633   -2.8381    1.1294 C.ar    1  NONAME1     0.2688
     21 O3          6.9751   -3.7504    1.9310 O.2     1  NONAME1    -0.2661
     22 C15        11.8306   -2.0004    1.2116 C.ar    1  NONAME1    -0.0539
     23 C16        13.0529   -1.3176    1.0920 C.ar    1  NONAME1    -0.0131
     24 C17        13.1641   -0.0755    0.4407 C.ar    1  NONAME1     0.1981
     25 O4         14.5125    0.3427    0.3490 O.3     1  NONAME1    -0.3386
     26 S1         15.5363   -0.3327   -0.8112 S.O2    1  NONAME1     0.1511
     27 O5         14.8492   -1.4027   -1.5126 O.2     1  NONAME1    -0.1314
     28 O6         16.0781    0.7774   -1.5779 O.2     1  NONAME1    -0.1314
     29 C18        17.1437   -1.2041   -0.1275 C.ar    1  NONAME1     0.1281
     30 C19        18.3845   -0.5336   -0.0901 C.ar    1  NONAME1    -0.0332
     31 C20        19.6686   -1.2430   -0.0109 C.ar    1  NONAME1    -0.0569
     32 C21        19.8060   -2.6550    0.0000 C.ar    1  NONAME1    -0.0503
     33 C22        21.1397   -3.4250    0.0000 C.3     1  NONAME1    -0.0397
     34 C23        18.5390   -3.2990   -0.0867 C.ar    1  NONAME1    -0.0569
     35 C24        17.2520   -2.6076   -0.1592 C.ar    1  NONAME1    -0.0332
     36 H1         11.2157    4.3701    0.8144 H       1  NONAME1     0.0262
     37 H2         10.4702    5.8150    0.0000 H       1  NONAME1     0.0262
     38 H3          9.4426    4.3732    0.4043 H       1  NONAME1     0.0262
     39 H4          9.8506    2.3862   -0.8306 H       1  NONAME1     0.0694
     40 H5         10.0815    2.3716    0.9568 H       1  NONAME1     0.0694
     41 H6          9.9323    0.0977   -0.5999 H       1  NONAME1     0.0658
     42 H7          9.4596   -2.7903    1.7418 H       1  NONAME1     0.0450
     43 H8          8.2154   -6.6799   -1.4541 H       1  NONAME1     0.1921
     44 H9         12.1989   -5.3993    0.7141 H       1  NONAME1     0.0293
     45 H10        13.3117   -4.1484    0.0000 H       1  NONAME1     0.0293
     46 H11        12.0677   -4.9387   -1.0430 H       1  NONAME1     0.0293
     47 H12         8.5743    0.7985    0.9206 H       1  NONAME1     0.0292
     48 H13         6.9511    1.2868    0.5763 H       1  NONAME1     0.0292
     49 H14         7.9652    0.8384   -0.7882 H       1  NONAME1     0.0292
     50 H15         5.5381   -0.7257   -0.5202 H       1  NONAME1     0.1864
     51 H16         4.8301   -2.5606    1.2154 H       1  NONAME1     0.1899
     52 H17        11.8183   -2.9241    1.7904 H       1  NONAME1     0.0622
     53 H18        13.9336   -1.7879    1.5250 H       1  NONAME1     0.0656
     54 H19        18.4093    0.5520   -0.1874 H       1  NONAME1     0.0638
     55 H20        20.5704   -0.6282   -0.0004 H       1  NONAME1     0.0621
     56 H21        20.7623   -4.2667    0.6176 H       1  NONAME1     0.0278
     57 H22        22.4734   -4.1950    0.0000 H       1  NONAME1     0.0278
     58 H23        21.6449   -2.7271    0.7000 H       1  NONAME1     0.0278
     59 H24        18.5066   -4.3893   -0.1442 H       1  NONAME1     0.0621
     60 H25        16.3577   -3.2129   -0.3166 H       1  NONAME1     0.0638
@<TRIPOS>BOND
     1     1     2    1
     2     2     3    1
     3     3     4    1
     4     4     5   ar
     5     5     6   ar
     6     7     6    1
     7     7     8    1
     8     8     9   ar
     9     9    10    2
    10     9    11   ar
    11    11    12   ar
    12    12    13   ar
    13     8    13   ar
    14    13    14    1
    15     7    15    1
    16    15    16   ar
    17    16    17    1
    18    16    18   ar
    19    18    19   ar
    20    19    20   ar
    21    15    20   ar
    22    20    21    2
    23     6    22   ar
    24    22    23   ar
    25    23    24   ar
    26     4    24   ar
    27    24    25    1
    28    25    26    1
    29    26    27    2
    30    26    28    2
    31    26    29    1
    32    29    30   ar
    33    30    31   ar
    34    31    32   ar
    35    32    33    1
    36    32    34   ar
    37    34    35   ar
    38    29    35   ar
    39     1    36    1
    40     1    37    1
    41     1    38    1
    42     2    39    1
    43     2    40    1
    44     5    41    1
    45     7    42    1
    46    11    43    1
    47    14    44    1
    48    14    45    1
    49    14    46    1
    50    17    47    1
    51    17    48    1
    52    17    49    1
    53    18    50    1
    54    19    51    1
    55    22    52    1
    56    23    53    1
    57    30    54    1
    58    31    55    1
    59    33    56    1
    60    33    57    1
    61    33    58    1
    62    34    59    1
    63    35    60    1
