@<TRIPOS>MOLECULE
*****
 63 65 0 0 0
SMALL
USER_CHARGES

@<TRIPOS>ATOM
      1 C1          8.7545   -0.1701    1.4824 C.3     1  NONAME1    -0.0652
      2 C2          9.6771   -1.3613    1.1640 C.3     1  NONAME1    -0.0528
      3 C3          9.0298   -2.1754    0.0277 C.3     1  NONAME1    -0.0189
      4 C4          7.4902   -2.2761    0.0967 C.3     1  NONAME1     0.0896
      5 O1          6.8434   -1.7401   -1.0802 O.3     1  NONAME1    -0.4912
      6 C5          6.5122   -0.4226   -0.8936 C.ar    1  NONAME1     0.1326
      7 C6          7.4652    0.5238   -1.3037 C.ar    1  NONAME1    -0.0192
      8 C7          7.2643    1.8837   -1.0661 C.ar    1  NONAME1    -0.0583
      9 C8          6.1096    2.3062   -0.4228 C.ar    1  NONAME1    -0.0608
     10 C9          5.1224    1.3776   -0.0785 C.ar    1  NONAME1    -0.0461
     11 C10         5.2875    0.0037   -0.3664 C.ar    1  NONAME1     0.0786
     12 C11         4.1247   -0.9295   -0.1678 C.2     1  NONAME1     0.2531
     13 O2          4.2504   -2.0921    0.1914 O.2     1  NONAME1    -0.2697
     14 N1          2.8837   -0.3445   -0.4349 N.am    1  NONAME1    -0.2635
     15 C12         1.5838   -0.8198   -0.4165 C.2     1  NONAME1     0.1411
     16 S1          0.4473    0.3856   -0.6629 S.2     1  NONAME1    -0.0182
     17 N2          1.4370   -2.1779   -0.2416 N.am    1  NONAME1    -0.2960
     18 C13         0.2733   -2.9935   -0.0739 C.ar    1  NONAME1     0.0448
     19 C14        -0.9911   -2.4461    0.2141 C.ar    1  NONAME1    -0.0398
     20 C15        -2.1505   -3.2277    0.3194 C.ar    1  NONAME1    -0.0600
     21 C16        -2.0750   -4.6009    0.1864 C.ar    1  NONAME1    -0.0609
     22 C17        -0.8369   -5.1812   -0.0565 C.ar    1  NONAME1    -0.0478
     23 C18         0.3378   -4.4011   -0.1947 C.ar    1  NONAME1     0.0578
     24 C19         1.5361   -5.2082   -0.5578 C.2     1  NONAME1     0.2459
     25 O3          1.3792   -6.2095   -1.2552 O.2     1  NONAME1    -0.2701
     26 N3          2.7659   -4.8588   -0.0409 N.am    1  NONAME1    -0.3110
     27 C20         3.8769   -5.8031   -0.1504 C.3     1  NONAME1     0.0159
     28 C21         5.2108   -5.1108   -0.4140 C.3     1  NONAME1    -0.0120
     29 C22         6.4401   -5.9966   -0.5026 C.ar    1  NONAME1    -0.0459
     30 C23         7.5485   -5.5472   -1.2419 C.ar    1  NONAME1    -0.0585
     31 C24         8.7648   -6.2329   -1.2126 C.ar    1  NONAME1    -0.0615
     32 C25         8.8822   -7.4039   -0.4716 C.ar    1  NONAME1    -0.0617
     33 C26         7.7820   -7.8879    0.2317 C.ar    1  NONAME1    -0.0615
     34 C27         6.5725   -7.1861    0.2251 C.ar    1  NONAME1    -0.0585
     35 H1          9.5578    0.4620    1.9156 H       1  NONAME1     0.0230
     36 H2          7.8319    1.0211    1.8007 H       1  NONAME1     0.0230
     37 H3          8.2402   -0.6567    2.3385 H       1  NONAME1     0.0230
     38 H4         10.6717   -1.0225    0.8504 H       1  NONAME1     0.0264
     39 H5          9.8211   -1.9904    2.0514 H       1  NONAME1     0.0264
     40 H6          9.3372   -1.7539   -0.9358 H       1  NONAME1     0.0298
     41 H7          9.4578   -3.1847    0.0626 H       1  NONAME1     0.0298
     42 H8          7.0430   -1.8834    1.0163 H       1  NONAME1     0.0696
     43 H9          7.2434   -3.3328    0.1213 H       1  NONAME1     0.0696
     44 H10         8.3845    0.1970   -1.7835 H       1  NONAME1     0.0654
     45 H11         8.0287    2.6027   -1.3515 H       1  NONAME1     0.0619
     46 H12         5.9691    3.3626   -0.1951 H       1  NONAME1     0.0618
     47 H13         4.2350    1.7467    0.4259 H       1  NONAME1     0.0626
     48 H14         2.8868    0.6283   -0.7093 H       1  NONAME1     0.1568
     49 H15         2.3091   -2.6850   -0.3910 H       1  NONAME1     0.1539
     50 H16        -1.1422   -1.3876    0.3766 H       1  NONAME1     0.0636
     51 H17        -3.1105   -2.7496    0.5026 H       1  NONAME1     0.0618
     52 H18        -2.9670   -5.2163    0.2633 H       1  NONAME1     0.0618
     53 H19        -0.7847   -6.2652   -0.1625 H       1  NONAME1     0.0626
     54 H20         2.8205   -4.1779    0.7094 H       1  NONAME1     0.1490
     55 H21         3.6836   -6.5396   -0.9378 H       1  NONAME1     0.0465
     56 H22         3.8964   -6.3421    0.8030 H       1  NONAME1     0.0465
     57 H23         5.1209   -4.5275   -1.3398 H       1  NONAME1     0.0328
     58 H24         5.3842   -4.3985    0.3997 H       1  NONAME1     0.0328
     59 H25         7.4819   -4.6260   -1.8192 H       1  NONAME1     0.0620
     60 H26         9.6216   -5.8427   -1.7559 H       1  NONAME1     0.0618
     61 H27         9.8289   -7.9362   -0.4387 H       1  NONAME1     0.0618
     62 H28         7.8684   -8.8067    0.8058 H       1  NONAME1     0.0618
     63 H29         5.7491   -7.5803    0.8133 H       1  NONAME1     0.0620
@<TRIPOS>BOND
     1     1     2    1
     2     2     3    1
     3     3     4    1
     4     4     5    1
     5     5     6    1
     6     6     7   ar
     7     7     8   ar
     8     8     9   ar
     9     9    10   ar
    10    10    11   ar
    11     6    11   ar
    12    11    12    1
    13    12    13    2
    14    12    14   am
    15    14    15    1
    16    15    16    2
    17    15    17    1
    18    17    18    1
    19    18    19   ar
    20    19    20   ar
    21    20    21   ar
    22    21    22   ar
    23    22    23   ar
    24    18    23   ar
    25    23    24    1
    26    24    25    2
    27    24    26   am
    28    26    27    1
    29    27    28    1
    30    28    29    1
    31    29    30   ar
    32    30    31   ar
    33    31    32   ar
    34    32    33   ar
    35    33    34   ar
    36    29    34   ar
    37     1    35    1
    38     1    36    1
    39     1    37    1
    40     2    38    1
    41     2    39    1
    42     3    40    1
    43     3    41    1
    44     4    42    1
    45     4    43    1
    46     7    44    1
    47     8    45    1
    48     9    46    1
    49    10    47    1
    50    14    48    1
    51    17    49    1
    52    19    50    1
    53    20    51    1
    54    21    52    1
    55    22    53    1
    56    26    54    1
    57    27    55    1
    58    27    56    1
    59    28    57    1
    60    28    58    1
    61    30    59    1
    62    31    60    1
    63    32    61    1
    64    33    62    1
    65    34    63    1
