@<TRIPOS>MOLECULE
*****
 46 47 0 0 0
SMALL
USER_CHARGES

@<TRIPOS>ATOM
      1 C1         -5.3347    9.2400    0.0000 C.3     1  NONAME1     0.0125
      2 C2         -5.3347    7.7000    0.0000 C.2     1  NONAME1     0.2141
      3 O1         -6.1119    7.3475    0.9043 O.2     1  NONAME1    -0.2758
      4 N1         -4.3416    6.9123   -0.5251 N.am    1  NONAME1    -0.2854
      5 C3         -4.1879    5.4954   -0.2329 C.ar    1  NONAME1     0.0381
      6 C4         -2.8205    5.0130   -0.2067 C.ar    1  NONAME1    -0.0190
      7 C5         -2.5104    3.6704    0.0252 C.ar    1  NONAME1     0.0356
      8 N2         -1.1613    3.1004    0.0613 N.am    1  NONAME1    -0.2777
      9 C6          0.1274    3.7065    0.1667 C.2     1  NONAME1     0.3031
     10 O2          0.3553    4.8922    0.3710 O.2     1  NONAME1    -0.2648
     11 C7          1.3746    2.6870   -0.0362 C.2     1  NONAME1     0.2998
     12 O3          1.1203    1.6536   -0.6517 O.2     1  NONAME1    -0.2652
     13 N3          2.6923    3.0174    0.4548 N.am    1  NONAME1    -0.3005
     14 C8          4.0010    2.3100    0.0000 C.3     1  NONAME1     0.0521
     15 C9          4.0010    0.7700    0.0000 C.3     1  NONAME1    -0.0420
     16 C10         5.3207    3.0383    0.1744 C.ar    1  NONAME1     0.0100
     17 C11         5.5876    4.3788    0.3894 C.ar    1  NONAME1    -0.0495
     18 C12         6.9856    4.6980    0.2880 C.ar    1  NONAME1    -0.0515
     19 C13         7.7720    3.5981    0.0000 C.ar    1  NONAME1    -0.0130
     20 C14         9.3036    3.4371    0.0000 C.3     1  NONAME1    -0.0334
     21 S1          6.8009    2.2006   -0.1847 S.2     1  NONAME1    -0.0966
     22 C15        -3.6412    2.8220    0.1866 C.ar    1  NONAME1    -0.0401
     23 C16        -5.0190    3.2775    0.1878 C.ar    1  NONAME1    -0.0553
     24 C17        -5.3347    4.6200    0.0000 C.ar    1  NONAME1    -0.0291
     25 C18        -6.6684    5.3900    0.0000 C.3     1  NONAME1    -0.0380
     26 H1         -4.2864    9.3396   -0.3502 H       1  NONAME1     0.0323
     27 H2         -5.3347   10.7800    0.0000 H       1  NONAME1     0.0323
     28 H3         -6.0142    9.3090   -0.8764 H       1  NONAME1     0.0323
     29 H4         -3.5031    7.3912   -0.8285 H       1  NONAME1     0.1548
     30 H5         -2.0069    5.7174   -0.3651 H       1  NONAME1     0.0655
     31 H6         -1.1208    2.0856    0.0057 H       1  NONAME1     0.1553
     32 H7          2.7807    3.9612    0.8116 H       1  NONAME1     0.1498
     33 H8          3.8630    2.4755   -1.0848 H       1  NONAME1     0.0551
     34 H9          2.9305    0.6233    0.2106 H       1  NONAME1     0.0251
     35 H10         4.0010   -0.7700    0.0000 H       1  NONAME1     0.0251
     36 H11         4.5143    0.6650    0.9799 H       1  NONAME1     0.0251
     37 H12         4.8226    5.1210    0.5813 H       1  NONAME1     0.0626
     38 H13         7.3889    5.6906    0.4512 H       1  NONAME1     0.0626
     39 H14         9.3582    3.1628    1.0762 H       1  NONAME1     0.0283
     40 H15        10.8352    3.2761    0.0000 H       1  NONAME1     0.0283
     41 H16         9.5143    4.5235   -0.0956 H       1  NONAME1     0.0283
     42 H17        -3.4803    1.7557    0.3501 H       1  NONAME1     0.0636
     43 H18        -5.8125    2.5516    0.3532 H       1  NONAME1     0.0621
     44 H19        -6.9997    4.9667   -0.9706 H       1  NONAME1     0.0278
     45 H20        -8.0021    6.1600    0.0000 H       1  NONAME1     0.0278
     46 H21        -7.1087    4.7918    0.8243 H       1  NONAME1     0.0278
@<TRIPOS>BOND
     1     1     2    1
     2     2     3    2
     3     2     4   am
     4     4     5    1
     5     5     6   ar
     6     6     7   ar
     7     7     8    1
     8     8     9   am
     9     9    10    2
    10     9    11    1
    11    11    12    2
    12    11    13   am
    13    14    13    1
    14    14    15    1
    15    14    16    1
    16    16    17   ar
    17    17    18   ar
    18    18    19   ar
    19    19    20    1
    20    19    21   ar
    21    16    21   ar
    22     7    22   ar
    23    22    23   ar
    24    23    24   ar
    25     5    24   ar
    26    24    25    1
    27     1    26    1
    28     1    27    1
    29     1    28    1
    30     4    29    1
    31     6    30    1
    32     8    31    1
    33    13    32    1
    34    14    33    1
    35    15    34    1
    36    15    35    1
    37    15    36    1
    38    17    37    1
    39    18    38    1
    40    20    39    1
    41    20    40    1
    42    20    41    1
    43    22    42    1
    44    23    43    1
    45    25    44    1
    46    25    45    1
    47    25    46    1
