REMARK  10 active torsions:
REMARK  status: ('A' for Active; 'I' for Inactive)
REMARK    1  A    between atoms: C2_2  and  O1_3 
REMARK    2  A    between atoms: O1_3  and  C3_4 
REMARK    3  A    between atoms: C3_4  and  C4_5 
REMARK    4  A    between atoms: C4_5  and  C5_6 
REMARK    5  A    between atoms: C5_6  and  N1_7 
REMARK       I    between atoms: N1_7  and  C6_8 
REMARK    6  A    between atoms: C6_8  and  C7_10 
REMARK    7  A    between atoms: C14_19  and  C15_20 
REMARK    8  A    between atoms: C15_20  and  S1_21 
REMARK    9  A    between atoms: S1_21  and  C16_22 
REMARK   10  A    between atoms: C16_22  and  C17_23 
ROOT
ATOM      1  C7  NON d   1      -1.744  -2.135  -0.324  0.00  0.00     0.034 A 
ATOM      2  C8  NON d   1      -0.507  -2.810  -0.357  0.00  0.00     0.019 A 
ATOM      3  C9  NON d   1       0.708  -2.122  -0.516  0.00  0.00     0.027 A 
ATOM      4  C10 NON d   1       0.725  -0.731  -0.602  0.00  0.00     0.036 A 
ATOM      5  C11 NON d   1      -0.515  -0.054  -0.611  0.00  0.00     0.057 A 
ATOM      6  C12 NON d   1      -1.740  -0.742  -0.468  0.00  0.00     0.048 A 
ATOM      7  N2  NON d   1      -0.526   1.339  -0.795  0.00  0.00    -0.324 N 
ATOM      8  C13 NON d   1       0.628   2.088  -0.840  0.00  0.00     0.241 C 
ATOM      9  O3  NON d   1       0.591   3.276  -1.154  0.00  0.00    -0.271 OA
ATOM     10  C14 NON d   1       1.891   1.359  -0.348  0.00  0.00     0.162 C 
ATOM     11  N3  NON d   1       1.946  -0.046  -0.843  0.00  0.00    -0.277 NA
ATOM     12  H16 NON d   1      -1.392   1.833  -0.976  0.00  0.00     0.169 HD
ATOM     13  H31 NON d   1       2.732  -0.558  -0.447  0.00  0.00     0.128 HD
ENDROOT
BRANCH  10  14
ATOM     14  C15 NON d   1       3.170   2.142  -0.692  0.00  0.00     0.103 C 
BRANCH  14  15
ATOM     15  S1  NON d   1       4.057   2.812   0.777  0.00  0.00    -0.162 SA
BRANCH  15  16
ATOM     16  C16 NON d   1       3.019   4.229   1.270  0.00  0.00     0.112 C 
BRANCH  16  17
ATOM     17  C17 NON d   1       1.698   4.035   2.004  0.00  0.00    -0.043 C 
ATOM     18  C18 NON d   1       0.808   5.160   1.956  0.00  0.00     0.015 C 
ATOM     19  C19 NON d   1      -0.438   5.147   2.591  0.00  0.00    -0.061 C 
ATOM     20  C20 NON d   1      -1.361   6.338   2.910  0.00  0.00     0.048 C 
ATOM     21  C21 NON d   1      -0.854   3.953   3.193  0.00  0.00     0.007 C 
ATOM     22  C22 NON d   1       0.010   2.872   3.303  0.00  0.00     0.008 C 
ATOM     23  C23 NON d   1       1.325   2.938   2.814  0.00  0.00    -0.055 C 
ATOM     24  C24 NON d   1       2.219   1.821   3.287  0.00  0.00     0.049 C 
ENDBRANCH  16  17
ENDBRANCH  15  16
ENDBRANCH  14  15
ENDBRANCH  10  14
BRANCH   1  25
ATOM     25  C6  NON d   1      -2.984  -2.966  -0.100  0.00  0.00     0.251 C 
ATOM     26  N1  NON d   1      -4.240  -2.421  -0.356  0.00  0.00    -0.357 N 
ATOM     27  H12 NON d   1      -4.300  -1.572  -0.898  0.00  0.00     0.162 HD
ATOM     28  O2  NON d   1      -2.855  -4.126   0.290  0.00  0.00    -0.268 OA
BRANCH  26  29
ATOM     29  C5  NON d   1      -5.435  -3.284  -0.285  0.00  0.00     0.125 C 
BRANCH  29  30
ATOM     30  C4  NON d   1      -6.766  -2.513  -0.328  0.00  0.00     0.046 C 
BRANCH  30  31
ATOM     31  C3  NON d   1      -8.018  -3.390  -0.070  0.00  0.00     0.169 C 
BRANCH  31  32
ATOM     32  O1  NON d   1      -8.513  -3.980  -1.279  0.00  0.00    -0.391 OA
BRANCH  32  33
ATOM     33  C2  NON d   1      -9.675  -4.829  -1.103  0.00  0.00     0.163 C 
ATOM     34  C1  NON d   1     -11.002  -4.049  -1.150  0.00  0.00     0.033 C 
ENDBRANCH  32  33
ENDBRANCH  31  32
ENDBRANCH  30  31
ENDBRANCH  29  30
ENDBRANCH  26  29
ENDBRANCH   1  25
TORSDOF 10
