@<TRIPOS>MOLECULE
*****
 59 63 0 0 0
SMALL
USER_CHARGES

@<TRIPOS>ATOM
      1 N1         -1.5202    1.0834    0.0008 N.pl3   1  NONAME1    -0.3564
      2 C1         -1.7663   -0.2548    0.0248 C.ar    1  NONAME1     0.0536
      3 C2         -3.0533   -0.7609    0.1153 C.ar    1  NONAME1     0.0970
      4 C3         -4.3614   -0.1264    0.2780 C.2     1  NONAME1     0.2526
      5 O1         -5.3593   -0.7506    0.6474 O.2     1  NONAME1    -0.2696
      6 N2         -4.4641    1.2418    0.0144 N.am    1  NONAME1    -0.3084
      7 C4         -5.7933    1.8434    0.0777 C.3     1  NONAME1     0.0382
      8 C5         -5.9069    3.3592    0.2816 C.3     1  NONAME1     0.0742
      9 C6         -4.7944    4.0850    1.0077 C.3     1  NONAME1    -0.0231
     10 C7         -5.1262    5.5353    0.6962 C.3     1  NONAME1    -0.0271
     11 C8         -5.8967    5.4699   -0.6154 C.3     1  NONAME1     0.0482
     12 O2         -6.0035    4.0770   -0.9619 O.3     1  NONAME1    -0.3750
     13 S1         -3.0241   -2.4804    0.0610 S.2     1  NONAME1    -0.0622
     14 C9         -1.3312   -2.5385    0.0088 C.ar    1  NONAME1     0.1131
     15 N3         -0.7269   -3.7321    0.0044 N.ar    1  NONAME1    -0.2245
     16 C10         0.6151   -3.8030    0.0094 C.ar    1  NONAME1     0.1260
     17 N4          1.1189   -5.1286    0.0894 N.pl3   1  NONAME1    -0.3149
     18 C11         2.4893   -5.4544   -0.2993 C.3     1  NONAME1     0.0135
     19 C12         2.8373   -6.9378   -0.3622 C.3     1  NONAME1    -0.0371
     20 C13         1.9356   -7.8087    0.4769 C.3     1  NONAME1    -0.0502
     21 C14         0.4938   -7.6028    0.0675 C.3     1  NONAME1    -0.0371
     22 C15         0.0815   -6.1498   -0.1832 C.3     1  NONAME1     0.0135
     23 C16         1.3694   -2.5939   -0.0037 C.ar    1  NONAME1    -0.0036
     24 C17         0.6919   -1.3128    0.0231 C.ar    1  NONAME1    -0.0295
     25 C18        -0.7350   -1.2930    0.0033 C.ar    1  NONAME1     0.0326
     26 C19         1.4696   -0.0143    0.0686 C.3     1  NONAME1    -0.0266
     27 C20         2.9306   -0.1255    0.4622 C.3     1  NONAME1    -0.0487
     28 C21         3.5686   -1.2505   -0.3070 C.3     1  NONAME1    -0.0486
     29 C22         2.8890   -2.5700    0.0377 C.3     1  NONAME1    -0.0241
     30 H1         -0.5742    1.4453   -0.0256 H       1  NONAME1     0.1424
     31 H2         -2.1278    1.7055    0.5326 H       1  NONAME1     0.1424
     32 H3         -3.7947    1.6095   -0.6559 H       1  NONAME1     0.1491
     33 H4         -6.3179    1.3747    0.9191 H       1  NONAME1     0.0487
     34 H5         -6.3151    1.5475   -0.8393 H       1  NONAME1     0.0487
     35 H6         -6.8610    3.5364    0.8008 H       1  NONAME1     0.0611
     36 H7         -3.8166    3.8484    0.5736 H       1  NONAME1     0.0291
     37 H8         -4.7638    3.8761    2.0799 H       1  NONAME1     0.0291
     38 H9         -5.7545    5.9738    1.4803 H       1  NONAME1     0.0288
     39 H10        -4.2320    6.1607    0.6133 H       1  NONAME1     0.0288
     40 H11        -6.9109    5.8741   -0.4932 H       1  NONAME1     0.0560
     41 H12        -5.4055    6.0095   -1.4272 H       1  NONAME1     0.0560
     42 H13         2.7056   -5.0450   -1.2908 H       1  NONAME1     0.0464
     43 H14         3.1708   -5.0309    0.4444 H       1  NONAME1     0.0464
     44 H15         3.8803   -7.0770   -0.0471 H       1  NONAME1     0.0280
     45 H16         2.7986   -7.2727   -1.4077 H       1  NONAME1     0.0280
     46 H17         2.0657   -7.5811    1.5403 H       1  NONAME1     0.0266
     47 H18         2.2076   -8.8631    0.3408 H       1  NONAME1     0.0266
     48 H19         0.2958   -8.1752   -0.8493 H       1  NONAME1     0.0280
     49 H20        -0.1592   -8.0498    0.8274 H       1  NONAME1     0.0280
     50 H21        -0.8022   -5.9880    0.4483 H       1  NONAME1     0.0464
     51 H22        -0.2436   -6.0584   -1.2290 H       1  NONAME1     0.0464
     52 H23         1.0121    0.6563    0.8018 H       1  NONAME1     0.0313
     53 H24         1.3942    0.4532   -0.9212 H       1  NONAME1     0.0313
     54 H25         3.4431    0.8197    0.2504 H       1  NONAME1     0.0268
     55 H26         3.0205   -0.3081    1.5395 H       1  NONAME1     0.0268
     56 H27         3.4902   -1.0610   -1.3852 H       1  NONAME1     0.0269
     57 H28         4.6368   -1.3162   -0.0712 H       1  NONAME1     0.0269
     58 H29         3.2052   -2.8803    1.0410 H       1  NONAME1     0.0314
     59 H30         3.3011   -3.2502   -0.7034 H       1  NONAME1     0.0314
@<TRIPOS>BOND
     1     1     2    1
     2     2     3   ar
     3     3     4    1
     4     4     5    2
     5     4     6   am
     6     6     7    1
     7     8     7    1
     8     8     9    1
     9     9    10    1
    10    10    11    1
    11    11    12    1
    12     8    12    1
    13     3    13   ar
    14    13    14   ar
    15    14    15   ar
    16    15    16   ar
    17    16    17    1
    18    17    18    1
    19    18    19    1
    20    19    20    1
    21    20    21    1
    22    21    22    1
    23    17    22    1
    24    16    23   ar
    25    23    24   ar
    26    24    25   ar
    27     2    25   ar
    28    14    25   ar
    29    24    26    1
    30    26    27    1
    31    27    28    1
    32    28    29    1
    33    23    29    1
    34     1    30    1
    35     1    31    1
    36     6    32    1
    37     7    33    1
    38     7    34    1
    39     8    35    1
    40     9    36    1
    41     9    37    1
    42    10    38    1
    43    10    39    1
    44    11    40    1
    45    11    41    1
    46    18    42    1
    47    18    43    1
    48    19    44    1
    49    19    45    1
    50    20    46    1
    51    20    47    1
    52    21    48    1
    53    21    49    1
    54    22    50    1
    55    22    51    1
    56    26    52    1
    57    26    53    1
    58    27    54    1
    59    27    55    1
    60    28    56    1
    61    28    57    1
    62    29    58    1
    63    29    59    1
