@<TRIPOS>MOLECULE
*****
 62 65 0 0 0
SMALL
USER_CHARGES

@<TRIPOS>ATOM
      1 C1          4.0010   -0.7700    0.0000 C.3     1  NONAME1     0.0196
      2 N1          4.0010   -2.3100    0.0000 N.ar    1  NONAME1    -0.2633
      3 C2          5.1577   -2.9066   -0.4277 C.ar    1  NONAME1     0.2688
      4 O1          6.1368   -2.2511   -0.7794 O.2     1  NONAME1    -0.2667
      5 C3          5.1981   -4.3876   -0.4303 C.ar    1  NONAME1     0.1212
      6 C4          6.5120   -5.1155   -0.6517 C.2     1  NONAME1     0.1884
      7 O2          6.5197   -6.2996   -1.0087 O.2     1  NONAME1    -0.2901
      8 C5          7.8180   -4.3553   -0.3604 C.3     1  NONAME1     0.0726
      9 N2          8.9820   -5.2626   -0.2661 N.pl3   1  NONAME1    -0.3351
     10 C6         10.2828   -4.7158   -0.0966 C.ar    1  NONAME1     0.0488
     11 C7         10.4050   -3.3383    0.2330 C.ar    1  NONAME1    -0.0390
     12 C8         11.6310   -2.6860    0.3130 C.ar    1  NONAME1    -0.0599
     13 C9         12.7812   -3.3979    0.0650 C.ar    1  NONAME1    -0.0599
     14 C10        12.6985   -4.7689   -0.1948 C.ar    1  NONAME1    -0.0389
     15 C11        11.4794   -5.5096   -0.2115 C.ar    1  NONAME1     0.0508
     16 N3         11.5439   -6.9485   -0.3894 N.pl3   1  NONAME1    -0.3285
     17 C12        12.8506   -7.5332    0.0385 C.3     1  NONAME1     0.0122
     18 C13        12.9640   -9.0424   -0.1495 C.3     1  NONAME1    -0.0372
     19 C14        11.7984   -9.7697    0.4809 C.3     1  NONAME1    -0.0502
     20 C15        10.5277   -9.2390   -0.1451 C.3     1  NONAME1    -0.0372
     21 C16        10.3699   -7.7302    0.0681 C.3     1  NONAME1     0.0122
     22 C17         4.0384   -5.0614   -0.2138 C.ar    1  NONAME1     0.1164
     23 N4          3.9769   -6.4483   -0.3054 N.pl3   1  NONAME1    -0.3436
     24 N5          2.8793   -4.3515    0.1587 N.ar    1  NONAME1    -0.2768
     25 C18         1.6360   -5.0869    0.4766 C.3     1  NONAME1     0.0542
     26 C19         0.2690   -4.5454    0.0644 C.ar    1  NONAME1    -0.0276
     27 C20        -0.8427   -5.3724    0.3341 C.ar    1  NONAME1    -0.0569
     28 C21        -2.1507   -4.9459    0.0905 C.ar    1  NONAME1    -0.0614
     29 C22        -2.3795   -3.6741   -0.4199 C.ar    1  NONAME1    -0.0617
     30 C23        -1.2986   -2.8504   -0.7204 C.ar    1  NONAME1    -0.0614
     31 C24         0.0139   -3.2908   -0.5026 C.ar    1  NONAME1    -0.0569
     32 C25         2.9702   -3.0235    0.5690 C.ar    1  NONAME1     0.3333
     33 O3          2.1812   -2.4947    1.3536 O.2     1  NONAME1    -0.2462
     34 H1          4.1649   -0.6926    1.0926 H       1  NONAME1     0.0458
     35 H2          4.0010    0.7700    0.0000 H       1  NONAME1     0.0458
     36 H3          2.9178   -0.6763   -0.2063 H       1  NONAME1     0.0458
     37 H4          7.6880   -3.8406    0.5981 H       1  NONAME1     0.0543
     38 H5          7.9877   -3.6565   -1.1848 H       1  NONAME1     0.0543
     39 H6          9.0180   -5.8470   -1.1036 H       1  NONAME1     0.1466
     40 H7          9.5307   -2.7188    0.4047 H       1  NONAME1     0.0637
     41 H8         11.6746   -1.6247    0.5380 H       1  NONAME1     0.0618
     42 H9         13.7497   -2.9055    0.0802 H       1  NONAME1     0.0618
     43 H10        13.6566   -5.2374   -0.3851 H       1  NONAME1     0.0637
     44 H11        13.6710   -7.1367   -0.5669 H       1  NONAME1     0.0464
     45 H12        13.0357   -7.2906    1.0936 H       1  NONAME1     0.0464
     46 H13        13.9041   -9.3958    0.2911 H       1  NONAME1     0.0280
     47 H14        13.0104   -9.2761   -1.2207 H       1  NONAME1     0.0280
     48 H15        11.8881  -10.8472    0.3052 H       1  NONAME1     0.0266
     49 H16        11.7869   -9.6129    1.5658 H       1  NONAME1     0.0266
     50 H17        10.5367   -9.4561   -1.2219 H       1  NONAME1     0.0280
     51 H18         9.6608   -9.7615    0.2746 H       1  NONAME1     0.0280
     52 H19        10.1637   -7.5257    1.1250 H       1  NONAME1     0.0464
     53 H20         9.4874   -7.5055   -0.5256 H       1  NONAME1     0.0464
     54 H21         3.6362   -6.8793    0.5496 H       1  NONAME1     0.1437
     55 H22         4.8820   -6.8709   -0.5577 H       1  NONAME1     0.1437
     56 H23         1.6305   -5.2309    1.5645 H       1  NONAME1     0.0543
     57 H24         1.6822   -6.0738    0.0021 H       1  NONAME1     0.0543
     58 H25        -0.6928   -6.3659    0.7534 H       1  NONAME1     0.0621
     59 H26        -2.9880   -5.6011    0.3153 H       1  NONAME1     0.0618
     60 H27        -3.3954   -3.3239   -0.5813 H       1  NONAME1     0.0618
     61 H28        -1.4756   -1.8513   -1.1115 H       1  NONAME1     0.0618
     62 H29         0.8152   -2.6058   -0.7558 H       1  NONAME1     0.0621
@<TRIPOS>BOND
     1     1     2    1
     2     2     3   ar
     3     3     4    2
     4     3     5   ar
     5     5     6    1
     6     6     7    2
     7     6     8    1
     8     8     9    1
     9     9    10    1
    10    10    11   ar
    11    11    12   ar
    12    12    13   ar
    13    13    14   ar
    14    14    15   ar
    15    10    15   ar
    16    15    16    1
    17    16    17    1
    18    17    18    1
    19    18    19    1
    20    19    20    1
    21    20    21    1
    22    16    21    1
    23     5    22   ar
    24    22    23    1
    25    22    24   ar
    26    24    25    1
    27    25    26    1
    28    26    27   ar
    29    27    28   ar
    30    28    29   ar
    31    29    30   ar
    32    30    31   ar
    33    26    31   ar
    34    24    32   ar
    35     2    32   ar
    36    32    33    2
    37     1    34    1
    38     1    35    1
    39     1    36    1
    40     8    37    1
    41     8    38    1
    42     9    39    1
    43    11    40    1
    44    12    41    1
    45    13    42    1
    46    14    43    1
    47    17    44    1
    48    17    45    1
    49    18    46    1
    50    18    47    1
    51    19    48    1
    52    19    49    1
    53    20    50    1
    54    20    51    1
    55    21    52    1
    56    21    53    1
    57    23    54    1
    58    23    55    1
    59    25    56    1
    60    25    57    1
    61    27    58    1
    62    28    59    1
    63    29    60    1
    64    30    61    1
    65    31    62    1
