@<TRIPOS>MOLECULE
*****
 17 17 0 0 0
SMALL
USER_CHARGES

@<TRIPOS>ATOM
      1 O1          2.4049    4.3367    0.0000 O.2     1  NONAME1    -0.2679
      2 C1          1.3495    3.7079   -0.0000 C.2     1  NONAME1     0.2721
      3 N1          0.1462    4.3732    0.0000 N.am    1  NONAME1    -0.1933
      4 O2          0.2073    5.7839    0.0000 O.3     1  NONAME1    -0.2949
      5 C2          1.3122    2.2234   -0.0000 C.ar    1  NONAME1     0.1088
      6 C3          2.5057    1.4967   -0.0000 C.ar    1  NONAME1     0.1383
      7 F1          3.6987    2.1072   -0.0000 F       1  NONAME1    -0.2046
      8 C4          2.5028    0.0994   -0.0000 C.ar    1  NONAME1    -0.0255
      9 C5          1.2972   -0.5979   -0.0000 C.ar    1  NONAME1    -0.0563
     10 C6          0.0981    0.1097   -0.0000 C.ar    1  NONAME1    -0.0255
     11 C7          0.1128    1.5061   -0.0000 C.ar    1  NONAME1     0.1383
     12 F2         -1.0715    2.1380    0.0000 F       1  NONAME1    -0.2046
     13 H1         -0.7745    3.9437    0.0000 H       1  NONAME1     0.1825
     14 H2          1.1773    5.9452    0.0000 H       1  NONAME1     0.2414
     15 H3          3.4504   -0.4331   -0.0000 H       1  NONAME1     0.0646
     16 H4          1.2937   -1.6855   -0.0000 H       1  NONAME1     0.0619
     17 H5         -0.8529   -0.4164   -0.0000 H       1  NONAME1     0.0646
@<TRIPOS>BOND
     1     1     2    2
     2     2     3   am
     3     3     4    1
     4     2     5    1
     5     5     6   ar
     6     6     7    1
     7     6     8   ar
     8     8     9   ar
     9     9    10   ar
    10    10    11   ar
    11     5    11   ar
    12    11    12    1
    13     3    13    1
    14     4    14    1
    15     8    15    1
    16     9    16    1
    17    10    17    1
