REMARK  7 active torsions:
REMARK  status: ('A' for Active; 'I' for Inactive)
REMARK    1  A    between atoms: C2_2  and  C3_3 
REMARK    2  A    between atoms: C3_3  and  C4_4 
REMARK    3  A    between atoms: C4_4  and  C5_5 
REMARK    4  A    between atoms: C5_5  and  N1_6 
REMARK    5  A    between atoms: N2_9  and  C7_10 
REMARK    6  A    between atoms: C14_17  and  N3_18 
REMARK       I    between atoms: N3_18  and  C15_20 
REMARK       I    between atoms: C15_20  and  N4_22 
REMARK    7  A    between atoms: N4_22  and  C16_23 
ROOT
ATOM      1  N1  NON d   1      -2.893  -7.064   0.174  0.00  0.00    -0.321 N 
ATOM      2  C6  NON d   1      -2.648  -5.737   0.511  0.00  0.00     0.327 C 
ATOM      3  O1  NON d   1      -3.485  -5.012   1.035  0.00  0.00    -0.247 OA
ATOM      4  N2  NON d   1      -1.325  -5.403   0.154  0.00  0.00    -0.273 N 
ATOM      5  C14 NON d   1      -0.521  -6.642   0.211  0.00  0.00     0.260 C 
ATOM      6  C23 NON d   1      -1.608  -7.801   0.027  0.00  0.00     0.071 C 
ATOM      7  C24 NON d   1      -1.496  -8.853   1.159  0.00  0.00     0.042 C 
ATOM      8  C25 NON d   1      -1.570  -8.519  -1.328  0.00  0.00     0.042 C 
ENDROOT
BRANCH   5   9
ATOM      9  N3  NON d   1       0.791  -6.796  -0.446  0.00  0.00    -0.146 N 
ATOM     10  O2  NON d   1       0.798  -6.478  -1.816  0.00  0.00    -0.079 OA
ATOM     11  C15 NON d   1       1.663  -7.806  -0.038  0.00  0.00     0.351 C 
ATOM     12  O3  NON d   1       1.353  -8.699   0.757  0.00  0.00    -0.244 OA
ATOM     13  N4  NON d   1       2.942  -7.824  -0.541  0.00  0.00    -0.307 N 
ATOM     14  H20 NON d   1       3.285  -8.769  -0.636  0.00  0.00     0.170 HD
BRANCH  13  15
ATOM     15  C16 NON d   1       3.948  -6.883  -0.202  0.00  0.00     0.036 A 
ATOM     16  C17 NON d   1       3.677  -5.697   0.475  0.00  0.00     0.029 A 
ATOM     17  C18 NON d   1       4.698  -4.802   0.799  0.00  0.00     0.003 A 
ATOM     18  C19 NON d   1       6.019  -5.109   0.491  0.00  0.00     0.007 A 
ATOM     19  C20 NON d   1       6.327  -6.323  -0.132  0.00  0.00    -0.060 A 
ATOM     20  C21 NON d   1       7.762  -6.681  -0.377  0.00  0.00     0.048 C 
ATOM     21  C22 NON d   1       5.284  -7.198  -0.488  0.00  0.00     0.036 A 
ENDBRANCH  13  15
ENDBRANCH   5   9
BRANCH   4  22
ATOM     22  C7  NON d   1      -0.878  -4.040   0.077  0.00  0.00     0.041 A 
ATOM     23  C8  NON d   1      -1.803  -2.979   0.059  0.00  0.00     0.030 A 
ATOM     24  C9  NON d   1      -1.416  -1.637   0.000  0.00  0.00     0.003 A 
ATOM     25  C10 NON d   1      -0.071  -1.305  -0.072  0.00  0.00     0.007 A 
ATOM     26  C11 NON d   1       0.879  -2.327  -0.128  0.00  0.00    -0.060 A 
ATOM     27  C12 NON d   1       2.332  -1.984  -0.253  0.00  0.00     0.048 C 
ATOM     28  C13 NON d   1       0.462  -3.673  -0.048  0.00  0.00     0.036 A 
ENDBRANCH   4  22
BRANCH   1  29
ATOM     29  C5  NON d   1      -4.200  -7.716   0.192  0.00  0.00     0.129 C 
BRANCH  29  30
ATOM     30  C4  NON d   1      -5.478  -6.861   0.110  0.00  0.00     0.020 C 
BRANCH  30  31
ATOM     31  C3  NON d   1      -5.838  -6.241  -1.248  0.00  0.00     0.001 C 
BRANCH  31  32
ATOM     32  C2  NON d   1      -4.939  -5.100  -1.716  0.00  0.00    -0.004 C 
ATOM     33  C1  NON d   1      -5.526  -4.368  -2.914  0.00  0.00     0.005 C 
ENDBRANCH  31  32
ENDBRANCH  30  31
ENDBRANCH  29  30
ENDBRANCH   1  29
TORSDOF 7
