REMARK  6 active torsions:
REMARK  status: ('A' for Active; 'I' for Inactive)
REMARK    1  A    between atoms: C5_5  and  S1_6 
REMARK    2  A    between atoms: S1_6  and  N1_9 
REMARK    3  A    between atoms: N1_9  and  C6_10 
REMARK    4  A    between atoms: C11_15  and  C12_16 
REMARK       I    between atoms: C12_16  and  N2_18 
REMARK    5  A    between atoms: N2_18  and  N3_19 
REMARK    6  A    between atoms: N3_19  and  C13_20 
ROOT
ATOM      1  C1  NON d   1       5.335  -3.080   0.000  0.00  0.00     0.049 C 
ATOM      2  C2  NON d   1       5.335  -4.620   0.000  0.00  0.00    -0.046 A 
ATOM      3  C3  NON d   1       6.500  -5.434   0.023  0.00  0.00     0.009 A 
ATOM      4  C4  NON d   1       6.497  -6.902   0.031  0.00  0.00     0.026 A 
ATOM      5  C5  NON d   1       5.335  -7.700   0.000  0.00  0.00     0.080 A 
ATOM      6  C10 NON d   1       4.164  -6.851  -0.042  0.00  0.00     0.042 A 
ATOM      7  C11 NON d   1       4.138  -5.375  -0.035  0.00  0.00     0.040 A 
ENDROOT
BRANCH   7   8
ATOM      8  C12 NON d   1       2.789  -4.691  -0.147  0.00  0.00     0.266 C 
ATOM      9  O3  NON d   1       1.856  -5.242  -0.727  0.00  0.00    -0.266 OA
ATOM     10  N2  NON d   1       2.669  -3.421   0.430  0.00  0.00    -0.283 N 
ATOM     11  H17 NON d   1       3.234  -3.196   1.242  0.00  0.00     0.184 HD
BRANCH  10  12
ATOM     12  N3  NON d   1       1.395  -2.808   0.425  0.00  0.00    -0.203 NA
ATOM     13  H18 NON d   1       0.734  -3.323  -0.172  0.00  0.00     0.153 HD
BRANCH  12  14
ATOM     14  C13 NON d   1       1.358  -1.405   0.181  0.00  0.00     0.027 A 
ATOM     15  C14 NON d   1       0.107  -0.793  -0.006  0.00  0.00     0.028 A 
ATOM     16  C15 NON d   1      -0.017   0.597  -0.149  0.00  0.00     0.044 A 
ATOM     17  C16 NON d   1       1.117   1.400  -0.101  0.00  0.00     0.116 A 
ATOM     18  F1  NON d   1       1.009   2.726  -0.232  0.00  0.00    -0.206 F 
ATOM     19  C17 NON d   1       2.365   0.827   0.105  0.00  0.00     0.044 A 
ATOM     20  C18 NON d   1       2.473  -0.563   0.268  0.00  0.00     0.028 A 
ENDBRANCH  12  14
ENDBRANCH  10  12
ENDBRANCH   7   8
BRANCH   5  21
ATOM     21  S1  NON d   1       5.335  -9.240   0.000  0.00  0.00     0.259 S 
ATOM     22  O1  NON d   1       4.732  -9.212  -1.336  0.00  0.00    -0.201 OA
ATOM     23  O2  NON d   1       4.524  -9.291   1.222  0.00  0.00    -0.201 OA
BRANCH  21  24
ATOM     24  N1  NON d   1       5.335 -10.780   0.000  0.00  0.00    -0.307 N 
ATOM     25  H6  NON d   1       4.926 -11.258   0.800  0.00  0.00     0.173 HD
BRANCH  24  26
ATOM     26  C6  NON d   1       6.201 -11.550  -1.014  0.00  0.00     0.029 C 
ATOM     27  C7  NON d   1       7.067 -12.320  -2.028  0.00  0.00     0.038 C 
ATOM     28  C8  NON d   1       7.467 -10.896  -0.429  0.00  0.00     0.038 C 
ATOM     29  C9  NON d   1       4.935 -12.204  -1.599  0.00  0.00     0.038 C 
ENDBRANCH  24  26
ENDBRANCH  21  24
ENDBRANCH   5  21
TORSDOF 6
