@<TRIPOS>MOLECULE
*****
 34 35 0 0 0
SMALL
USER_CHARGES

@<TRIPOS>ATOM
      1 N1         -2.5905    0.7448    0.1454 N.pl3   1  NONAME1    -0.2889
      2 C1         -2.3295   -0.4475   -0.3213 C.cat   1  NONAME1     0.3839
      3 N2         -1.0834   -0.8290   -0.4256 N.pl3   1  NONAME1    -0.2889
      4 N3         -3.3617   -1.1959   -0.7136 N.pl3   1  NONAME1    -0.0495
      5 C2         -3.5982   -2.4099   -0.3652 C.2     1  NONAME1     0.2405
      6 N4         -2.8447   -3.2322    0.4047 N.am    1  NONAME1    -0.2502
      7 C3         -3.3345   -4.4955    0.6206 C.2     1  NONAME1     0.2335
      8 O1         -2.6231   -5.4119    1.0029 O.2     1  NONAME1    -0.2742
      9 C4         -4.8258   -4.5554    0.3460 C.3     1  NONAME1     0.0985
     10 C5         -5.2960   -5.9536   -0.0393 C.3     1  NONAME1     0.0450
     11 C6         -6.7908   -6.1068    0.0899 C.2     1  NONAME1     0.2187
     12 O2         -7.5112   -5.1235    0.2767 O.2     1  NONAME1    -0.2754
     13 N5         -7.4069   -7.3231    0.0166 N.am    1  NONAME1    -0.2854
     14 C7         -6.9677   -8.6565   -0.0771 C.ar    1  NONAME1     0.0348
     15 C8         -5.6456   -9.0781   -0.2245 C.ar    1  NONAME1    -0.0404
     16 C9         -5.3224  -10.4423   -0.2299 C.ar    1  NONAME1    -0.0586
     17 C10        -6.3215  -11.4033   -0.1148 C.ar    1  NONAME1    -0.0433
     18 C11        -7.6453  -10.9960   -0.0047 C.ar    1  NONAME1     0.0427
     19 Cl1        -8.8925  -12.1748    0.1187 Cl      1  NONAME1    -0.0835
     20 C12        -7.9683   -9.6375    0.0145 C.ar    1  NONAME1    -0.0221
     21 S1         -5.0438   -3.2254   -0.8938 S.3     1  NONAME1    -0.0590
     22 H1         -1.8908    1.4116    0.4321 H       1  NONAME1     0.2547
     23 H2         -3.5657    1.0227    0.1575 H       1  NONAME1     0.2547
     24 H3         -0.8699   -1.6856   -0.9183 H       1  NONAME1     0.2547
     25 H4         -0.3152   -0.2297   -0.1552 H       1  NONAME1     0.2547
     26 H5         -1.8878   -3.0675    0.6694 H       1  NONAME1     0.1581
     27 H6         -5.3155   -4.2324    1.2732 H       1  NONAME1     0.0517
     28 H7         -4.8388   -6.6482    0.6713 H       1  NONAME1     0.0374
     29 H8         -4.9874   -6.2124   -1.0570 H       1  NONAME1     0.0374
     30 H9         -8.4077   -7.1974    0.1262 H       1  NONAME1     0.1548
     31 H10        -4.8154   -8.3974   -0.3434 H       1  NONAME1     0.0636
     32 H11        -4.2837  -10.7509   -0.3216 H       1  NONAME1     0.0619
     33 H12        -6.0620  -12.4577   -0.1152 H       1  NONAME1     0.0632
     34 H13        -9.0135   -9.3524    0.1151 H       1  NONAME1     0.0651
@<TRIPOS>BOND
     1     1     2    2
     2     2     3    1
     3     4     2    1
     4     4     5    2
     5     5     6    1
     6     6     7   am
     7     7     8    2
     8     9     7    1
     9     9    10    1
    10    10    11    1
    11    11    12    2
    12    11    13   am
    13    13    14    1
    14    14    15   ar
    15    15    16   ar
    16    16    17   ar
    17    17    18   ar
    18    18    19    1
    19    18    20   ar
    20    14    20   ar
    21     9    21    1
    22     5    21    1
    23     1    22    1
    24     1    23    1
    25     3    24    1
    26     3    25    1
    27     6    26    1
    28     9    27    1
    29    10    28    1
    30    10    29    1
    31    13    30    1
    32    15    31    1
    33    16    32    1
    34    17    33    1
    35    20    34    1
