REMARK  8 active torsions:
REMARK  status: ('A' for Active; 'I' for Inactive)
REMARK    1  A    between atoms: O1_2  and  C2_3 
REMARK    2  A    between atoms: C5_6  and  N1_7 
REMARK    3  A    between atoms: N1_7  and  C6_8 
REMARK    4  A    between atoms: C9_12  and  C10_13 
REMARK    5  A    between atoms: C14_17  and  N3_18 
REMARK       I    between atoms: N3_18  and  C15_19 
REMARK    6  A    between atoms: C15_19  and  C16_21 
REMARK    7  A    between atoms: C16_21  and  C17_22 
REMARK    8  A    between atoms: C26_34  and  O3_35 
ROOT
ATOM      1  C6  NON d   1       5.726   3.856   0.091  0.00  0.00     0.728 A 
ATOM      2  N2  NON d   1       5.970   2.531   0.173  0.00  0.00    -0.074 NA
ATOM      3  C7  NON d   1       4.931   1.649   0.134  0.00  0.00     0.152 A 
ATOM      4  C8  NON d   1       3.620   2.105   0.008  0.00  0.00     0.041 A 
ATOM      5  C9  NON d   1       2.275   1.573  -0.065  0.00  0.00     0.005 A 
ATOM      6  C23 NON d   1       1.442   2.683  -0.178  0.00  0.00     0.103 A 
ATOM      7  N5  NON d   1       2.204   3.819  -0.171  0.00  0.00    -0.349 N 
ATOM      8  C24 NON d   1       3.517   3.483  -0.063  0.00  0.00     0.159 A 
ATOM      9  N6  NON d   1       4.505   4.381  -0.029  0.00  0.00    -0.044 NA
ATOM     10  H20 NON d   1       1.869   4.771  -0.231  0.00  0.00     0.167 HD
ENDROOT
BRANCH   5  11
ATOM     11  C10 NON d   1       1.737   0.200  -0.002  0.00  0.00    -0.021 A 
ATOM     12  C11 NON d   1       2.584  -0.913   0.061  0.00  0.00     0.012 A 
ATOM     13  C12 NON d   1       2.074  -2.207   0.217  0.00  0.00     0.003 A 
ATOM     14  C13 NON d   1       0.700  -2.417   0.313  0.00  0.00     0.029 A 
ATOM     15  C14 NON d   1      -0.176  -1.340   0.193  0.00  0.00     0.035 A 
ATOM     16  C22 NON d   1       0.349  -0.048   0.034  0.00  0.00     0.042 A 
BRANCH  15  17
ATOM     17  N3  NON d   1      -1.562  -1.598   0.294  0.00  0.00    -0.327 N 
ATOM     18  C15 NON d   1      -2.563  -0.858  -0.309  0.00  0.00     0.226 C 
ATOM     19  O2  NON d   1      -2.365   0.097  -1.062  0.00  0.00    -0.273 OA
ATOM     20  H11 NON d   1      -1.824  -2.477   0.719  0.00  0.00     0.169 HD
BRANCH  18  21
ATOM     21  C16 NON d   1      -3.983  -1.218   0.097  0.00  0.00     0.141 C 
BRANCH  21  22
ATOM     22  C17 NON d   1      -4.528  -2.623  -0.065  0.00  0.00    -0.047 A 
ATOM     23  C18 NON d   1      -3.797  -3.758  -0.418  0.00  0.00     0.027 A 
ATOM     24  C19 NON d   1      -4.438  -4.994  -0.432  0.00  0.00     0.116 A 
ATOM     25  N4  NON d   1      -5.746  -5.175  -0.157  0.00  0.00    -0.273 NA
ATOM     26  C20 NON d   1      -6.454  -4.069   0.135  0.00  0.00     0.116 A 
ATOM     27  C21 NON d   1      -5.898  -2.800   0.200  0.00  0.00     0.027 A 
ENDBRANCH  21  22
ENDBRANCH  18  21
ENDBRANCH  15  17
ENDBRANCH   5  11
BRANCH   1  28
ATOM     28  N1  NON d   1       6.859   4.679   0.128  0.00  0.00    -0.188 N 
ATOM     29  H6  NON d   1       7.686   4.109   0.203  0.00  0.00     0.184 HD
BRANCH  28  30
ATOM     30  C5  NON d   1       7.024   6.072   0.092  0.00  0.00     0.052 A 
ATOM     31  C4  NON d   1       8.305   6.628  -0.008  0.00  0.00     0.033 A 
ATOM     32  C3  NON d   1       8.491   8.019  -0.094  0.00  0.00     0.042 A 
ATOM     33  C2  NON d   1       7.396   8.889  -0.072  0.00  0.00     0.101 A 
ATOM     34  C26 NON d   1       6.117   8.357   0.010  0.00  0.00     0.103 A 
ATOM     35  C25 NON d   1       5.953   6.967   0.100  0.00  0.00     0.069 A 
BRANCH  33  36
ATOM     36  O1  NON d   1       7.602  10.231  -0.233  0.00  0.00    -0.353 OA
ATOM     37  C1  NON d   1       8.088  10.816   0.976  0.00  0.00     0.210 C 
ENDBRANCH  33  36
BRANCH  34  38
ATOM     38  O3  NON d   1       4.924   9.003   0.000  0.00  0.00    -0.353 OA
ATOM     39  C27 NON d   1       4.924  10.543   0.000  0.00  0.00     0.210 C 
ENDBRANCH  34  38
ENDBRANCH  28  30
ENDBRANCH   1  28
TORSDOF 8
