@<TRIPOS>MOLECULE
*****
 53 55 0 0 0
SMALL
USER_CHARGES

@<TRIPOS>ATOM
      1 O1          9.4076  -10.0863   -1.8833 O.2     1  NONAME1    -0.2758
      2 C1          9.4882   -9.5880   -0.7648 C.2     1  NONAME1     0.2131
      3 C2          8.2649   -9.1383    0.0199 C.3     1  NONAME1     0.0244
      4 C3          7.0562  -10.0739   -0.1160 C.3     1  NONAME1    -0.0363
      5 C4          6.7603  -10.8731    1.1562 C.3     1  NONAME1     0.0270
      6 C5          7.7021  -11.9890    1.4008 C.ar    1  NONAME1     0.2277
      7 N1          8.8277  -12.3046    0.8083 N.ar    1  NONAME1    -0.1913
      8 C6          9.1893  -13.4707    1.4476 C.ar    1  NONAME1     0.2021
      9 C7         10.3666  -14.2416    1.0592 C.ar    1  NONAME1     0.0226
     10 C8         11.1174  -13.8634   -0.0664 C.ar    1  NONAME1    -0.0482
     11 C9         12.2385  -14.6023   -0.4526 C.ar    1  NONAME1    -0.0258
     12 C10        12.6117  -15.7210    0.2836 C.ar    1  NONAME1     0.1234
     13 F1         13.6866  -16.4282   -0.0878 F       1  NONAME1    -0.2055
     14 C11        11.8835  -16.1172    1.3975 C.ar    1  NONAME1    -0.0258
     15 C12        10.7611  -15.3797    1.7855 C.ar    1  NONAME1    -0.0482
     16 N2          8.3551  -13.8255    2.4389 N.ar    1  NONAME1    -0.0561
     17 O2          7.3653  -12.8478    2.4055 O.2     1  NONAME1    -0.3377
     18 N3         10.6933   -9.2762   -0.1616 N.am    1  NONAME1    -0.3128
     19 C13        11.9471   -9.5231   -0.8566 C.3     1  NONAME1     0.0379
     20 C14        13.3368   -9.2400    0.0000 C.3     1  NONAME1     0.0735
     21 O3         14.4837   -9.3704   -0.9606 O.3     1  NONAME1    -0.3900
     22 C15        13.3369   -7.7001    0.0145 C.3     1  NONAME1    -0.0135
     23 C16        12.3757   -7.0149    1.0003 C.3     1  NONAME1    -0.0478
     24 C17        12.8239   -5.5708    1.2564 C.3     1  NONAME1    -0.0527
     25 C18        12.9503   -4.7558   -0.0314 C.3     1  NONAME1    -0.0530
     26 C19        13.7312   -5.4678   -1.1330 C.3     1  NONAME1    -0.0527
     27 C20        13.2966   -6.9212   -1.3267 C.3     1  NONAME1    -0.0478
     28 H1          8.5150   -8.9552    1.0696 H       1  NONAME1     0.0358
     29 H2          7.9930   -8.1647   -0.4113 H       1  NONAME1     0.0358
     30 H3          7.1515  -10.7499   -0.9737 H       1  NONAME1     0.0274
     31 H4          6.1729   -9.4510   -0.3102 H       1  NONAME1     0.0274
     32 H5          6.7479  -10.2076    2.0272 H       1  NONAME1     0.0361
     33 H6          5.7516  -11.2954    1.0694 H       1  NONAME1     0.0361
     34 H7         10.8245  -12.9958   -0.6576 H       1  NONAME1     0.0625
     35 H8         12.8169  -14.3145   -1.3248 H       1  NONAME1     0.0646
     36 H9         12.1886  -16.9972    1.9554 H       1  NONAME1     0.0646
     37 H10        10.1948  -15.7045    2.6571 H       1  NONAME1     0.0625
     38 H11        10.6996   -9.0986    0.8333 H       1  NONAME1     0.1488
     39 H12        11.9082  -10.5814   -1.1545 H       1  NONAME1     0.0487
     40 H13        11.9446   -9.0156   -1.8263 H       1  NONAME1     0.0487
     41 H14        13.3367  -10.7799   -0.0145 H       1  NONAME1     0.0611
     42 H15        15.2744   -9.4868   -0.4091 H       1  NONAME1     0.2099
     43 H16        14.3326   -7.4776    0.4371 H       1  NONAME1     0.0326
     44 H17        11.3589   -6.9781    0.5956 H       1  NONAME1     0.0269
     45 H18        12.3403   -7.5608    1.9490 H       1  NONAME1     0.0269
     46 H19        13.7899   -5.5794    1.7761 H       1  NONAME1     0.0265
     47 H20        12.1101   -5.0783    1.9265 H       1  NONAME1     0.0265
     48 H21        11.9471   -4.5170   -0.4037 H       1  NONAME1     0.0265
     49 H22        13.4377   -3.7988    0.1913 H       1  NONAME1     0.0265
     50 H23        14.8020   -5.4426   -0.8968 H       1  NONAME1     0.0265
     51 H24        13.6068   -4.9236   -2.0771 H       1  NONAME1     0.0265
     52 H25        13.9501   -7.3728   -2.0806 H       1  NONAME1     0.0269
     53 H26        12.2815   -6.9215   -1.7407 H       1  NONAME1     0.0269
@<TRIPOS>BOND
     1     1     2    2
     2     2     3    1
     3     3     4    1
     4     4     5    1
     5     5     6    1
     6     6     7   ar
     7     7     8   ar
     8     8     9    1
     9     9    10   ar
    10    10    11   ar
    11    11    12   ar
    12    12    13    1
    13    12    14   ar
    14    14    15   ar
    15     9    15   ar
    16     8    16   ar
    17    16    17   ar
    18     6    17   ar
    19     2    18   am
    20    18    19    1
    21    20    19    1
    22    20    21    1
    23    20    22    1
    24    22    23    1
    25    23    24    1
    26    24    25    1
    27    25    26    1
    28    26    27    1
    29    22    27    1
    30     3    28    1
    31     3    29    1
    32     4    30    1
    33     4    31    1
    34     5    32    1
    35     5    33    1
    36    10    34    1
    37    11    35    1
    38    14    36    1
    39    15    37    1
    40    18    38    1
    41    19    39    1
    42    19    40    1
    43    20    41    1
    44    21    42    1
    45    22    43    1
    46    23    44    1
    47    23    45    1
    48    24    46    1
    49    24    47    1
    50    25    48    1
    51    25    49    1
    52    26    50    1
    53    26    51    1
    54    27    52    1
    55    27    53    1
