@<TRIPOS>MOLECULE
*****
 36 36 0 0 0
SMALL
USER_CHARGES

@<TRIPOS>ATOM
      1 C1          3.3216   10.0100   -1.1621 C.3     1  NONAME1     0.0817
      2 O1          3.3216    8.4700   -1.1621 O.3     1  NONAME1    -0.4667
      3 C2          2.6674    7.7000    0.0000 C.2     1  NONAME1     0.3267
      4 O2          2.1447    8.4426    0.8378 O.2     1  NONAME1    -0.2488
      5 C3          2.6674    6.1600    0.0000 C.3     1  NONAME1     0.1117
      6 C4          1.9120    6.1600    1.3420 C.3     1  NONAME1    -0.0366
      7 C5          3.4228    6.1600   -1.3420 C.3     1  NONAME1    -0.0366
      8 N1          2.6674    4.6200    0.0000 N.3     1  NONAME1    -0.2980
      9 C6          1.4038    3.9865   -0.4410 C.3     1  NONAME1     0.0223
     10 C7          1.3903    2.4710   -0.3782 C.ar    1  NONAME1    -0.0301
     11 C8          2.5269    1.6851   -0.1591 C.ar    1  NONAME1    -0.0571
     12 C9          2.4531    0.2912   -0.1599 C.ar    1  NONAME1    -0.0580
     13 C10         1.2310   -0.3478   -0.3839 C.ar    1  NONAME1    -0.0197
     14 C11         0.0884    0.4154   -0.5858 C.ar    1  NONAME1     0.1272
     15 O3         -1.0778   -0.2321   -0.8869 O.3     1  NONAME1    -0.4342
     16 C12        -2.0086   -0.1412    0.1862 C.3     1  NONAME1     0.3893
     17 F1         -3.0238   -0.9983   -0.0913 F       1  NONAME1    -0.1663
     18 F2         -2.5508    1.1023    0.2072 F       1  NONAME1    -0.1663
     19 C13         0.1625    1.8117   -0.5965 C.ar    1  NONAME1    -0.0153
     20 H1          3.8596   10.0702   -2.1240 H       1  NONAME1     0.0661
     21 H2          3.3216   11.5500   -1.1621 H       1  NONAME1     0.0661
     22 H3          4.0692   10.0783   -0.3516 H       1  NONAME1     0.0661
     23 H4          2.8097    6.3730    1.9765 H       1  NONAME1     0.0253
     24 H5          1.1566    6.1600    2.6840 H       1  NONAME1     0.0253
     25 H6          1.6432    5.1154    1.5895 H       1  NONAME1     0.0253
     26 H7          4.3250    5.5940   -1.0223 H       1  NONAME1     0.0253
     27 H8          4.1782    6.1600   -2.6840 H       1  NONAME1     0.0253
     28 H9          2.6726    5.6436   -1.9704 H       1  NONAME1     0.0253
     29 H10         3.0502    4.2163    0.8528 H       1  NONAME1     0.1232
     30 H11         1.1872    4.2648   -1.4783 H       1  NONAME1     0.0474
     31 H12         0.5518    4.3339    0.1558 H       1  NONAME1     0.0474
     32 H13         3.5039    2.1511   -0.0178 H       1  NONAME1     0.0621
     33 H14         3.3497   -0.2996   -0.0018 H       1  NONAME1     0.0619
     34 H15         1.1830   -1.4325   -0.4157 H       1  NONAME1     0.0654
     35 H16        -1.5815   -0.3967    1.1606 H       1  NONAME1     0.1520
     36 H17        -0.7317    2.3933   -0.8088 H       1  NONAME1     0.0657
@<TRIPOS>BOND
     1     1     2    1
     2     2     3    1
     3     3     4    2
     4     3     5    1
     5     5     6    1
     6     5     7    1
     7     5     8    1
     8     8     9    1
     9     9    10    1
    10    10    11   ar
    11    11    12   ar
    12    12    13   ar
    13    13    14   ar
    14    14    15    1
    15    15    16    1
    16    16    17    1
    17    16    18    1
    18    14    19   ar
    19    10    19   ar
    20     1    20    1
    21     1    21    1
    22     1    22    1
    23     6    23    1
    24     6    24    1
    25     6    25    1
    26     7    26    1
    27     7    27    1
    28     7    28    1
    29     8    29    1
    30     9    30    1
    31     9    31    1
    32    11    32    1
    33    12    33    1
    34    13    34    1
    35    16    35    1
    36    19    36    1
