@<TRIPOS>MOLECULE
*****
 52 53 0 0 0
SMALL
USER_CHARGES

@<TRIPOS>ATOM
      1 C1          2.6674   -4.6200    0.0000 C.3     1  NONAME1    -0.0190
      2 C2          2.6674   -3.0800    0.0000 C.3     1  NONAME1     0.1741
      3 O1          1.5853   -2.6502    0.8683 O.3     1  NONAME1    -0.4798
      4 C3          0.3257   -3.0603    0.4792 C.ar    1  NONAME1     0.1218
      5 C4         -0.0925   -4.3999    0.5351 C.ar    1  NONAME1    -0.0172
      6 C5         -1.3822   -4.7688    0.1416 C.ar    1  NONAME1    -0.0230
      7 C6         -2.2829   -3.7873   -0.2369 C.ar    1  NONAME1     0.1236
      8 F1         -3.5263   -4.1336   -0.5926 F       1  NONAME1    -0.2055
      9 C7         -1.9128   -2.4468   -0.2224 C.ar    1  NONAME1    -0.0230
     10 C8         -0.6070   -2.0817    0.1347 C.ar    1  NONAME1    -0.0172
     11 C9          4.0585   -2.3858    0.3634 C.2     1  NONAME1     0.2695
     12 O2          4.1063   -1.2435    0.8313 O.2     1  NONAME1    -0.2702
     13 N1          5.2453   -3.0502    0.0286 N.am    1  NONAME1    -0.2313
     14 N2          6.5094   -2.3785    0.2087 N.am    1  NONAME1    -0.2330
     15 C10         7.7107   -3.0806    0.0868 C.2     1  NONAME1     0.2463
     16 O3          7.7385   -4.3033   -0.0768 O.2     1  NONAME1    -0.2726
     17 C11         9.0012   -2.2059    0.1368 C.3     1  NONAME1     0.0910
     18 N3         10.3065   -2.9045    0.1348 N.am    1  NONAME1    -0.2908
     19 C12        11.4705   -2.1706    0.0518 C.2     1  NONAME1     0.3000
     20 O4         11.4765   -0.9612   -0.1164 O.2     1  NONAME1    -0.2529
     21 N4         12.6258   -2.9371    0.1664 N.am    1  NONAME1    -0.2991
     22 C13        13.9237   -2.3062   -0.1052 C.3     1  NONAME1     0.0159
     23 C14        15.1738   -3.0718    0.3732 C.3     1  NONAME1    -0.0254
     24 C15        16.4715   -2.3233    0.0165 C.3     1  NONAME1    -0.0488
     25 C16        17.5832   -3.3685    0.0696 C.3     1  NONAME1    -0.0527
     26 C17        16.8943   -4.7226   -0.0676 C.3     1  NONAME1    -0.0527
     27 C18        15.4096   -4.4283   -0.2913 C.3     1  NONAME1    -0.0488
     28 H1          3.1275   -4.7289    1.0041 H       1  NONAME1     0.0270
     29 H2          2.6674   -6.1600    0.0000 H       1  NONAME1     0.0270
     30 H3          3.4371   -4.7354   -0.7868 H       1  NONAME1     0.0270
     31 H4          2.4328   -2.7245   -1.0136 H       1  NONAME1     0.0829
     32 H5          0.5537   -5.1856    0.9090 H       1  NONAME1     0.0655
     33 H6         -1.6893   -5.8114    0.1483 H       1  NONAME1     0.0647
     34 H7         -2.6508   -1.6917   -0.4816 H       1  NONAME1     0.0647
     35 H8         -0.3294   -1.0316    0.1568 H       1  NONAME1     0.0655
     36 H9          5.3106   -4.0391   -0.1994 H       1  NONAME1     0.1729
     37 H10         6.4563   -1.3726    0.3769 H       1  NONAME1     0.1728
     38 H11         8.9684   -1.5881    1.0378 H       1  NONAME1     0.0559
     39 H12         8.9865   -1.5417   -0.7371 H       1  NONAME1     0.0559
     40 H13        10.3511   -3.7970    0.6041 H       1  NONAME1     0.1507
     41 H14        12.5227   -3.8919   -0.1416 H       1  NONAME1     0.1502
     42 H15        13.9758   -2.1432   -1.1885 H       1  NONAME1     0.0465
     43 H16        13.9257   -1.3145    0.3647 H       1  NONAME1     0.0465
     44 H17        15.1308   -3.2097    1.4621 H       1  NONAME1     0.0316
     45 H18        16.6741   -1.4895    0.6966 H       1  NONAME1     0.0268
     46 H19        16.4175   -1.9139   -1.0002 H       1  NONAME1     0.0268
     47 H20        18.3168   -3.2066   -0.7291 H       1  NONAME1     0.0265
     48 H21        18.1288   -3.3151    1.0191 H       1  NONAME1     0.0265
     49 H22        17.0402   -5.3028    0.8512 H       1  NONAME1     0.0265
     50 H23        17.3171   -5.3094   -0.8905 H       1  NONAME1     0.0265
     51 H24        14.7816   -5.2144    0.1377 H       1  NONAME1     0.0268
     52 H25        15.2054   -4.3766   -1.3668 H       1  NONAME1     0.0268
@<TRIPOS>BOND
     1     2     1    1
     2     2     3    1
     3     3     4    1
     4     4     5   ar
     5     5     6   ar
     6     6     7   ar
     7     7     8    1
     8     7     9   ar
     9     9    10   ar
    10     4    10   ar
    11     2    11    1
    12    11    12    2
    13    11    13   am
    14    13    14    1
    15    14    15   am
    16    15    16    2
    17    15    17    1
    18    17    18    1
    19    18    19   am
    20    19    20    2
    21    19    21   am
    22    21    22    1
    23    22    23    1
    24    23    24    1
    25    24    25    1
    26    25    26    1
    27    26    27    1
    28    23    27    1
    29     1    28    1
    30     1    29    1
    31     1    30    1
    32     2    31    1
    33     5    32    1
    34     6    33    1
    35     9    34    1
    36    10    35    1
    37    13    36    1
    38    14    37    1
    39    17    38    1
    40    17    39    1
    41    18    40    1
    42    21    41    1
    43    22    42    1
    44    22    43    1
    45    23    44    1
    46    24    45    1
    47    24    46    1
    48    25    47    1
    49    25    48    1
    50    26    49    1
    51    26    50    1
    52    27    51    1
    53    27    52    1
