REMARK  8 active torsions:
REMARK  status: ('A' for Active; 'I' for Inactive)
REMARK    1  A    between atoms: C2_2  and  C3_3 
REMARK    2  A    between atoms: C3_3  and  C4_4 
REMARK    3  A    between atoms: C4_4  and  C5_5 
REMARK    4  A    between atoms: C5_5  and  N1_6 
REMARK    5  A    between atoms: N2_9  and  C7_10 
REMARK    6  A    between atoms: C14_17  and  N3_18 
REMARK    7  A    between atoms: N3_18  and  O2_19 
REMARK       I    between atoms: N3_18  and  C15_20 
REMARK       I    between atoms: C15_20  and  N4_22 
REMARK    8  A    between atoms: N4_22  and  C16_23 
ROOT
ATOM      1  N1  NON d   1      -2.680  -7.339   0.987  0.00  0.00    -0.321 N 
ATOM      2  C6  NON d   1      -2.427  -6.009   1.423  0.00  0.00     0.327 C 
ATOM      3  O1  NON d   1      -3.169  -5.381   2.168  0.00  0.00    -0.247 OA
ATOM      4  N2  NON d   1      -1.256  -5.511   0.811  0.00  0.00    -0.273 N 
ATOM      5  C14 NON d   1      -0.801  -6.453  -0.188  0.00  0.00     0.257 C 
ATOM      6  C23 NON d   1      -1.711  -7.763   0.000  0.00  0.00     0.070 C 
ATOM      7  C24 NON d   1      -0.693  -8.918   0.000  0.00  0.00     0.042 C 
ATOM      8  C25 NON d   1      -2.378  -7.955  -1.408  0.00  0.00     0.042 C 
ENDROOT
BRANCH   5   9
ATOM      9  N3  NON d   1       0.668  -6.652  -0.343  0.00  0.00    -0.183 N 
ATOM     10  C15 NON d   1       1.604  -6.998   0.615  0.00  0.00     0.348 C 
ATOM     11  O3  NON d   1       1.358  -7.089   1.813  0.00  0.00    -0.245 OA
ATOM     12  N4  NON d   1       2.863  -7.279   0.104  0.00  0.00    -0.307 N 
ATOM     13  H21 NON d   1       3.017  -8.253  -0.121  0.00  0.00     0.170 HD
BRANCH   9  14
ATOM     14  O2  NON d   1       1.091  -6.611  -1.695  0.00  0.00    -0.281 OA
ATOM     15  H20 NON d   1       1.795  -5.933  -1.655  0.00  0.00     0.245 HD
ENDBRANCH   9  14
BRANCH  12  16
ATOM     16  C16 NON d   1       4.008  -6.466   0.269  0.00  0.00     0.036 A 
ATOM     17  C17 NON d   1       3.917  -5.152   0.724  0.00  0.00     0.029 A 
ATOM     18  C18 NON d   1       5.040  -4.325   0.762  0.00  0.00     0.003 A 
ATOM     19  C19 NON d   1       6.284  -4.822   0.395  0.00  0.00     0.007 A 
ATOM     20  C20 NON d   1       6.413  -6.153  -0.017  0.00  0.00    -0.060 A 
ATOM     21  C21 NON d   1       7.784  -6.690  -0.314  0.00  0.00     0.048 C 
ATOM     22  C22 NON d   1       5.266  -6.967  -0.093  0.00  0.00     0.036 A 
ENDBRANCH  12  16
ENDBRANCH   5   9
BRANCH   4  23
ATOM     23  C7  NON d   1      -0.999  -4.117   0.611  0.00  0.00     0.041 A 
ATOM     24  C8  NON d   1      -2.007  -3.147   0.554  0.00  0.00     0.030 A 
ATOM     25  C9  NON d   1      -1.705  -1.812   0.242  0.00  0.00     0.003 A 
ATOM     26  C10 NON d   1      -0.388  -1.405   0.027  0.00  0.00     0.007 A 
ATOM     27  C11 NON d   1       0.639  -2.341   0.108  0.00  0.00    -0.060 A 
ATOM     28  C12 NON d   1       2.077  -1.938  -0.047  0.00  0.00     0.048 C 
ATOM     29  C13 NON d   1       0.313  -3.678   0.385  0.00  0.00     0.036 A 
ENDBRANCH   4  23
BRANCH   1  30
ATOM     30  C5  NON d   1      -4.048  -7.862   1.043  0.00  0.00     0.129 C 
BRANCH  30  31
ATOM     31  C4  NON d   1      -5.243  -6.930   0.686  0.00  0.00     0.020 C 
BRANCH  31  32
ATOM     32  C3  NON d   1      -5.495  -6.460  -0.761  0.00  0.00     0.001 C 
BRANCH  32  33
ATOM     33  C2  NON d   1      -4.893  -5.092  -1.109  0.00  0.00    -0.004 C 
ATOM     34  C1  NON d   1      -5.521  -4.482  -2.362  0.00  0.00     0.005 C 
ENDBRANCH  32  33
ENDBRANCH  31  32
ENDBRANCH  30  31
ENDBRANCH   1  30
TORSDOF 8
