REMARK  6 active torsions:
REMARK  status: ('A' for Active; 'I' for Inactive)
REMARK    1  A    between atoms: C2_2  and  S1_3 
REMARK    2  A    between atoms: C2_2  and  C12_15 
REMARK    3  A    between atoms: S1_3  and  C3_4 
REMARK    4  A    between atoms: N2_8  and  C6_9 
REMARK       I    between atoms: C12_15  and  N3_17 
REMARK    5  A    between atoms: N3_17  and  C13_18 
REMARK    6  A    between atoms: C16_22  and  C17_23 
REMARK       I    between atoms: C17_23  and  N4_24 
ROOT
ATOM      1  C1  NON d   1       5.189  -5.310   0.000  0.00  0.00     0.031 C 
ATOM      2  C2  NON d   1       5.189  -3.770   0.000  0.00  0.00     0.143 C 
ENDROOT
BRANCH   2   3
ATOM      3  S1  NON d   1       3.720  -3.094   0.876  0.00  0.00    -0.077 SA
BRANCH   3   4
ATOM      4  C3  NON d   1       3.602  -1.517   0.147  0.00  0.00     0.173 C 
ATOM      5  N1  NON d   1       4.670  -0.848  -0.231  0.00  0.00    -0.235 NA
ATOM      6  C4  NON d   1       4.250   0.431  -0.417  0.00  0.00     0.137 C 
ATOM      7  C5  NON d   1       2.893   0.527  -0.230  0.00  0.00     0.118 C 
ATOM      8  N2  NON d   1       2.436  -0.758   0.031  0.00  0.00    -0.300 N 
BRANCH   8   9
ATOM      9  C6  NON d   1       1.051  -1.136   0.077  0.00  0.00     0.041 A 
ATOM     10  C7  NON d   1       0.054  -0.151   0.189  0.00  0.00     0.030 A 
ATOM     11  C8  NON d   1      -1.302  -0.498   0.170  0.00  0.00     0.002 A 
ATOM     12  C9  NON d   1      -1.684  -1.829   0.046  0.00  0.00     0.000 A 
ATOM     13  C10 NON d   1      -0.710  -2.814  -0.068  0.00  0.00     0.002 A 
ATOM     14  C11 NON d   1       0.646  -2.470  -0.064  0.00  0.00     0.030 A 
ENDBRANCH   8   9
ENDBRANCH   3   4
ENDBRANCH   2   3
BRANCH   2  15
ATOM     15  C12 NON d   1       6.510  -3.213   0.585  0.00  0.00     0.236 C 
ATOM     16  O1  NON d   1       6.569  -2.510   1.593  0.00  0.00    -0.272 OA
ATOM     17  N3  NON d   1       7.636  -3.640  -0.123  0.00  0.00    -0.320 N 
ATOM     18  H12 NON d   1       7.653  -4.611  -0.427  0.00  0.00     0.169 HD
BRANCH  17  19
ATOM     19  C13 NON d   1       8.877  -3.023  -0.022  0.00  0.00     0.092 A 
ATOM     20  S2  NON d   1       8.942  -1.326   0.087  0.00  0.00    -0.083 SA
ATOM     21  C14 NON d   1      10.643  -1.319   0.012  0.00  0.00     0.053 A 
ATOM     22  C15 NON d   1      11.155  -2.592  -0.092  0.00  0.00     0.027 A 
ATOM     23  C16 NON d   1      10.132  -3.607  -0.128  0.00  0.00     0.066 A 
BRANCH  23  24
ATOM     24  C17 NON d   1      10.319  -5.052  -0.240  0.00  0.00     0.252 C 
ATOM     25  N4  NON d   1      11.600  -5.511  -0.112  0.00  0.00    -0.366 N 
ATOM     26  H15 NON d   1      11.727  -6.512  -0.088  0.00  0.00     0.159 HD
ATOM     27  H16 NON d   1      12.366  -4.927   0.190  0.00  0.00     0.159 HD
ATOM     28  O2  NON d   1       9.392  -5.838  -0.417  0.00  0.00    -0.268 OA
ENDBRANCH  23  24
ENDBRANCH  17  19
ENDBRANCH   2  15
TORSDOF 6
