@<TRIPOS>MOLECULE
*****
 52 55 0 0 0
SMALL
USER_CHARGES

@<TRIPOS>ATOM
      1 N1         -4.0430   -9.2407   -0.2363 N.1     1  NONAME1    -0.1908
      2 C1         -3.9935   -8.0836   -0.1877 C.1     1  NONAME1     0.1018
      3 C2         -3.9660   -6.6539   -0.1143 C.ar    1  NONAME1     0.0844
      4 C3         -5.1778   -5.9648   -0.1065 C.ar    1  NONAME1    -0.0263
      5 C4         -5.2086   -4.5642   -0.0607 C.ar    1  NONAME1     0.0777
      6 C5         -6.5661   -3.9364   -0.0831 C.2     1  NONAME1     0.2516
      7 O1         -7.5129   -4.6858   -0.3112 O.2     1  NONAME1    -0.2697
      8 N2         -6.6661   -2.5746    0.1378 N.am    1  NONAME1    -0.2814
      9 C6         -7.8611   -1.8094    0.1097 C.ar    1  NONAME1     0.0337
     10 C7         -9.1424   -2.3647    0.0242 C.ar    1  NONAME1    -0.0405
     11 C8        -10.2807   -1.5536   -0.0158 C.ar    1  NONAME1    -0.0600
     12 C9        -10.1523   -0.1691    0.0225 C.ar    1  NONAME1    -0.0616
     13 C10        -8.8849    0.3997    0.1129 C.ar    1  NONAME1    -0.0600
     14 C11        -7.7465   -0.4144    0.1657 C.ar    1  NONAME1    -0.0405
     15 C12        -3.9782   -3.9037   -0.0109 C.ar    1  NONAME1     0.1297
     16 N3         -3.8588   -2.5072   -0.0573 N.pl3   1  NONAME1    -0.3425
     17 N4         -2.7873   -4.5585    0.0306 N.ar    1  NONAME1    -0.2241
     18 C13        -2.7855   -5.9181   -0.0464 C.ar    1  NONAME1     0.1169
     19 S1         -1.2094   -6.7804   -0.0418 S.3     1  NONAME1    -0.0953
     20 C14        -0.0009   -5.4426    0.0836 C.3     1  NONAME1     0.0762
     21 C15         0.3063   -4.7792   -1.2504 C.2     1  NONAME1     0.2235
     22 O2         -0.4159   -4.8165   -2.2417 O.2     1  NONAME1    -0.2749
     23 N5          1.5128   -4.0911   -1.2375 N.am    1  NONAME1    -0.3105
     24 C16         1.9105   -3.3307   -2.3994 C.3     1  NONAME1     0.0370
     25 C17         3.2557   -2.6458   -2.3115 C.ar    1  NONAME1    -0.0266
     26 C18         4.2404   -2.9441   -1.3405 C.ar    1  NONAME1    -0.0534
     27 C19         5.4737   -2.2745   -1.3276 C.ar    1  NONAME1    -0.0158
     28 C20         5.7100   -1.3354   -2.3066 C.ar    1  NONAME1     0.1662
     29 C21         4.7749   -1.0520   -3.2689 C.ar    1  NONAME1     0.1665
     30 C22         3.5500   -1.6836   -3.2985 C.ar    1  NONAME1    -0.0115
     31 O3          5.2030   -0.1121   -4.1524 O.3     1  NONAME1    -0.4526
     32 C23         6.5303    0.1469   -3.6489 C.3     1  NONAME1     0.2332
     33 O4          6.8471   -0.6055   -2.4580 O.3     1  NONAME1    -0.4526
     34 H1         -6.1109   -6.5291   -0.1467 H       1  NONAME1     0.0640
     35 H2         -5.8014   -2.0711    0.3195 H       1  NONAME1     0.1551
     36 H3         -9.3033   -3.4378    0.0026 H       1  NONAME1     0.0636
     37 H4        -11.2665   -2.0083   -0.0774 H       1  NONAME1     0.0618
     38 H5        -11.0371    0.4596   -0.0169 H       1  NONAME1     0.0618
     39 H6         -8.7839    1.4824    0.1386 H       1  NONAME1     0.0618
     40 H7         -6.7724    0.0626    0.2297 H       1  NONAME1     0.0636
     41 H8         -2.8565   -2.3195    0.0169 H       1  NONAME1     0.1437
     42 H9         -4.1724   -2.1755   -0.9699 H       1  NONAME1     0.1437
     43 H10         0.9252   -5.9117    0.4390 H       1  NONAME1     0.0475
     44 H11        -0.2968   -4.6923    0.8193 H       1  NONAME1     0.0475
     45 H12         1.9320   -3.8739   -0.3449 H       1  NONAME1     0.1490
     46 H13         1.1355   -2.5691   -2.5499 H       1  NONAME1     0.0512
     47 H14         1.9025   -4.0006   -3.2672 H       1  NONAME1     0.0512
     48 H15         4.0719   -3.7081   -0.5863 H       1  NONAME1     0.0622
     49 H16         6.2269   -2.4951   -0.5787 H       1  NONAME1     0.0655
     50 H17         2.8376   -1.4405   -4.0812 H       1  NONAME1     0.0658
     51 H18         7.2574   -0.1087   -4.4290 H       1  NONAME1     0.1166
     52 H19         6.6174    1.2161   -3.4245 H       1  NONAME1     0.1166
@<TRIPOS>BOND
     1     1     2    3
     2     2     3    1
     3     3     4   ar
     4     4     5   ar
     5     5     6    1
     6     6     7    2
     7     6     8   am
     8     8     9    1
     9     9    10   ar
    10    10    11   ar
    11    11    12   ar
    12    12    13   ar
    13    13    14   ar
    14     9    14   ar
    15     5    15   ar
    16    15    16    1
    17    15    17   ar
    18    17    18   ar
    19     3    18   ar
    20    18    19    1
    21    19    20    1
    22    20    21    1
    23    21    22    2
    24    21    23   am
    25    23    24    1
    26    24    25    1
    27    25    26   ar
    28    26    27   ar
    29    27    28   ar
    30    28    29   ar
    31    29    30   ar
    32    25    30   ar
    33    29    31    1
    34    31    32    1
    35    32    33    1
    36    28    33    1
    37     4    34    1
    38     8    35    1
    39    10    36    1
    40    11    37    1
    41    12    38    1
    42    13    39    1
    43    14    40    1
    44    16    41    1
    45    16    42    1
    46    20    43    1
    47    20    44    1
    48    23    45    1
    49    24    46    1
    50    24    47    1
    51    26    48    1
    52    27    49    1
    53    30    50    1
    54    32    51    1
    55    32    52    1
