REMARK  7 active torsions:
REMARK  status: ('A' for Active; 'I' for Inactive)
REMARK    1  A    between atoms: C3_3  and  C2_2 
REMARK    2  A    between atoms: C3_3  and  C5_5 
REMARK       I    between atoms: C5_5  and  N1_7 
REMARK    3  A    between atoms: N1_7  and  C6_8 
REMARK    4  A    between atoms: C10_12  and  C11_13 
REMARK    5  A    between atoms: C11_13  and  N2_14 
REMARK       I    between atoms: N2_14  and  C12_15 
REMARK    6  A    between atoms: C12_15  and  C13_17 
REMARK    7  A    between atoms: C16_20  and  C17_21 
ROOT
ATOM      1  N2  NON d   1       2.518 -10.475  -0.075  0.00  0.00    -0.352 N 
ATOM      2  C12 NON d   1       3.702 -11.165  -0.005  0.00  0.00     0.257 C 
ATOM      3  O2  NON d   1       3.575 -12.389   0.070  0.00  0.00    -0.267 OA
ATOM      4  H16 NON d   1       1.719 -11.094  -0.026  0.00  0.00     0.163 HD
ENDROOT
BRANCH   1   5
ATOM      5  C11 NON d   1       2.299  -9.064  -0.100  0.00  0.00     0.161 C 
BRANCH   5   6
ATOM      6  C10 NON d   1       0.914  -8.475  -0.169  0.00  0.00    -0.038 A 
ATOM      7  C9  NON d   1       0.925  -7.064  -0.147  0.00  0.00     0.009 A 
ATOM      8  C8  NON d   1      -0.244  -6.336  -0.223  0.00  0.00     0.003 A 
ATOM      9  C7  NON d   1      -1.456  -7.008  -0.311  0.00  0.00     0.029 A 
ATOM     10  C6  NON d   1      -1.534  -8.412  -0.290  0.00  0.00     0.035 A 
ATOM     11  C19 NON d   1      -0.326  -9.146  -0.244  0.00  0.00     0.038 A 
BRANCH  10  12
ATOM     12  N1  NON d   1      -2.802  -9.088  -0.313  0.00  0.00    -0.327 N 
ATOM     13  C5  NON d   1      -4.001  -8.470   0.000  0.00  0.00     0.226 C 
ATOM     14  O1  NON d   1      -4.055  -7.312   0.431  0.00  0.00    -0.273 OA
ATOM     15  H10 NON d   1      -2.782 -10.096  -0.386  0.00  0.00     0.169 HD
BRANCH  13  16
ATOM     16  C3  NON d   1      -5.335  -9.240   0.000  0.00  0.00     0.074 C 
ATOM     17  C4  NON d   1      -5.335 -10.780   0.000  0.00  0.00     0.020 C 
BRANCH  16  18
ATOM     18  C2  NON d   1      -6.668  -8.470   0.000  0.00  0.00     0.009 C 
ATOM     19  C1  NON d   1      -6.668  -6.930  -0.015  0.00  0.00     0.006 C 
ENDBRANCH  16  18
ENDBRANCH  13  16
ENDBRANCH  10  12
ENDBRANCH   5   6
ENDBRANCH   1   5
BRANCH   2  20
ATOM     20  C13 NON d   1       5.084 -10.526  -0.007  0.00  0.00     0.100 A 
ATOM     21  C14 NON d   1       5.356  -9.207   0.051  0.00  0.00     0.025 A 
ATOM     22  C15 NON d   1       6.689  -8.648   0.084  0.00  0.00     0.035 A 
ATOM     23  C16 NON d   1       7.765  -9.444   0.056  0.00  0.00     0.119 A 
ATOM     24  N3  NON d   1       7.549 -10.806  -0.004  0.00  0.00    -0.319 N 
ATOM     25  C18 NON d   1       6.314 -11.421  -0.041  0.00  0.00     0.261 A 
ATOM     26  H19 NON d   1       8.341 -11.444  -0.007  0.00  0.00     0.169 HD
ATOM     27  O3  NON d   1       6.280 -12.645  -0.101  0.00  0.00    -0.267 OA
BRANCH  23  28
ATOM     28  C17 NON d   1       9.181  -8.916   0.119  0.00  0.00     0.432 C 
ATOM     29  F1  NON d   1       9.714  -8.772  -1.119  0.00  0.00    -0.165 F 
ATOM     30  F2  NON d   1       9.999  -9.752   0.808  0.00  0.00    -0.165 F 
ATOM     31  F3  NON d   1       9.254  -7.702   0.724  0.00  0.00    -0.165 F 
ENDBRANCH  23  28
ENDBRANCH   2  20
TORSDOF 7
