REMARK  11 active torsions:
REMARK  status: ('A' for Active; 'I' for Inactive)
REMARK    1  A    between atoms: C2_2  and  C3_3 
REMARK    2  A    between atoms: C2_2  and  N1_11 
REMARK    3  A    between atoms: C3_3  and  C4_4 
REMARK    4  A    between atoms: C7_7  and  O1_8 
REMARK       I    between atoms: N1_11  and  C10_12 
REMARK       I    between atoms: C10_12  and  N2_14 
REMARK    5  A    between atoms: N2_14  and  C11_15 
REMARK    6  A    between atoms: C12_16  and  C11_15 
REMARK    7  A    between atoms: C12_16  and  O3_17 
REMARK    8  A    between atoms: C12_16  and  C13_18 
REMARK    9  A    between atoms: C13_18  and  O4_19 
REMARK   10  A    between atoms: O4_19  and  C14_20 
REMARK   11  A    between atoms: C17_23  and  N3_24 
ROOT
ATOM      1  N1  NON d   1       9.336 -11.550   0.000  0.00  0.00    -0.339 N 
ATOM      2  C10 NON d   1      10.447 -11.939   0.687  0.00  0.00     0.316 C 
ATOM      3  O2  NON d   1      10.439 -12.726   1.620  0.00  0.00    -0.247 OA
ATOM      4  N2  NON d   1      11.607 -11.397   0.168  0.00  0.00    -0.341 N 
ATOM      5  H12 NON d   1       9.431 -10.797  -0.663  0.00  0.00     0.164 HD
ATOM      6  H13 NON d   1      11.542 -10.965  -0.742  0.00  0.00     0.164 HD
ENDROOT
BRANCH   4   7
ATOM      7  C11 NON d   1      12.876 -12.062   0.456  0.00  0.00     0.158 C 
BRANCH   7   8
ATOM      8  C12 NON d   1      14.091 -11.121   0.506  0.00  0.00     0.160 C 
BRANCH   8   9
ATOM      9  O3  NON d   1      14.608 -10.931  -0.819  0.00  0.00    -0.392 OA
ATOM     10  H17 NON d   1      15.491 -10.529  -0.707  0.00  0.00     0.210 HD
ENDBRANCH   8   9
BRANCH   8  11
ATOM     11  C13 NON d   1      15.173 -11.736   1.415  0.00  0.00     0.209 C 
BRANCH  11  12
ATOM     12  O4  NON d   1      16.329 -10.888   1.421  0.00  0.00    -0.349 OA
BRANCH  12  13
ATOM     13  C14 NON d   1      17.312 -11.188   2.330  0.00  0.00     0.069 A 
ATOM     14  C15 NON d   1      18.480 -10.428   2.203  0.00  0.00     0.039 A 
ATOM     15  C16 NON d   1      19.550 -10.599   3.090  0.00  0.00     0.039 A 
ATOM     16  C17 NON d   1      19.445 -11.539   4.120  0.00  0.00     0.103 A 
ATOM     17  C18 NON d   1      18.287 -12.314   4.252  0.00  0.00     0.039 A 
ATOM     18  C19 NON d   1      17.227 -12.140   3.351  0.00  0.00     0.039 A 
BRANCH  16  19
ATOM     19  N3  NON d   1      20.548 -11.709   5.075  0.00  0.00    -0.116 N 
ATOM     20  O5  NON d   1      21.550 -10.995   4.931  0.00  0.00    -0.532 OA
ATOM     21  O6  NON d   1      20.407 -12.554   5.971  0.00  0.00    -0.532 OA
ENDBRANCH  16  19
ENDBRANCH  12  13
ENDBRANCH  11  12
ENDBRANCH   8  11
ENDBRANCH   7   8
ENDBRANCH   4   7
BRANCH   1  22
ATOM     22  C2  NON d   1       8.002 -12.320   0.000  0.00  0.00     0.086 C 
ATOM     23  C1  NON d   1       8.002 -13.860   0.000  0.00  0.00     0.032 C 
BRANCH  22  24
ATOM     24  C3  NON d   1       6.998 -11.166   0.383  0.00  0.00     0.063 C 
BRANCH  24  25
ATOM     25  C4  NON d   1       5.946 -11.414   1.440  0.00  0.00    -0.056 A 
ATOM     26  C5  NON d   1       6.202 -12.201   2.567  0.00  0.00     0.010 A 
ATOM     27  C6  NON d   1       5.198 -12.423   3.513  0.00  0.00     0.037 A 
ATOM     28  C7  NON d   1       3.949 -11.834   3.353  0.00  0.00     0.065 A 
ATOM     29  C8  NON d   1       3.685 -11.018   2.260  0.00  0.00     0.037 A 
ATOM     30  C9  NON d   1       4.684 -10.807   1.308  0.00  0.00     0.010 A 
BRANCH  28  31
ATOM     31  O1  NON d   1       3.000 -12.082   4.300  0.00  0.00    -0.361 OA
ATOM     32  H9  NON d   1       2.185 -11.618   4.050  0.00  0.00     0.217 HD
ENDBRANCH  28  31
ENDBRANCH  24  25
ENDBRANCH  22  24
ENDBRANCH   1  22
TORSDOF 11
