REMARK  10 active torsions:
REMARK  status: ('A' for Active; 'I' for Inactive)
REMARK    1  A    between atoms: C2_2  and  O1_3 
REMARK    2  A    between atoms: O1_3  and  C3_4 
REMARK    3  A    between atoms: C5_6  and  C6_7 
REMARK    4  A    between atoms: N1_8  and  N2_9 
REMARK       I    between atoms: N2_9  and  C7_10 
REMARK    5  A    between atoms: C7_10  and  C8_12 
REMARK       I    between atoms: C8_12  and  N3_14 
REMARK    6  A    between atoms: N3_14  and  C9_15 
REMARK    7  A    between atoms: C18_25  and  O4_26 
REMARK    8  A    between atoms: O4_26  and  C19_27 
REMARK    9  A    between atoms: C19_27  and  C20_28 
REMARK       I    between atoms: C20_28  and  N4_30 
REMARK   10  A    between atoms: N4_30  and  C21_31 
ROOT
ATOM      1  C3  NON d   1      -1.104  -5.418   0.032  0.00  0.00     0.102 A 
ATOM      2  C4  NON d   1      -2.360  -4.627   0.029  0.00  0.00     0.052 A 
ATOM      3  C5  NON d   1      -2.428  -3.169   0.025  0.00  0.00    -0.014 A 
ATOM      4  C16 NON d   1      -1.185  -2.536   0.026  0.00  0.00     0.016 A 
ATOM      5  C17 NON d   1       0.046  -3.278   0.031  0.00  0.00     0.040 A 
ATOM      6  C18 NON d   1       0.120  -4.695   0.035  0.00  0.00     0.102 A 
ENDROOT
BRANCH   3   7
ATOM      7  C6  NON d   1      -3.780  -2.272   0.020  0.00  0.00     0.150 C 
ATOM      8  N1  NON d   1      -3.874  -0.940   0.013  0.00  0.00    -0.183 NA
BRANCH   8   9
ATOM      9  N2  NON d   1      -5.223  -0.271   0.007  0.00  0.00    -0.239 N 
ATOM     10  C7  NON d   1      -5.422   1.186  -0.001  0.00  0.00     0.329 C 
ATOM     11  O2  NON d   1      -4.511   2.012  -0.001  0.00  0.00    -0.261 OA
ATOM     12  H8  NON d   1      -6.040  -0.874   0.007  0.00  0.00     0.192 HD
BRANCH  10  13
ATOM     13  C8  NON d   1      -6.980   1.789  -0.010  0.00  0.00     0.315 C 
ATOM     14  O3  NON d   1      -7.913   0.994  -0.011  0.00  0.00    -0.262 OA
ATOM     15  N3  NON d   1      -7.118   3.238  -0.015  0.00  0.00    -0.319 N 
ATOM     16  H9  NON d   1      -6.221   3.720  -0.011  0.00  0.00     0.169 HD
BRANCH  15  17
ATOM     17  C9  NON d   1      -8.314   4.137  -0.020  0.00  0.00     0.036 A 
ATOM     18  C10 NON d   1      -9.648   3.746  -0.031  0.00  0.00     0.030 A 
ATOM     19  C11 NON d   1     -10.760   4.716  -0.029  0.00  0.00     0.011 A 
ATOM     20  C12 NON d   1     -10.669   6.160   0.000  0.00  0.00    -0.040 A 
ATOM     21  C13 NON d   1     -12.003   6.930   0.000  0.00  0.00     0.050 C 
ATOM     22  C14 NON d   1      -9.318   6.533  -0.019  0.00  0.00     0.042 A 
ATOM     23 Cl1  NON d   1      -8.884   8.210  -0.051  0.00  0.00    -0.084 Cl
ATOM     24  C15 NON d   1      -8.186   5.558  -0.021  0.00  0.00     0.053 A 
ENDBRANCH  15  17
ENDBRANCH  10  13
ENDBRANCH   8   9
ENDBRANCH   3   7
BRANCH   1  25
ATOM     25  O1  NON d   1      -1.227  -6.852   0.034  0.00  0.00    -0.349 OA
BRANCH  25  26
ATOM     26  C2  NON d   1       0.000  -7.700   0.000  0.00  0.00     0.171 C 
ATOM     27  C1  NON d   1       0.000  -9.240   0.000  0.00  0.00     0.034 C 
ENDBRANCH  25  26
ENDBRANCH   1  25
BRANCH   6  28
ATOM     28  O4  NON d   1       1.314  -5.384   0.043  0.00  0.00    -0.339 OA
BRANCH  28  29
ATOM     29  C19 NON d   1       2.604  -4.753   0.052  0.00  0.00     0.278 C 
BRANCH  29  30
ATOM     30  C20 NON d   1       3.817  -5.773   0.054  0.00  0.00     0.246 C 
ATOM     31  O5  NON d   1       3.634  -6.988   0.044  0.00  0.00    -0.271 OA
ATOM     32  N4  NON d   1       5.082  -5.160   0.066  0.00  0.00    -0.325 N 
ATOM     33  H20 NON d   1       5.088  -4.148   0.072  0.00  0.00     0.169 HD
BRANCH  32  34
ATOM     34  C21 NON d   1       6.386  -5.765   0.056  0.00  0.00     0.035 A 
ATOM     35  C22 NON d   1       7.501  -4.926   0.055  0.00  0.00     0.030 A 
ATOM     36  C23 NON d   1       8.816  -5.446   0.045  0.00  0.00     0.009 A 
ATOM     37  C24 NON d   1       9.088  -6.830   0.015  0.00  0.00    -0.056 A 
ATOM     38  C25 NON d   1      10.511  -7.303   0.056  0.00  0.00     0.049 C 
ATOM     39  C26 NON d   1       8.002  -7.700   0.000  0.00  0.00    -0.054 A 
ATOM     40  C27 NON d   1       8.002  -9.240   0.000  0.00  0.00     0.049 C 
ATOM     41  C28 NON d   1       6.659  -7.137   0.044  0.00  0.00     0.037 A 
ENDBRANCH  32  34
ENDBRANCH  29  30
ENDBRANCH  28  29
ENDBRANCH   6  28
TORSDOF 10
