@<TRIPOS>MOLECULE
*****
 51 53 0 0 0
SMALL
USER_CHARGES

@<TRIPOS>ATOM
      1 C1          6.6684  -10.0100    0.0000 C.3     1  NONAME1    -0.0397
      2 C2          6.6684  -11.5500    0.0000 C.ar    1  NONAME1    -0.0501
      3 C3          7.8300  -12.3486    0.0147 C.ar    1  NONAME1    -0.0586
      4 C4          7.8313  -13.8140    0.0182 C.ar    1  NONAME1    -0.0583
      5 C5          6.6684  -14.6300    0.0000 C.ar    1  NONAME1    -0.0455
      6 C6          6.6684  -16.1700    0.0000 C.3     1  NONAME1    -0.0394
      7 C7          5.4332  -13.8867   -0.0755 C.ar    1  NONAME1    -0.0243
      8 C8          4.0010  -14.6300    0.0000 C.3     1  NONAME1     0.0461
      9 C9          4.0010  -16.1700    0.0000 C.3     1  NONAME1    -0.0424
     10 N1          2.9062  -13.9048   -0.6798 N.am    1  NONAME1    -0.3048
     11 C10         1.7314  -14.5288   -1.0745 C.2     1  NONAME1     0.2445
     12 O1          1.7016  -15.6541   -1.5634 O.2     1  NONAME1    -0.2702
     13 C11         0.4288  -13.8218   -0.8070 C.ar    1  NONAME1     0.0368
     14 C12        -0.7048  -14.6272   -0.6269 C.ar    1  NONAME1    -0.0479
     15 C13        -1.9678  -14.0704   -0.3753 C.ar    1  NONAME1    -0.0398
     16 C14        -2.1403  -12.6879   -0.3060 C.ar    1  NONAME1     0.0338
     17 N2         -3.3991  -12.0688   -0.1233 N.am    1  NONAME1    -0.2802
     18 C15        -4.6324  -12.6942    0.0103 C.2     1  NONAME1     0.2666
     19 O2         -4.8313  -13.9018    0.0912 O.2     1  NONAME1    -0.2682
     20 C16        -5.8113  -11.7629    0.0405 C.ar    1  NONAME1     0.1256
     21 C17        -7.0976  -12.2929    0.0835 C.ar    1  NONAME1    -0.0312
     22 C18        -8.1789  -11.4167    0.0815 C.ar    1  NONAME1    -0.0582
     23 C19        -7.9414  -10.0481    0.0404 C.ar    1  NONAME1    -0.0436
     24 C20        -6.6251   -9.6072    0.0024 C.ar    1  NONAME1     0.0284
     25 N3         -5.5433  -10.4282    0.0022 N.ar    1  NONAME1    -0.2504
     26 C21        -1.0058  -11.8773   -0.4612 C.ar    1  NONAME1    -0.0398
     27 C22         0.2695  -12.4346   -0.7082 C.ar    1  NONAME1    -0.0479
     28 C23         5.4841  -12.3803   -0.0643 C.ar    1  NONAME1    -0.0536
     29 H1          7.5331   -9.9179    0.6899 H       1  NONAME1     0.0278
     30 H2          6.6684   -8.4700    0.0000 H       1  NONAME1     0.0278
     31 H3          5.7575   -9.9202    0.6277 H       1  NONAME1     0.0278
     32 H4          8.8050  -11.8592    0.0328 H       1  NONAME1     0.0620
     33 H5          8.8071  -14.3027    0.0400 H       1  NONAME1     0.0620
     34 H6          7.1203  -16.2489   -1.0096 H       1  NONAME1     0.0278
     35 H7          6.6684  -17.7100    0.0000 H       1  NONAME1     0.0278
     36 H8          7.4551  -16.2591    0.7758 H       1  NONAME1     0.0278
     37 H9          3.7468  -14.3922    1.0497 H       1  NONAME1     0.0546
     38 H10         2.9396  -16.2962    0.2964 H       1  NONAME1     0.0251
     39 H11         4.0010  -17.7100    0.0000 H       1  NONAME1     0.0251
     40 H12         4.5434  -16.2855    0.9641 H       1  NONAME1     0.0251
     41 H13         2.7718  -12.9856   -0.2935 H       1  NONAME1     0.1496
     42 H14        -0.6181  -15.7119   -0.6826 H       1  NONAME1     0.0626
     43 H15        -2.7986  -14.7581   -0.2536 H       1  NONAME1     0.0636
     44 H16        -3.4464  -11.0517   -0.1422 H       1  NONAME1     0.1552
     45 H17        -7.2594  -13.3662    0.1092 H       1  NONAME1     0.0640
     46 H18        -9.1973  -11.8004    0.1081 H       1  NONAME1     0.0619
     47 H19        -8.7644   -9.3410    0.0363 H       1  NONAME1     0.0633
     48 H20        -6.4035   -8.5432   -0.0282 H       1  NONAME1     0.0830
     49 H21        -1.1003  -10.7943   -0.4075 H       1  NONAME1     0.0636
     50 H22         1.1073  -11.7601   -0.8513 H       1  NONAME1     0.0626
     51 H23         4.5315  -11.8518   -0.0905 H       1  NONAME1     0.0624
@<TRIPOS>BOND
     1     1     2    1
     2     2     3   ar
     3     3     4   ar
     4     4     5   ar
     5     5     6    1
     6     5     7   ar
     7     8     7    1
     8     8     9    1
     9     8    10    1
    10    10    11   am
    11    11    12    2
    12    11    13    1
    13    13    14   ar
    14    14    15   ar
    15    15    16   ar
    16    16    17    1
    17    17    18   am
    18    18    19    2
    19    18    20    1
    20    20    21   ar
    21    21    22   ar
    22    22    23   ar
    23    23    24   ar
    24    24    25   ar
    25    20    25   ar
    26    16    26   ar
    27    26    27   ar
    28    13    27   ar
    29     7    28   ar
    30     2    28   ar
    31     1    29    1
    32     1    30    1
    33     1    31    1
    34     3    32    1
    35     4    33    1
    36     6    34    1
    37     6    35    1
    38     6    36    1
    39     8    37    1
    40     9    38    1
    41     9    39    1
    42     9    40    1
    43    10    41    1
    44    14    42    1
    45    15    43    1
    46    17    44    1
    47    21    45    1
    48    22    46    1
    49    23    47    1
    50    24    48    1
    51    26    49    1
    52    27    50    1
    53    28    51    1
