REMARK  7 active torsions:
REMARK  status: ('A' for Active; 'I' for Inactive)
REMARK    1  A    between atoms: N1_1  and  C1_2 
REMARK    2  A    between atoms: C2_6  and  N4_7 
REMARK    3  A    between atoms: C3_10  and  C4_11 
REMARK       I    between atoms: C4_11  and  N7_13 
REMARK    4  A    between atoms: N7_13  and  N8_14 
REMARK    5  A    between atoms: C5_15  and  C6_16 
REMARK    6  A    between atoms: C13_25  and  C14_26 
REMARK    7  A    between atoms: C14_26  and  N9_27 
ROOT
ATOM      1  N4  NON d   1      14.873   5.016  -0.186  0.00  0.00    -0.215 N 
ATOM      2  N5  NON d   1      14.108   5.957   0.444  0.00  0.00     0.012 NA
ATOM      3  N6  NON d   1      12.889   5.466   0.575  0.00  0.00    -0.152 NA
ATOM      4  C3  NON d   1      12.927   4.134   0.244  0.00  0.00     0.170 C 
ATOM      5  C13 NON d   1      14.243   3.779  -0.068  0.00  0.00     0.098 C 
ENDROOT
BRANCH   4   6
ATOM      6  C4  NON d   1      11.713   3.316   0.203  0.00  0.00     0.293 C 
ATOM      7  O2  NON d   1      11.748   2.093   0.082  0.00  0.00    -0.264 OA
ATOM      8  N7  NON d   1      10.526   4.054   0.242  0.00  0.00    -0.242 N 
ATOM      9  H3  NON d   1      10.563   5.066   0.303  0.00  0.00     0.192 HD
BRANCH   8  10
ATOM     10  N8  NON d   1       9.319   3.409   0.165  0.00  0.00    -0.183 NA
ATOM     11  C5  NON d   1       8.246   4.135   0.102  0.00  0.00     0.150 C 
BRANCH  11  12
ATOM     12  C6  NON d   1       6.900   3.509   0.049  0.00  0.00    -0.014 A 
ATOM     13  C7  NON d   1       6.769   2.105   0.100  0.00  0.00     0.016 A 
ATOM     14  C8  NON d   1       5.508   1.498   0.079  0.00  0.00     0.040 A 
ATOM     15  C9  NON d   1       4.403   2.320   0.004  0.00  0.00     0.105 A 
ATOM     16  C10 NON d   1       4.528   3.692  -0.050  0.00  0.00     0.105 A 
ATOM     17  O4  NON d   1       3.109   1.911  -0.013  0.00  0.00    -0.323 OA
ATOM     18  C11 NON d   1       5.760   4.319  -0.035  0.00  0.00     0.052 A 
ATOM     19  O3  NON d   1       3.317   4.311  -0.115  0.00  0.00    -0.323 OA
ATOM     20  C12 NON d   1       2.422   3.177  -0.080  0.00  0.00     0.352 A 
ENDBRANCH  11  12
ENDBRANCH   8  10
ENDBRANCH   4   6
BRANCH   5  21
ATOM     21  C14 NON d   1      14.853   2.446  -0.418  0.00  0.00     0.333 C 
BRANCH  21  22
ATOM     22  N9  NON d   1      15.986   1.927   0.420  0.00  0.00     0.094 N 
ATOM     23  C15 NON d   1      16.183   0.501   0.037  0.00  0.00     0.273 C 
ATOM     24  C16 NON d   1      17.464  -0.180   0.540  0.00  0.00     0.030 C 
ATOM     25  C17 NON d   1      18.704   0.656   0.278  0.00  0.00     0.003 C 
ATOM     26  C18 NON d   1      18.484   2.042   0.851  0.00  0.00     0.030 C 
ATOM     27  C19 NON d   1      17.240   2.672   0.225  0.00  0.00     0.273 C 
ENDBRANCH  21  22
ENDBRANCH   5  21
BRANCH   1  28
ATOM     28  C2  NON d   1      16.040   5.384  -0.897  0.00  0.00     0.225 A 
ATOM     29  N3  NON d   1      16.442   4.667  -1.948  0.00  0.00    -0.081 NA
ATOM     30  O1  NON d   1      17.615   5.299  -2.358  0.00  0.00    -0.103 OA
ATOM     31  N2  NON d   1      17.889   6.412  -1.570  0.00  0.00    -0.083 NA
ATOM     32  C1  NON d   1      16.896   6.476  -0.683  0.00  0.00     0.201 A 
BRANCH  32  33
ATOM     33  N1  NON d   1      16.803   7.406   0.285  0.00  0.00    -0.379 N 
ATOM     34  H1  NON d   1      17.421   8.210   0.248  0.00  0.00     0.158 HD
ATOM     35  H2  NON d   1      15.926   7.574   0.773  0.00  0.00     0.158 HD
ENDBRANCH  32  33
ENDBRANCH   1  28
TORSDOF 7
