@<TRIPOS>MOLECULE
*****
 62 64 0 0 0
SMALL
USER_CHARGES

@<TRIPOS>ATOM
      1 C1        -11.0024   -4.0490   -1.1504 C.3     1  NONAME1    -0.0416
      2 C2         -9.6752   -4.8287   -1.1027 C.3     1  NONAME1     0.0448
      3 O1         -8.5129   -3.9798   -1.2793 O.3     1  NONAME1    -0.3800
      4 C3         -8.0180   -3.3898   -0.0705 C.3     1  NONAME1     0.0491
      5 C4         -6.7658   -2.5132   -0.3277 C.3     1  NONAME1    -0.0138
      6 C5         -5.4349   -3.2838   -0.2851 C.3     1  NONAME1     0.0140
      7 N1         -4.2405   -2.4214   -0.3556 N.am    1  NONAME1    -0.3113
      8 C6         -2.9838   -2.9663   -0.1003 C.2     1  NONAME1     0.2441
      9 O2         -2.8546   -4.1256    0.2900 O.2     1  NONAME1    -0.2702
     10 C7         -1.7437   -2.1350   -0.3237 C.ar    1  NONAME1     0.0386
     11 C8         -0.5071   -2.8100   -0.3570 C.ar    1  NONAME1    -0.0478
     12 C9          0.7075   -2.1215   -0.5164 C.ar    1  NONAME1    -0.0383
     13 C10         0.7245   -0.7305   -0.6019 C.ar    1  NONAME1     0.0493
     14 C11        -0.5149   -0.0544   -0.6107 C.ar    1  NONAME1     0.0552
     15 C12        -1.7403   -0.7421   -0.4675 C.ar    1  NONAME1    -0.0266
     16 N2         -0.5258    1.3387   -0.7946 N.am    1  NONAME1    -0.2824
     17 C13         0.6279    2.0880   -0.8397 C.2     1  NONAME1     0.2383
     18 O3          0.5908    3.2765   -1.1538 O.2     1  NONAME1    -0.2734
     19 C14         1.8907    1.3593   -0.3485 C.3     1  NONAME1     0.1067
     20 C15         3.1698    2.1421   -0.6920 C.3     1  NONAME1     0.0209
     21 S1          4.0569    2.8120    0.7771 S.3     1  NONAME1    -0.1537
     22 C16         3.0192    4.2290    1.2701 C.3     1  NONAME1     0.0191
     23 C17         1.6979    4.0352    2.0041 C.ar    1  NONAME1    -0.0344
     24 C18         0.8077    5.1596    1.9555 C.ar    1  NONAME1    -0.0546
     25 C19        -0.4384    5.1471    2.5915 C.ar    1  NONAME1    -0.0501
     26 C20        -1.3610    6.3383    2.9099 C.3     1  NONAME1    -0.0397
     27 C21        -0.8537    3.9529    3.1934 C.ar    1  NONAME1    -0.0586
     28 C22         0.0102    2.8717    3.3032 C.ar    1  NONAME1    -0.0583
     29 C23         1.3254    2.9383    2.8140 C.ar    1  NONAME1    -0.0465
     30 C24         2.2186    1.8208    3.2872 C.3     1  NONAME1    -0.0394
     31 N3          1.9457   -0.0457   -0.8425 N.pl3   1  NONAME1    -0.3309
     32 H1        -10.7986   -3.5587   -2.1240 H       1  NONAME1     0.0252
     33 H2        -12.3295   -3.2692   -1.1982 H       1  NONAME1     0.0252
     34 H3        -11.6371   -4.9452   -1.3026 H       1  NONAME1     0.0252
     35 H4         -9.5832   -5.3818   -0.1616 H       1  NONAME1     0.0557
     36 H5         -9.6393   -5.5460   -1.9309 H       1  NONAME1     0.0557
     37 H6         -8.8103   -2.7537    0.3396 H       1  NONAME1     0.0560
     38 H7         -7.7893   -4.1745    0.6594 H       1  NONAME1     0.0560
     39 H8         -6.8553   -2.0005   -1.2924 H       1  NONAME1     0.0302
     40 H9         -6.7264   -1.7404    0.4504 H       1  NONAME1     0.0302
     41 H10        -5.3684   -3.8570    0.6476 H       1  NONAME1     0.0463
     42 H11        -5.3742   -3.9947   -1.1161 H       1  NONAME1     0.0463
     43 H12        -4.3002   -1.5717   -0.8983 H       1  NONAME1     0.1490
     44 H13        -0.4804   -3.8953   -0.2606 H       1  NONAME1     0.0626
     45 H14         1.6337   -2.6888   -0.5631 H       1  NONAME1     0.0637
     46 H15        -2.6630   -0.1786   -0.4348 H       1  NONAME1     0.0644
     47 H16        -1.3917    1.8331   -0.9756 H       1  NONAME1     0.1549
     48 H17         1.7918    1.2852    0.7324 H       1  NONAME1     0.0602
     49 H18         3.0136    2.9583   -1.4026 H       1  NONAME1     0.0399
     50 H19         3.8988    1.4682   -1.1592 H       1  NONAME1     0.0399
     51 H20         3.6476    4.8536    1.9166 H       1  NONAME1     0.0425
     52 H21         2.8401    4.8073    0.3557 H       1  NONAME1     0.0425
     53 H22         1.1356    6.0732    1.4602 H       1  NONAME1     0.0623
     54 H23        -2.1634    6.0084    2.2157 H       1  NONAME1     0.0278
     55 H24        -2.2837    7.5295    3.2283 H       1  NONAME1     0.0278
     56 H25        -0.7469    7.0872    2.3698 H       1  NONAME1     0.0278
     57 H26        -1.8317    3.8889    3.6673 H       1  NONAME1     0.0620
     58 H27        -0.3245    1.9942    3.8545 H       1  NONAME1     0.0620
     59 H28         3.2796    2.0236    3.1617 H       1  NONAME1     0.0278
     60 H29         2.0855    1.6865    4.3680 H       1  NONAME1     0.0278
     61 H30         1.9572    0.8741    2.8052 H       1  NONAME1     0.0278
     62 H31         2.7318   -0.5582   -0.4469 H       1  NONAME1     0.1469
@<TRIPOS>BOND
     1     1     2    1
     2     2     3    1
     3     3     4    1
     4     4     5    1
     5     5     6    1
     6     6     7    1
     7     7     8   am
     8     8     9    2
     9     8    10    1
    10    10    11   ar
    11    11    12   ar
    12    12    13   ar
    13    13    14   ar
    14    14    15   ar
    15    10    15   ar
    16    14    16    1
    17    16    17   am
    18    17    18    2
    19    19    17    1
    20    19    20    1
    21    20    21    1
    22    21    22    1
    23    22    23    1
    24    23    24   ar
    25    24    25   ar
    26    25    26    1
    27    25    27   ar
    28    27    28   ar
    29    28    29   ar
    30    23    29   ar
    31    29    30    1
    32    19    31    1
    33    13    31    1
    34     1    32    1
    35     1    33    1
    36     1    34    1
    37     2    35    1
    38     2    36    1
    39     4    37    1
    40     4    38    1
    41     5    39    1
    42     5    40    1
    43     6    41    1
    44     6    42    1
    45     7    43    1
    46    11    44    1
    47    12    45    1
    48    15    46    1
    49    16    47    1
    50    19    48    1
    51    20    49    1
    52    20    50    1
    53    22    51    1
    54    22    52    1
    55    24    53    1
    56    26    54    1
    57    26    55    1
    58    26    56    1
    59    27    57    1
    60    28    58    1
    61    30    59    1
    62    30    60    1
    63    30    61    1
    64    31    62    1
