REMARK  2 active torsions:
REMARK  status: ('A' for Active; 'I' for Inactive)
REMARK       I    between atoms: N1_1  and  C1_2 
REMARK    1  A    between atoms: C2_4  and  C1_2 
REMARK    2  A    between atoms: C8_10  and  O2_11 
ROOT
ATOM      1  C2  NON d   1      -0.117  -0.190   0.340  0.00  0.00     0.105 C 
ATOM      2  C3  NON d   1       1.133  -0.346  -0.566  0.00  0.00     0.001 C 
ATOM      3  C4  NON d   1       2.399  -0.086   0.271  0.00  0.00     0.006 C 
ATOM      4  C5  NON d   1       2.358   1.431   0.502  0.00  0.00     0.007 C 
ATOM      5  C6  NON d   1       1.065   1.854  -0.213  0.00  0.00     0.015 C 
ATOM      6  C7  NON d   1       1.063   0.920  -1.423  0.00  0.00     0.012 C 
ATOM      7  C8  NON d   1      -0.143   1.338   0.598  0.00  0.00     0.135 C 
ENDROOT
BRANCH   1   8
ATOM      8  C1  NON d   1      -1.349  -0.817  -0.304  0.00  0.00     0.202 C 
ATOM      9  N1  NON d   1      -2.550  -0.410   0.198  0.00  0.00    -0.272 NA
ATOM     10  H1  NON d   1      -2.596   0.577   0.446  0.00  0.00     0.127 HD
ATOM     11  H2  NON d   1      -3.350  -0.761  -0.312  0.00  0.00     0.127 HD
ATOM     12  O1  NON d   1      -1.304  -1.717  -1.137  0.00  0.00    -0.280 OA
ENDBRANCH   1   8
BRANCH   7  13
ATOM     13  O2  NON d   1      -1.339   1.976   0.165  0.00  0.00    -0.394 OA
ATOM     14  H13 NON d   1      -1.189   2.938   0.222  0.00  0.00     0.210 HD
ENDBRANCH   7  13
TORSDOF 2
