REMARK  5 active torsions:
REMARK  status: ('A' for Active; 'I' for Inactive)
REMARK    1  A    between atoms: C6_7  and  C7_8 
REMARK       I    between atoms: C7_8  and  N2_10 
REMARK    2  A    between atoms: N2_10  and  C8_11 
REMARK    3  A    between atoms: C11_14  and  N3_15 
REMARK       I    between atoms: N3_15  and  C12_16 
REMARK    4  A    between atoms: C12_16  and  C13_18 
REMARK    5  A    between atoms: C17_22  and  S1_23 
ROOT
ATOM      1  C8  NON d   1       9.686  -3.657   0.019  0.00  0.00     0.036 A 
ATOM      2  C9  NON d   1      10.955  -3.060   0.094  0.00  0.00     0.032 A 
ATOM      3  C10 NON d   1      12.177  -3.827   0.081  0.00  0.00     0.033 A 
ATOM      4  C11 NON d   1      12.213  -5.240   0.006  0.00  0.00     0.057 A 
ATOM      5  C20 NON d   1      10.938  -5.832  -0.114  0.00  0.00     0.062 A 
ATOM      6 Cl1  NON d   1      10.711  -7.502  -0.514  0.00  0.00    -0.082 Cl
ATOM      7  C21 NON d   1       9.717  -5.055  -0.092  0.00  0.00     0.055 A 
ENDROOT
BRANCH   1   8
ATOM      8  N2  NON d   1       8.473  -2.826   0.032  0.00  0.00    -0.323 N 
ATOM      9  C7  NON d   1       7.134  -3.277  -0.035  0.00  0.00     0.256 C 
ATOM     10  O1  NON d   1       6.855  -4.475  -0.107  0.00  0.00    -0.267 OA
ATOM     11  H7  NON d   1       8.627  -1.832   0.114  0.00  0.00     0.169 HD
BRANCH   9  12
ATOM     12  C6  NON d   1       5.920  -2.308  -0.014  0.00  0.00     0.033 A 
ATOM     13  C5  NON d   1       5.947  -0.909  -0.010  0.00  0.00     0.019 A 
ATOM     14  C4  NON d   1       4.740  -0.120  -0.006  0.00  0.00     0.031 A 
ATOM     15  C3  NON d   1       3.469  -0.753  -0.004  0.00  0.00     0.043 A 
ATOM     16  N1  NON d   1       2.150  -0.267  -0.001  0.00  0.00    -0.359 N 
ATOM     17  C23 NON d   1       3.399  -2.140  -0.007  0.00  0.00    -0.001 A 
ATOM     18  C2  NON d   1       1.220  -1.303   0.000  0.00  0.00     0.012 A 
ATOM     19  H4  NON d   1       1.913   0.716  -0.002  0.00  0.00     0.166 HD
ATOM     20  C1  NON d   1      -0.320  -1.303   0.000  0.00  0.00     0.068 C 
ATOM     21  C24 NON d   1       2.001  -2.478  -0.006  0.00  0.00    -0.027 A 
ATOM     22  C25 NON d   1       1.483  -3.880  -0.018  0.00  0.00     0.051 C 
ATOM     23  C22 NON d   1       4.622  -2.894  -0.014  0.00  0.00     0.031 A 
ENDBRANCH   9  12
ENDBRANCH   1   8
BRANCH   4  24
ATOM     24  N3  NON d   1      13.536  -5.886  -0.011  0.00  0.00    -0.321 N 
ATOM     25  C12 NON d   1      13.896  -7.205   0.363  0.00  0.00     0.256 C 
ATOM     26  O2  NON d   1      13.141  -7.987   0.933  0.00  0.00    -0.267 OA
ATOM     27  H10 NON d   1      14.300  -5.254  -0.203  0.00  0.00     0.169 HD
BRANCH  25  28
ATOM     28  C13 NON d   1      15.347  -7.718   0.157  0.00  0.00     0.033 A 
ATOM     29  C14 NON d   1      16.447  -6.891  -0.025  0.00  0.00     0.017 A 
ATOM     30  C15 NON d   1      17.731  -7.456  -0.190  0.00  0.00     0.002 A 
ATOM     31  C16 NON d   1      17.961  -8.856  -0.195  0.00  0.00     0.023 A 
ATOM     32  C17 NON d   1      16.927  -9.773   0.000  0.00  0.00     0.059 A 
ATOM     33  C19 NON d   1      15.626  -9.132   0.195  0.00  0.00     0.040 A 
BRANCH  32  34
ATOM     34  S1  NON d   1      16.927 -11.313   0.000  0.00  0.00     0.171 S 
ATOM     35  C18 NON d   1      16.927 -12.853   0.000  0.00  0.00     0.167 C 
ATOM     36  O3  NON d   1      16.509 -11.335  -1.417  0.00  0.00    -0.223 OA
ATOM     37  O4  NON d   1      18.373 -11.367   0.310  0.00  0.00    -0.223 OA
ENDBRANCH  32  34
ENDBRANCH  25  28
ENDBRANCH   4  24
TORSDOF 5
