REMARK  6 active torsions:
REMARK  status: ('A' for Active; 'I' for Inactive)
REMARK    1  A    between atoms: C1_2  and  C2_3 
REMARK       I    between atoms: C1_2  and  N2_13 
REMARK    2  A    between atoms: C2_3  and  C3_4 
REMARK    3  A    between atoms: N2_13  and  N3_14 
REMARK       I    between atoms: N3_14  and  C11_15 
REMARK    4  A    between atoms: C11_15  and  C12_17 
REMARK    5  A    between atoms: C12_17  and  C13_19 
REMARK    6  A    between atoms: N5_22  and  C15_23 
ROOT
ATOM      1  N3  NON d   1       9.041  -1.698   0.034  0.00  0.00    -0.261 N 
ATOM      2  C11 NON d   1      10.165  -0.899   0.068  0.00  0.00     0.311 C 
ATOM      3  O2  NON d   1      10.137   0.320   0.168  0.00  0.00    -0.262 OA
ATOM      4  H10 NON d   1       9.098  -2.714  -0.076  0.00  0.00     0.190 HD
ENDROOT
BRANCH   1   5
ATOM      5  N2  NON d   1       7.777  -1.114   0.132  0.00  0.00    -0.267 N 
ATOM      6  C1  NON d   1       6.663  -1.906  -0.116  0.00  0.00     0.240 C 
ATOM      7  O1  NON d   1       6.778  -3.102  -0.371  0.00  0.00    -0.272 OA
ATOM      8  H9  NON d   1       7.736  -0.099   0.209  0.00  0.00     0.190 HD
BRANCH   6   9
ATOM      9  C2  NON d   1       5.369  -1.108  -0.063  0.00  0.00     0.145 C 
BRANCH   9  10
ATOM     10  C3  NON d   1       4.075  -1.864  -0.010  0.00  0.00    -0.021 A 
ATOM     11  C4  NON d   1       3.853  -3.226   0.057  0.00  0.00     0.097 A 
ATOM     12  N1  NON d   1       2.503  -3.453   0.076  0.00  0.00    -0.365 N 
ATOM     13  C5  NON d   1       1.820  -2.262   0.041  0.00  0.00     0.042 A 
ATOM     14  H4  NON d   1       2.068  -4.364   0.113  0.00  0.00     0.165 HD
ATOM     15  C6  NON d   1       0.443  -2.010   0.050  0.00  0.00     0.030 A 
ATOM     16  C10 NON d   1       2.775  -1.247  -0.010  0.00  0.00    -0.001 A 
ATOM     17  C7  NON d   1       0.027  -0.677   0.010  0.00  0.00     0.002 A 
ATOM     18  C8  NON d   1       0.954   0.361  -0.039  0.00  0.00     0.001 A 
ATOM     19  C9  NON d   1       2.328   0.091  -0.050  0.00  0.00     0.014 A 
ENDBRANCH   9  10
ENDBRANCH   6   9
ENDBRANCH   1   5
BRANCH   2  20
ATOM     20  C12 NON d   1      11.481  -1.691  -0.024  0.00  0.00     0.253 C 
ATOM     21  O3  NON d   1      11.384  -2.916  -0.101  0.00  0.00    -0.281 OA
BRANCH  20  22
ATOM     22  C13 NON d   1      12.774  -1.027  -0.011  0.00  0.00     0.057 A 
ATOM     23  C14 NON d   1      13.105   0.339   0.027  0.00  0.00     0.156 A 
ATOM     24  N4  NON d   1      14.421   0.553   0.026  0.00  0.00    -0.179 NA
ATOM     25  N5  NON d   1      14.979  -0.685  -0.007  0.00  0.00    -0.244 N 
ATOM     26  C21 NON d   1      14.004  -1.659  -0.036  0.00  0.00     0.136 A 
BRANCH  25  27
ATOM     27  C15 NON d   1      16.392  -0.853  -0.008  0.00  0.00     0.058 A 
ATOM     28  C16 NON d   1      17.221   0.280   0.016  0.00  0.00     0.031 A 
ATOM     29  C17 NON d   1      18.610   0.137   0.017  0.00  0.00     0.002 A 
ATOM     30  C18 NON d   1      19.181  -1.133  -0.004  0.00  0.00     0.000 A 
ATOM     31  C19 NON d   1      18.365  -2.263  -0.027  0.00  0.00     0.002 A 
ATOM     32  C20 NON d   1      16.973  -2.129  -0.030  0.00  0.00     0.031 A 
ENDBRANCH  25  27
ENDBRANCH  20  22
ENDBRANCH   2  20
TORSDOF 6
