@<TRIPOS>MOLECULE
*****
 58 61 0 0 0
SMALL
USER_CHARGES

@<TRIPOS>ATOM
      1 C1         14.4713    3.7350    0.0000 C.3     1  NONAME1    -0.0014
      2 C2         14.4713    2.1950    0.0000 C.2     1  NONAME1     0.1601
      3 O1         15.5195    1.5544    0.0874 O.2     1  NONAME1    -0.2924
      4 C3         13.1683    1.4526   -0.0679 C.ar    1  NONAME1     0.0172
      5 C4         13.2008    0.0574   -0.0738 C.ar    1  NONAME1    -0.0495
      6 C5         12.0153   -0.7020   -0.1129 C.ar    1  NONAME1    -0.0400
      7 C6         10.7343   -0.1204   -0.1254 C.ar    1  NONAME1     0.0298
      8 N1          9.5530   -0.8998   -0.1910 N.pl3   1  NONAME1    -0.3269
      9 C7          9.6363   -2.2972    0.3001 C.3     1  NONAME1     0.0280
     10 C8          8.3986   -3.1529   -0.0571 C.3     1  NONAME1     0.0308
     11 N2          7.1001   -2.5320    0.1658 N.am    1  NONAME1    -0.2933
     12 C9          5.8437   -3.1987    0.1796 C.2     1  NONAME1     0.2656
     13 O2          4.8234   -2.5090    0.2701 O.2     1  NONAME1    -0.2683
     14 C10         5.6909   -4.6826    0.0723 C.ar    1  NONAME1     0.1348
     15 C11         6.6197   -5.6444   -0.2881 C.ar    1  NONAME1     0.0094
     16 S1          5.9335   -7.2196   -0.2965 S.2     1  NONAME1    -0.0597
     17 C12         4.4146   -6.5426    0.0772 C.ar    1  NONAME1     0.1663
     18 N3          3.4155   -7.4794    0.1023 N.am    1  NONAME1    -0.2482
     19 C13         2.0690   -7.1777    0.2030 C.2     1  NONAME1     0.3096
     20 O3          1.6029   -6.0536    0.3037 O.2     1  NONAME1    -0.2521
     21 N4          1.3184   -8.3541    0.1557 N.am    1  NONAME1    -0.2692
     22 C14        -0.0872   -8.4971    0.1155 C.ar    1  NONAME1     0.0350
     23 C15        -0.5938   -9.8056    0.1224 C.ar    1  NONAME1    -0.0404
     24 C16        -1.9704  -10.0418    0.0781 C.ar    1  NONAME1    -0.0598
     25 C17        -2.8583   -8.9718    0.0203 C.ar    1  NONAME1    -0.0587
     26 C18        -2.3742   -7.6598   -0.0068 C.ar    1  NONAME1    -0.0487
     27 C19        -3.3290   -6.5022   -0.0353 C.3     1  NONAME1    -0.0397
     28 C20        -0.9870   -7.4320    0.0528 C.ar    1  NONAME1    -0.0375
     29 N5          4.4067   -5.2518    0.2762 N.ar    1  NONAME1    -0.2199
     30 C21         7.0470   -1.1058   -0.1857 C.3     1  NONAME1     0.0308
     31 C22         8.2762   -0.2661    0.2237 C.3     1  NONAME1     0.0280
     32 C23        10.7355    1.2916   -0.1501 C.ar    1  NONAME1    -0.0400
     33 C24        11.9218    2.0696   -0.1153 C.ar    1  NONAME1    -0.0495
     34 H1         15.5705    3.8298   -0.1315 H       1  NONAME1     0.0309
     35 H2         14.4713    5.2750    0.0000 H       1  NONAME1     0.0309
     36 H3         14.2422    3.8085    1.0853 H       1  NONAME1     0.0309
     37 H4         14.1558   -0.4665   -0.0527 H       1  NONAME1     0.0625
     38 H5         12.1557   -1.7768   -0.1416 H       1  NONAME1     0.0636
     39 H6          9.7634   -2.2848    1.3900 H       1  NONAME1     0.0479
     40 H7         10.4832   -2.8347   -0.1357 H       1  NONAME1     0.0479
     41 H8          8.4633   -4.0566    0.5522 H       1  NONAME1     0.0480
     42 H9          8.4410   -3.4271   -1.1180 H       1  NONAME1     0.0480
     43 H10         7.6535   -5.5604   -0.5688 H       1  NONAME1     0.0717
     44 H11         3.6968   -8.4153   -0.1284 H       1  NONAME1     0.1583
     45 H12         1.8347   -9.2170    0.2158 H       1  NONAME1     0.1564
     46 H13         0.0715  -10.6632    0.1644 H       1  NONAME1     0.0636
     47 H14        -2.3498  -11.0603    0.0910 H       1  NONAME1     0.0618
     48 H15        -3.9286   -9.1641   -0.0055 H       1  NONAME1     0.0620
     49 H16        -2.8977   -5.6530   -0.5753 H       1  NONAME1     0.0278
     50 H17        -3.5691   -6.1907    0.9859 H       1  NONAME1     0.0278
     51 H18        -4.2576   -6.7742   -0.5483 H       1  NONAME1     0.0278
     52 H19        -0.6343   -6.4039    0.0455 H       1  NONAME1     0.0639
     53 H20         6.9273   -1.0642   -1.2760 H       1  NONAME1     0.0480
     54 H21         6.1572   -0.6398    0.2523 H       1  NONAME1     0.0480
     55 H22         8.1360    0.7121   -0.2450 H       1  NONAME1     0.0479
     56 H23         8.2796   -0.1293    1.3125 H       1  NONAME1     0.0479
     57 H24         9.8065    1.8505   -0.2058 H       1  NONAME1     0.0636
     58 H25        11.8314    3.1524   -0.1280 H       1  NONAME1     0.0625
@<TRIPOS>BOND
     1     1     2    1
     2     2     3    2
     3     2     4    1
     4     4     5   ar
     5     5     6   ar
     6     6     7   ar
     7     7     8    1
     8     8     9    1
     9     9    10    1
    10    10    11    1
    11    11    12   am
    12    12    13    2
    13    12    14    1
    14    14    15   ar
    15    15    16   ar
    16    16    17   ar
    17    17    18    1
    18    18    19   am
    19    19    20    2
    20    19    21   am
    21    21    22    1
    22    22    23   ar
    23    23    24   ar
    24    24    25   ar
    25    25    26   ar
    26    26    27    1
    27    26    28   ar
    28    22    28   ar
    29    17    29   ar
    30    14    29   ar
    31    11    30    1
    32    30    31    1
    33     8    31    1
    34     7    32   ar
    35    32    33   ar
    36     4    33   ar
    37     1    34    1
    38     1    35    1
    39     1    36    1
    40     5    37    1
    41     6    38    1
    42     9    39    1
    43     9    40    1
    44    10    41    1
    45    10    42    1
    46    15    43    1
    47    18    44    1
    48    21    45    1
    49    23    46    1
    50    24    47    1
    51    25    48    1
    52    27    49    1
    53    27    50    1
    54    27    51    1
    55    28    52    1
    56    30    53    1
    57    30    54    1
    58    31    55    1
    59    31    56    1
    60    32    57    1
    61    33    58    1
