REMARK  10 active torsions:
REMARK  status: ('A' for Active; 'I' for Inactive)
REMARK    1  A    between atoms: C3_3  and  C2_2 
REMARK    2  A    between atoms: C3_3  and  C4_4 
REMARK    3  A    between atoms: C3_3  and  N3_21 
REMARK    4  A    between atoms: C4_4  and  C5_5 
REMARK    5  A    between atoms: C5_5  and  N1_6 
REMARK    6  A    between atoms: N1_6  and  S1_7 
REMARK    7  A    between atoms: S1_7  and  C6_10 
REMARK    8  A    between atoms: C9_13  and  N2_14 
REMARK       I    between atoms: N2_14  and  C10_15 
REMARK    9  A    between atoms: C10_15  and  O4_17 
REMARK   10  A    between atoms: C14_23  and  C15_24 
ROOT
ATOM      1  N1  NON d   1       1.334  -3.850   0.000  0.00  0.00    -0.315 N 
ATOM      2  H11 NON d   1       0.846  -3.609  -0.860  0.00  0.00     0.172 HD
ENDROOT
BRANCH   1   3
ATOM      3  C5  NON d   1       2.586  -4.491  -0.084  0.00  0.00     0.134 C 
BRANCH   3   4
ATOM      4  C4  NON d   1       2.404  -5.975  -0.095  0.00  0.00     0.047 C 
BRANCH   4   5
ATOM      5  C3  NON d   1       1.985  -6.930   1.146  0.00  0.00     0.111 C 
BRANCH   5   6
ATOM      6  C2  NON d   1       2.001  -8.470   1.155  0.00  0.00     0.023 C 
ATOM      7  C1  NON d   1       3.341  -9.226   1.206  0.00  0.00     0.007 C 
ENDBRANCH   5   6
BRANCH   5   8
ATOM      8  N3  NON d   1       1.286  -6.160   2.282  0.00  0.00    -0.269 N 
ATOM      9  N4  NON d   1       0.190  -6.629   3.260  0.00  0.00    -0.167 NA
ATOM     10  C14 NON d   1       0.019  -5.642   4.364  0.00  0.00     0.162 C 
ATOM     11  C16 NON d   1       1.323  -4.980   4.303  0.00  0.00     0.064 C 
ATOM     12  C17 NON d   1       2.081  -5.350   3.187  0.00  0.00     0.029 C 
ATOM     13  C18 NON d   1       3.503  -4.952   2.982  0.00  0.00     0.070 C 
BRANCH  10  14
ATOM     14  C15 NON d   1      -0.772  -5.803   5.675  0.00  0.00     0.436 C 
ATOM     15  F1  NON d   1      -1.563  -5.965   6.987  0.00  0.00    -0.165 F 
ATOM     16  F2  NON d   1      -0.442  -4.480   6.127  0.00  0.00    -0.165 F 
ATOM     17  F3  NON d   1       0.261  -6.599   6.271  0.00  0.00    -0.165 F 
ENDBRANCH  10  14
ENDBRANCH   5   8
ENDBRANCH   4   5
ENDBRANCH   3   4
ENDBRANCH   1   3
BRANCH   1  18
ATOM     18  S1  NON d   1       0.341  -4.029   1.164  0.00  0.00     0.258 S 
ATOM     19  O1  NON d   1       0.163  -2.567   1.114  0.00  0.00    -0.201 OA
ATOM     20  O2  NON d   1      -0.434  -4.807   0.180  0.00  0.00    -0.201 OA
BRANCH  18  21
ATOM     21  C6  NON d   1      -0.651  -4.207   2.328  0.00  0.00     0.079 C 
ATOM     22  C7  NON d   1      -0.945  -3.189   3.290  0.00  0.00     0.027 C 
ATOM     23  C8  NON d   1      -2.075  -3.218   4.159  0.00  0.00     0.031 C 
ATOM     24  C9  NON d   1      -2.973  -4.285   4.118  0.00  0.00     0.036 C 
ATOM     25  C12 NON d   1      -2.864  -5.185   3.076  0.00  0.00     0.031 C 
ATOM     26  C13 NON d   1      -1.768  -5.117   2.206  0.00  0.00     0.027 C 
BRANCH  24  27
ATOM     27  N2  NON d   1      -3.871  -4.500   5.181  0.00  0.00    -0.303 N 
ATOM     28  C10 NON d   1      -4.288  -5.745   5.598  0.00  0.00     0.364 C 
ATOM     29  O3  NON d   1      -3.994  -6.821   5.098  0.00  0.00    -0.238 OA
ATOM     30  H14 NON d   1      -3.998  -3.771   5.872  0.00  0.00     0.171 HD
BRANCH  28  31
ATOM     31  O4  NON d   1      -5.003  -5.612   6.749  0.00  0.00    -0.309 OA
ATOM     32  C11 NON d   1      -5.320  -6.846   7.410  0.00  0.00     0.215 C 
ENDBRANCH  28  31
ENDBRANCH  24  27
ENDBRANCH  18  21
ENDBRANCH   1  18
TORSDOF 10
