REMARK  4 active torsions:
REMARK  status: ('A' for Active; 'I' for Inactive)
REMARK    1  A    between atoms: C5_5  and  C6_6 
REMARK    2  A    between atoms: C7_8  and  N2_9 
REMARK    3  A    between atoms: C10_13  and  C11_14 
REMARK    4  A    between atoms: C14_17  and  C15_18 
REMARK       I    between atoms: C15_18  and  N4_19 
ROOT
ATOM      1  C6  NON d   1       3.188  -8.154   0.014  0.00  0.00     0.082 C 
ATOM      2  N1  NON d   1       3.825  -9.295   0.370  0.00  0.00    -0.234 NA
ATOM      3  C7  NON d   1       3.099 -10.402   0.590  0.00  0.00     0.123 C 
ATOM      4  C8  NON d   1       1.702 -10.415   0.540  0.00  0.00     0.096 C 
ATOM      5  C9  NON d   1       1.003 -11.612   0.915  0.00  0.00     0.103 C 
ATOM      6  N3  NON d   1       0.430 -12.590   1.173  0.00  0.00    -0.191 NA
ATOM      7  C10 NON d   1       1.015  -9.248   0.121  0.00  0.00     0.006 C 
ATOM      8  C18 NON d   1       1.801  -8.111  -0.228  0.00  0.00    -0.019 C 
ATOM      9  C19 NON d   1       1.158  -6.902  -0.868  0.00  0.00     0.052 C 
ENDROOT
BRANCH   3  10
ATOM     10  N2  NON d   1       3.860 -11.521   0.928  0.00  0.00    -0.286 NA
ATOM     11  H6  NON d   1       3.649 -12.337   0.362  0.00  0.00     0.125 HD
ATOM     12  H7  NON d   1       4.843 -11.261   0.857  0.00  0.00     0.125 HD
ENDBRANCH   3  10
BRANCH   7  13
ATOM     13  C11 NON d   1      -0.478  -9.198   0.087  0.00  0.00    -0.024 A 
ATOM     14  C12 NON d   1      -1.245 -10.107  -0.665  0.00  0.00     0.013 A 
ATOM     15  C13 NON d   1      -2.650 -10.060  -0.665  0.00  0.00     0.018 A 
ATOM     16  C14 NON d   1      -3.322  -9.078   0.068  0.00  0.00     0.031 A 
ATOM     17  C16 NON d   1      -2.578  -8.149   0.799  0.00  0.00     0.018 A 
ATOM     18  C17 NON d   1      -1.179  -8.224   0.826  0.00  0.00     0.013 A 
BRANCH  16  19
ATOM     19  C15 NON d   1      -4.808  -8.964   0.078  0.00  0.00     0.249 C 
ATOM     20  N4  NON d   1      -5.529 -10.111  -0.116  0.00  0.00    -0.366 N 
ATOM     21  H10 NON d   1      -6.531 -10.035   0.013  0.00  0.00     0.159 HD
ATOM     22  H11 NON d   1      -5.116 -11.028  -0.024  0.00  0.00     0.159 HD
ATOM     23  O1  NON d   1      -5.372  -7.897   0.288  0.00  0.00    -0.268 OA
ENDBRANCH  16  19
ENDBRANCH   7  13
BRANCH   1  24
ATOM     24  C5  NON d   1       4.123  -7.008  -0.065  0.00  0.00     0.034 C 
ATOM     25  C4  NON d   1       5.437  -6.981  -0.510  0.00  0.00     0.022 C 
ATOM     26  C3  NON d   1       6.020  -5.670  -0.487  0.00  0.00     0.015 C 
ATOM     27  C2  NON d   1       5.136  -4.735   0.000  0.00  0.00    -0.021 C 
ATOM     28  C1  NON d   1       5.136  -3.195   0.000  0.00  0.00     0.056 C 
ATOM     29  S1  NON d   1       3.704  -5.476   0.589  0.00  0.00    -0.093 SA
ENDBRANCH   1  24
TORSDOF 4
