REMARK  6 active torsions:
REMARK  status: ('A' for Active; 'I' for Inactive)
REMARK       I    between atoms: C1_2  and  N1_3 
REMARK       I    between atoms: C1_2  and  N2_14 
REMARK    1  A    between atoms: N1_3  and  C2_4 
REMARK    2  A    between atoms: C6_8  and  C7_9 
REMARK    3  A    between atoms: N2_14  and  C9_15 
REMARK    4  A    between atoms: C11_17  and  N3_18 
REMARK       I    between atoms: N3_18  and  C12_19 
REMARK    5  A    between atoms: C12_19  and  C13_21 
REMARK    6  A    between atoms: C21_30  and  N4_31 
ROOT
ATOM      1  C9  NON d   1       1.148  -7.038   0.087  0.00  0.00     0.065 A 
ATOM      2  C10 NON d   1       1.090  -5.622  -0.034  0.00  0.00     0.061 A 
ATOM      3  C11 NON d   1       2.220  -4.805  -0.029  0.00  0.00     0.037 A 
ATOM      4  C19 NON d   1       3.460  -5.412   0.061  0.00  0.00     0.032 A 
ATOM      5  C20 NON d   1       3.552  -6.799   0.188  0.00  0.00     0.034 A 
ATOM      6  C21 NON d   1       2.433  -7.673   0.200  0.00  0.00     0.057 A 
ENDROOT
BRANCH   1   7
ATOM      7  N2  NON d   1      -0.081  -7.787   0.148  0.00  0.00    -0.306 N 
ATOM      8  C1  NON d   1      -1.364  -7.325  -0.025  0.00  0.00     0.325 C 
ATOM      9  O1  NON d   1      -1.706  -6.166  -0.243  0.00  0.00    -0.247 OA
ATOM     10  N1  NON d   1      -2.405  -8.207   0.082  0.00  0.00    -0.309 N 
ATOM     11  H1  NON d   1      -3.272  -7.686   0.168  0.00  0.00     0.170 HD
ATOM     12  H6  NON d   1       0.004  -8.690   0.575  0.00  0.00     0.170 HD
BRANCH  10  13
ATOM     13  C2  NON d   1      -2.544  -9.591  -0.089  0.00  0.00     0.037 C 
ATOM     14  C3  NON d   1      -1.543 -10.377  -0.646  0.00  0.00     0.029 C 
ATOM     15  C4  NON d   1      -1.693 -11.752  -0.773  0.00  0.00     0.003 C 
ATOM     16  C5  NON d   1      -2.909 -12.333  -0.442  0.00  0.00     0.016 C 
ATOM     17  C6  NON d   1      -4.001 -11.550   0.000  0.00  0.00     0.050 C 
ATOM     18  C8  NON d   1      -3.792 -10.175   0.200  0.00  0.00     0.045 C 
BRANCH  17  19
ATOM     19  C7  NON d   1      -5.335 -12.320   0.000  0.00  0.00     0.417 C 
ATOM     20  F1  NON d   1      -6.668 -13.090   0.000  0.00  0.00    -0.166 F 
ATOM     21  F2  NON d   1      -5.001 -13.019   1.202  0.00  0.00    -0.166 F 
ATOM     22  F3  NON d   1      -6.087 -11.201   0.481  0.00  0.00    -0.166 F 
ENDBRANCH  17  19
ENDBRANCH  10  13
ENDBRANCH   1   7
BRANCH   6  23
ATOM     23  N4  NON d   1       2.688  -9.043   0.345  0.00  0.00    -0.379 N 
ATOM     24  C22 NON d   1       4.069  -9.560   0.383  0.00  0.00     0.123 C 
ATOM     25  C23 NON d   1       3.907 -11.066   0.506  0.00  0.00     0.021 C 
ATOM     26  C24 NON d   1       2.695 -11.332  -0.360  0.00  0.00     0.021 C 
ATOM     27  C25 NON d   1       1.813 -10.100  -0.152  0.00  0.00     0.123 C 
ENDBRANCH   6  23
BRANCH   3  28
ATOM     28  N3  NON d   1       2.205  -3.391  -0.089  0.00  0.00    -0.323 N 
ATOM     29  C12 NON d   1       1.108  -2.555   0.038  0.00  0.00     0.256 C 
ATOM     30  O2  NON d   1      -0.048  -2.918   0.224  0.00  0.00    -0.267 OA
ATOM     31  H8  NON d   1       3.113  -2.968  -0.182  0.00  0.00     0.169 HD
BRANCH  29  32
ATOM     32  C13 NON d   1       1.362  -1.076  -0.033  0.00  0.00     0.032 A 
ATOM     33  C14 NON d   1       0.237  -0.233  -0.113  0.00  0.00     0.020 A 
ATOM     34  C15 NON d   1       0.380   1.156  -0.165  0.00  0.00     0.043 A 
ATOM     35  C16 NON d   1       1.652   1.710  -0.137  0.00  0.00     0.116 A 
ATOM     36  F4  NON d   1       1.796   3.040  -0.186  0.00  0.00    -0.206 F 
ATOM     37  C17 NON d   1       2.779   0.900  -0.053  0.00  0.00     0.043 A 
ATOM     38  C18 NON d   1       2.639  -0.492   0.004  0.00  0.00     0.020 A 
ENDBRANCH  29  32
ENDBRANCH   3  28
TORSDOF 6
