@<TRIPOS>MOLECULE
*****
 57 58 0 0 0
SMALL
USER_CHARGES

@<TRIPOS>ATOM
      1 C1         -5.9890   -1.1333    2.2954 C.3     1  NONAME1    -0.0203
      2 C2         -5.6619   -2.1067    1.1477 C.2     1  NONAME1     0.0633
      3 N1         -6.6373   -2.2715    0.2987 N.2     1  NONAME1    -0.1853
      4 N2         -6.6048   -3.2184   -0.6655 N.am    1  NONAME1    -0.2183
      5 C3         -7.5049   -3.1996   -1.7089 C.2     1  NONAME1     0.1473
      6 N3         -7.3284   -4.2352   -2.5829 N.am    1  NONAME1    -0.3394
      7 S1         -8.6893   -2.0731   -2.0241 S.2     1  NONAME1    -0.0174
      8 C4         -4.2668   -2.8029    1.1162 C.ar    1  NONAME1    -0.0023
      9 C5         -3.4416   -2.8466    2.2502 C.ar    1  NONAME1    -0.0494
     10 C6         -2.1525   -3.4556    2.2166 C.ar    1  NONAME1    -0.0193
     11 C7         -1.6389   -4.0646    1.0630 C.ar    1  NONAME1     0.1205
     12 O1         -0.3672   -4.6011    1.1610 O.3     1  NONAME1    -0.4918
     13 C8          0.1375   -5.3838    0.0603 C.3     1  NONAME1     0.0927
     14 C9          1.4959   -6.0849    0.3588 C.3     1  NONAME1     0.0157
     15 C10         2.7747   -5.2156    0.2422 C.3     1  NONAME1     0.0927
     16 O2          3.9552   -6.0649    0.2774 O.3     1  NONAME1    -0.4918
     17 C11         5.2057   -5.4876    0.1775 C.ar    1  NONAME1     0.1205
     18 C12         6.3165   -6.3519    0.1839 C.ar    1  NONAME1    -0.0193
     19 C13         7.6592   -5.8743    0.1142 C.ar    1  NONAME1    -0.0494
     20 C14         7.9310   -4.5094    0.0221 C.ar    1  NONAME1    -0.0023
     21 C15         9.3358   -3.8500   -0.0145 C.2     1  NONAME1     0.0633
     22 C16        10.6694   -4.6200   -0.0291 C.3     1  NONAME1    -0.0203
     23 N4          9.3208   -2.5442    0.0126 N.2     1  NONAME1    -0.1853
     24 N5         10.4741   -1.8294    0.0726 N.am    1  NONAME1    -0.2183
     25 C17        10.4479   -0.4508    0.1020 C.2     1  NONAME1     0.1473
     26 N6         11.6863    0.1120    0.2035 N.am    1  NONAME1    -0.3394
     27 S2          9.1152    0.5463    0.0375 S.2     1  NONAME1    -0.0174
     28 C18         6.8022   -3.6534    0.0036 C.ar    1  NONAME1    -0.0494
     29 C19         5.4682   -4.1300    0.0793 C.ar    1  NONAME1    -0.0193
     30 C20        -2.4480   -4.0315   -0.0692 C.ar    1  NONAME1    -0.0193
     31 C21        -3.7206   -3.3874   -0.0461 C.ar    1  NONAME1    -0.0494
     32 H1         -5.0259   -0.5822    2.2247 H       1  NONAME1     0.0293
     33 H2         -6.3161   -0.1599    3.4430 H       1  NONAME1     0.0293
     34 H3         -6.7272   -0.5294    1.7217 H       1  NONAME1     0.0293
     35 H4         -6.1958   -4.1115   -0.4173 H       1  NONAME1     0.1762
     36 H5         -7.8825   -4.1747   -3.4307 H       1  NONAME1     0.1440
     37 H6         -6.4014   -4.6165   -2.7032 H       1  NONAME1     0.1440
     38 H7         -3.7643   -2.4014    3.1888 H       1  NONAME1     0.0625
     39 H8         -1.5430   -3.4448    3.1194 H       1  NONAME1     0.0654
     40 H9         -0.5896   -6.1807   -0.1478 H       1  NONAME1     0.0697
     41 H10         0.2384   -4.7559   -0.8314 H       1  NONAME1     0.0697
     42 H11         1.4693   -6.5409    1.3559 H       1  NONAME1     0.0331
     43 H12         1.6048   -6.9175   -0.3509 H       1  NONAME1     0.0331
     44 H13         2.7578   -4.6770   -0.7115 H       1  NONAME1     0.0697
     45 H14         2.8065   -4.5097    1.0783 H       1  NONAME1     0.0697
     46 H15         6.1463   -7.4259    0.2530 H       1  NONAME1     0.0654
     47 H16         8.4588   -6.6108    0.1450 H       1  NONAME1     0.0625
     48 H17        11.0406   -4.1357   -0.9600 H       1  NONAME1     0.0293
     49 H18        12.0030   -5.3899   -0.0436 H       1  NONAME1     0.0293
     50 H19        10.2367   -5.5841   -0.3532 H       1  NONAME1     0.0293
     51 H20        11.3402   -2.3033    0.2842 H       1  NONAME1     0.1762
     52 H21        11.7162    1.1222    0.1260 H       1  NONAME1     0.1440
     53 H22        12.4931   -0.3784   -0.1480 H       1  NONAME1     0.1440
     54 H23         6.9389   -2.5752   -0.0583 H       1  NONAME1     0.0625
     55 H24         4.6704   -3.3949    0.0684 H       1  NONAME1     0.0654
     56 H25        -2.1194   -4.4713   -1.0067 H       1  NONAME1     0.0654
     57 H26        -4.2475   -3.3299   -0.9940 H       1  NONAME1     0.0625
@<TRIPOS>BOND
     1     1     2    1
     2     2     3    2
     3     3     4    1
     4     4     5    1
     5     5     6    1
     6     5     7    2
     7     2     8    1
     8     8     9   ar
     9     9    10   ar
    10    10    11   ar
    11    11    12    1
    12    12    13    1
    13    13    14    1
    14    14    15    1
    15    15    16    1
    16    16    17    1
    17    17    18   ar
    18    18    19   ar
    19    19    20   ar
    20    20    21    1
    21    21    22    1
    22    21    23    2
    23    23    24    1
    24    24    25    1
    25    25    26    1
    26    25    27    2
    27    20    28   ar
    28    28    29   ar
    29    17    29   ar
    30    11    30   ar
    31    30    31   ar
    32     8    31   ar
    33     1    32    1
    34     1    33    1
    35     1    34    1
    36     4    35    1
    37     6    36    1
    38     6    37    1
    39     9    38    1
    40    10    39    1
    41    13    40    1
    42    13    41    1
    43    14    42    1
    44    14    43    1
    45    15    44    1
    46    15    45    1
    47    18    46    1
    48    19    47    1
    49    22    48    1
    50    22    49    1
    51    22    50    1
    52    24    51    1
    53    26    52    1
    54    26    53    1
    55    28    54    1
    56    29    55    1
    57    30    56    1
    58    31    57    1
