@<TRIPOS>MOLECULE
*****
 45 47 0 0 0
SMALL
USER_CHARGES

@<TRIPOS>ATOM
      1 O1          5.2175   -8.4367    2.5114 O.2     1  NONAME1    -0.2749
      2 C1          5.6805   -8.6771    1.3992 C.2     1  NONAME1     0.2236
      3 C2          5.2815   -7.9700    0.1092 C.3     1  NONAME1     0.0777
      4 S1          3.8840   -6.8437    0.3171 S.3     1  NONAME1    -0.0750
      5 C3          2.5300   -7.9256    0.1107 C.ar    1  NONAME1     0.2128
      6 N1          2.5882   -9.2142   -0.2679 N.ar    1  NONAME1    -0.1190
      7 N2          1.2928   -9.6318   -0.3886 N.ar    1  NONAME1    -0.1090
      8 C4          0.5146   -8.6005   -0.0097 C.ar    1  NONAME1     0.2553
      9 N3         -0.8615   -8.5550    0.1153 N.pl3   1  NONAME1    -0.2267
     10 N4         -1.6952   -9.5157    0.0426 N.2     1  NONAME1    -0.3106
     11 C5         -1.4128  -10.7705    0.1136 C.2     1  NONAME1     0.0275
     12 C6         -2.4269  -11.8394    0.0375 C.ar    1  NONAME1     0.0336
     13 C7         -1.9482  -13.1547    0.0257 C.ar    1  NONAME1    -0.0497
     14 C8         -2.8438  -14.2226   -0.0180 C.ar    1  NONAME1    -0.0609
     15 C9         -4.2168  -13.9804   -0.0468 C.ar    1  NONAME1    -0.0583
     16 C10        -4.7030  -12.6708   -0.0410 C.ar    1  NONAME1    -0.0195
     17 C11        -3.8071  -11.6019   -0.0025 C.ar    1  NONAME1     0.1254
     18 O2         -4.2790  -10.3133    0.0018 O.3     1  NONAME1    -0.5061
     19 N5          1.2585   -7.5201    0.2260 N.ar    1  NONAME1    -0.1848
     20 N6          6.7248   -9.5849    1.2243 N.am    1  NONAME1    -0.3105
     21 C12         7.1321  -10.3938    2.3527 C.3     1  NONAME1     0.0369
     22 C13         8.4675  -11.0937    2.2267 C.ar    1  NONAME1    -0.0303
     23 C14         8.8117  -12.0189    3.2301 C.ar    1  NONAME1    -0.0571
     24 C15        10.0361  -12.6881    3.2088 C.ar    1  NONAME1    -0.0615
     25 C16        10.9428  -12.4408    2.1827 C.ar    1  NONAME1    -0.0617
     26 C17        10.6250  -11.5214    1.1860 C.ar    1  NONAME1    -0.0615
     27 C18         9.3996  -10.8448    1.2087 C.ar    1  NONAME1    -0.0571
     28 H1          5.1081   -8.6994   -0.6875 H       1  NONAME1     0.0475
     29 H2          6.1390   -7.3593   -0.1947 H       1  NONAME1     0.0475
     30 H3         -1.1648   -7.5942    0.2481 H       1  NONAME1     0.1753
     31 H4         -2.6976   -9.2896   -0.0325 H       1  NONAME1     0.1838
     32 H5         -0.3741  -11.0964    0.2633 H       1  NONAME1     0.0828
     33 H6         -0.8789  -13.3625    0.0469 H       1  NONAME1     0.0625
     34 H7         -2.4686  -15.2444   -0.0281 H       1  NONAME1     0.0618
     35 H8         -4.9088  -14.8195   -0.0751 H       1  NONAME1     0.0619
     36 H9         -5.7784  -12.5155   -0.0641 H       1  NONAME1     0.0654
     37 H10        -5.2568  -10.3535   -0.0218 H       1  NONAME1     0.2922
     38 H11         6.8422   -9.9764    0.2997 H       1  NONAME1     0.1490
     39 H12         6.3468  -11.1473    2.4876 H       1  NONAME1     0.0512
     40 H13         7.1578   -9.7628    3.2489 H       1  NONAME1     0.0512
     41 H14         8.1178  -12.2154    4.0460 H       1  NONAME1     0.0621
     42 H15        10.2815  -13.3948    3.9980 H       1  NONAME1     0.0618
     43 H16        11.8976  -12.9610    2.1661 H       1  NONAME1     0.0618
     44 H17        11.3397  -11.3244    0.3894 H       1  NONAME1     0.0618
     45 H18         9.1917  -10.1172    0.4297 H       1  NONAME1     0.0621
@<TRIPOS>BOND
     1     1     2    2
     2     2     3    1
     3     3     4    1
     4     4     5    1
     5     5     6   ar
     6     6     7   ar
     7     7     8   ar
     8     8     9    1
     9    10     9    1
    10    10    11    2
    11    11    12    1
    12    12    13   ar
    13    13    14   ar
    14    14    15   ar
    15    15    16   ar
    16    16    17   ar
    17    12    17   ar
    18    17    18    1
    19     8    19   ar
    20     5    19   ar
    21     2    20   am
    22    20    21    1
    23    21    22    1
    24    22    23   ar
    25    23    24   ar
    26    24    25   ar
    27    25    26   ar
    28    26    27   ar
    29    22    27   ar
    30     3    28    1
    31     3    29    1
    32     9    30    1
    33    10    31    1
    34    11    32    1
    35    13    33    1
    36    14    34    1
    37    15    35    1
    38    16    36    1
    39    18    37    1
    40    20    38    1
    41    21    39    1
    42    21    40    1
    43    23    41    1
    44    24    42    1
    45    25    43    1
    46    26    44    1
    47    27    45    1
