REMARK  4 active torsions:
REMARK  status: ('A' for Active; 'I' for Inactive)
REMARK       I    between atoms: C1_2  and  N1_3 
REMARK    1  A    between atoms: C1_2  and  C15_19 
REMARK    2  A    between atoms: N1_3  and  N2_4 
REMARK    3  A    between atoms: C2_5  and  C3_6 
REMARK    4  A    between atoms: C19_23  and  O2_24 
ROOT
ATOM      1  C3  NON d   1       6.812  -0.189   0.000  0.00  0.00     0.011 A 
ATOM      2  C4  NON d   1       6.877   1.191   0.000  0.00  0.00     0.102 A 
ATOM      3  N3  NON d   1       5.604   1.685   0.000  0.00  0.00    -0.364 N 
ATOM      4  C5  NON d   1       4.688   0.656  -0.000  0.00  0.00     0.054 A 
ATOM      5  C6  NON d   1       5.421  -0.535   0.000  0.00  0.00     0.004 A 
ATOM      6  C7  NON d   1       4.718  -1.758   0.000  0.00  0.00     0.015 A 
ATOM      7  C8  NON d   1       3.316  -1.758  -0.000  0.00  0.00     0.013 A 
ATOM      8  C9  NON d   1       2.588  -0.562  -0.000  0.00  0.00    -0.024 A 
ATOM      9  C10 NON d   1       1.184  -0.558  -0.000  0.00  0.00     0.012 A 
ATOM     10  C11 NON d   1       0.471   0.644  -0.000  0.00  0.00     0.001 A 
ATOM     11  C12 NON d   1       1.147   1.862  -0.000  0.00  0.00     0.001 A 
ATOM     12  C13 NON d   1       2.542   1.887  -0.000  0.00  0.00     0.014 A 
ATOM     13  C14 NON d   1       3.268   0.678  -0.000  0.00  0.00     0.002 A 
ATOM     14  H4  NON d   1       5.367   2.667   0.000  0.00  0.00     0.165 HD
ENDROOT
BRANCH   1  15
ATOM     15  C2  NON d   1       7.951  -1.083   0.000  0.00  0.00     0.152 C 
ATOM     16  N2  NON d   1       9.145  -0.585   0.001  0.00  0.00    -0.183 NA
BRANCH  16  17
ATOM     17  N1  NON d   1      10.182  -1.477   0.000  0.00  0.00    -0.243 N 
ATOM     18  C1  NON d   1      11.484  -0.989   0.001  0.00  0.00     0.271 C 
ATOM     19  O1  NON d   1      11.764   0.208   0.002  0.00  0.00    -0.266 OA
ATOM     20  H1  NON d   1       9.968  -2.463  -0.001  0.00  0.00     0.192 HD
BRANCH  18  21
ATOM     21  C15 NON d   1      12.601  -1.990   0.001  0.00  0.00     0.036 A 
ATOM     22  C16 NON d   1      13.914  -1.484   0.000  0.00  0.00     0.017 A 
ATOM     23  C17 NON d   1      15.015  -2.342   0.000  0.00  0.00     0.004 A 
ATOM     24  C18 NON d   1      14.818  -3.719  -0.000  0.00  0.00     0.036 A 
ATOM     25  C19 NON d   1      13.524  -4.226   0.000  0.00  0.00     0.066 A 
ATOM     26  C20 NON d   1      12.412  -3.380   0.001  0.00  0.00     0.053 A 
BRANCH  25  27
ATOM     27  O2  NON d   1      13.386  -5.583   0.000  0.00  0.00    -0.361 OA
ATOM     28  H14 NON d   1      12.443  -5.816   0.000  0.00  0.00     0.217 HD
ENDBRANCH  25  27
ENDBRANCH  18  21
ENDBRANCH  16  17
ENDBRANCH   1  15
TORSDOF 4
