REMARK  1 active torsions:
REMARK  status: ('A' for Active; 'I' for Inactive)
REMARK    1  A    between atoms: C5_7  and  O3_8 
ROOT
ATOM      1  O1  NON d   1       0.511  -3.044  -0.093  0.00  0.00    -0.271 OA
ATOM      2  C1  NON d   1       1.564  -2.411  -0.059  0.00  0.00     0.246 A 
ATOM      3  C2  NON d   1       1.616  -0.884  -0.003  0.00  0.00     0.278 A 
ATOM      4  O2  NON d   1       2.844  -0.182   0.079  0.00  0.00    -0.340 OA
ATOM      5  C3  NON d   1       3.973  -0.949   0.036  0.00  0.00     0.098 A 
ATOM      6  C4  NON d   1       5.185  -0.260   0.079  0.00  0.00     0.075 A 
ATOM      7  C5  NON d   1       6.382  -0.968   0.046  0.00  0.00     0.068 A 
ATOM      8  C6  NON d   1       6.390  -2.357  -0.029  0.00  0.00     0.039 A 
ATOM      9  C7  NON d   1       5.178  -3.049  -0.072  0.00  0.00     0.035 A 
ATOM     10  C8  NON d   1       3.973  -2.343  -0.040  0.00  0.00     0.068 A 
ATOM     11  N1  NON d   1       2.771  -3.046  -0.080  0.00  0.00    -0.323 N 
ATOM     12  H7  NON d   1       2.755  -4.056  -0.126  0.00  0.00     0.169 HD
ENDROOT
BRANCH   7  13
ATOM     13  O3  NON d   1       7.543  -0.253   0.090  0.00  0.00    -0.361 OA
ATOM     14  H4  NON d   1       8.294  -0.868   0.060  0.00  0.00     0.217 HD
ENDBRANCH   7  13
TORSDOF 1
