REMARK  4 active torsions:
REMARK  status: ('A' for Active; 'I' for Inactive)
REMARK       I    between atoms: N1_1  and  C1_2 
REMARK       I    between atoms: C1_2  and  N2_3 
REMARK    1  A    between atoms: N3_4  and  C2_5 
REMARK    2  A    between atoms: C4_9  and  C5_10 
REMARK    3  A    between atoms: C5_10  and  C6_11 
REMARK       I    between atoms: C6_11  and  N5_13 
REMARK    4  A    between atoms: N5_13  and  C7_14 
ROOT
ATOM      1  C2  NON d   1      -3.598  -2.410  -0.365  0.00  0.00     0.188 C 
ATOM      2  N4  NON d   1      -2.845  -3.232   0.405  0.00  0.00    -0.304 N 
ATOM      3  C3  NON d   1      -3.334  -4.495   0.621  0.00  0.00     0.238 C 
ATOM      4  O1  NON d   1      -2.623  -5.412   1.003  0.00  0.00    -0.272 OA
ATOM      5  C4  NON d   1      -4.826  -4.555   0.346  0.00  0.00     0.156 C 
ATOM      6  S1  NON d   1      -5.044  -3.225  -0.894  0.00  0.00    -0.076 SA
ATOM      7  H5  NON d   1      -1.888  -3.067   0.669  0.00  0.00     0.171 HD
ENDROOT
BRANCH   5   8
ATOM      8  C5  NON d   1      -5.296  -5.954  -0.039  0.00  0.00     0.128 C 
BRANCH   8   9
ATOM      9  C6  NON d   1      -6.791  -6.107   0.090  0.00  0.00     0.223 C 
ATOM     10  O2  NON d   1      -7.511  -5.123   0.277  0.00  0.00    -0.273 OA
ATOM     11  N5  NON d   1      -7.407  -7.323   0.017  0.00  0.00    -0.327 N 
ATOM     12  H9  NON d   1      -8.408  -7.197   0.126  0.00  0.00     0.169 HD
BRANCH  11  13
ATOM     13  C7  NON d   1      -6.968  -8.656  -0.077  0.00  0.00     0.036 A 
ATOM     14  C8  NON d   1      -5.646  -9.078  -0.225  0.00  0.00     0.029 A 
ATOM     15  C9  NON d   1      -5.322 -10.442  -0.230  0.00  0.00     0.004 A 
ATOM     16  C10 NON d   1      -6.322 -11.403  -0.115  0.00  0.00     0.024 A 
ATOM     17  C11 NON d   1      -7.645 -10.996  -0.005  0.00  0.00     0.036 A 
ATOM     18 Cl1  NON d   1      -8.893 -12.175   0.119  0.00  0.00    -0.084 Cl
ATOM     19  C12 NON d   1      -7.968  -9.637   0.015  0.00  0.00     0.053 A 
ENDBRANCH  11  13
ENDBRANCH   8   9
ENDBRANCH   5   8
BRANCH   1  20
ATOM     20  N3  NON d   1      -3.362  -1.196  -0.714  0.00  0.00    -0.041 NA
ATOM     21  C1  NON d   1      -2.329  -0.448  -0.321  0.00  0.00     0.694 C 
ATOM     22  N1  NON d   1      -2.591   0.745   0.145  0.00  0.00    -0.233 N 
ATOM     23  N2  NON d   1      -1.083  -0.829  -0.426  0.00  0.00    -0.233 N 
ATOM     24  H1  NON d   1      -1.891   1.412   0.432  0.00  0.00     0.174 HD
ATOM     25  H2  NON d   1      -3.566   1.023   0.158  0.00  0.00     0.174 HD
ATOM     26  H3  NON d   1      -0.870  -1.686  -0.918  0.00  0.00     0.174 HD
ATOM     27  H4  NON d   1      -0.315  -0.230  -0.155  0.00  0.00     0.174 HD
ENDBRANCH   1  20
TORSDOF 4
