REMARK  8 active torsions:
REMARK  status: ('A' for Active; 'I' for Inactive)
REMARK    1  A    between atoms: C1_2  and  C2_3 
REMARK       I    between atoms: C1_2  and  N1_12 
REMARK    2  A    between atoms: C2_3  and  C3_4 
REMARK    3  A    between atoms: C3_4  and  C4_5 
REMARK    4  A    between atoms: C4_5  and  C5_6 
REMARK    5  A    between atoms: N1_12  and  N2_13 
REMARK       I    between atoms: N2_13  and  C11_14 
REMARK    6  A    between atoms: C11_14  and  C12_16 
REMARK    7  A    between atoms: C16_20  and  N3_21 
REMARK       I    between atoms: N3_21  and  C17_22 
REMARK    8  A    between atoms: C17_22  and  C18_24 
ROOT
ATOM      1  N2  NON d   1       4.290  -8.717  -0.022  0.00  0.00    -0.263 N 
ATOM      2  C11 NON d   1       5.499  -9.360  -0.224  0.00  0.00     0.270 C 
ATOM      3  O2  NON d   1       5.582 -10.556  -0.493  0.00  0.00    -0.266 OA
ATOM      4  H13 NON d   1       4.199  -7.765   0.324  0.00  0.00     0.190 HD
ENDROOT
BRANCH   2   5
ATOM      5  C12 NON d   1       6.733  -8.502  -0.108  0.00  0.00     0.035 A 
ATOM      6  C13 NON d   1       6.629  -7.104  -0.077  0.00  0.00     0.017 A 
ATOM      7  C14 NON d   1       7.769  -6.316   0.007  0.00  0.00     0.003 A 
ATOM      8  C15 NON d   1       9.027  -6.910   0.036  0.00  0.00     0.029 A 
ATOM      9  C16 NON d   1       9.180  -8.299  -0.023  0.00  0.00     0.036 A 
ATOM     10  C22 NON d   1       8.018  -9.095  -0.086  0.00  0.00     0.046 A 
BRANCH   9  11
ATOM     11  N3  NON d   1      10.459  -8.920  -0.025  0.00  0.00    -0.321 N 
ATOM     12  C17 NON d   1      11.694  -8.273  -0.034  0.00  0.00     0.279 C 
ATOM     13  O3  NON d   1      11.848  -7.053  -0.054  0.00  0.00    -0.265 OA
ATOM     14  H17 NON d   1      10.495  -9.934  -0.045  0.00  0.00     0.169 HD
BRANCH  12  15
ATOM     15  C18 NON d   1      12.860  -9.138  -0.025  0.00  0.00     0.142 A 
ATOM     16  C19 NON d   1      14.201  -8.793  -0.028  0.00  0.00     0.045 A 
ATOM     17  C20 NON d   1      14.935  -9.999  -0.010  0.00  0.00     0.027 A 
ATOM     18  C21 NON d   1      14.002 -11.008  -0.001  0.00  0.00     0.143 A 
ATOM     19  O4  NON d   1      12.737 -10.501  -0.011  0.00  0.00    -0.317 OA
ENDBRANCH  12  15
ENDBRANCH   9  11
ENDBRANCH   2   5
BRANCH   1  20
ATOM     20  N1  NON d   1       3.062  -9.348  -0.264  0.00  0.00    -0.267 N 
ATOM     21  C1  NON d   1       1.932  -8.640   0.111  0.00  0.00     0.236 C 
ATOM     22  O1  NON d   1       2.031  -7.579   0.726  0.00  0.00    -0.272 OA
ATOM     23  H12 NON d   1       3.076 -10.301  -0.619  0.00  0.00     0.190 HD
BRANCH  21  24
ATOM     24  C2  NON d   1       0.615  -9.285  -0.276  0.00  0.00     0.105 C 
BRANCH  24  25
ATOM     25  C3  NON d   1      -0.638  -8.466   0.078  0.00  0.00     0.014 C 
BRANCH  25  26
ATOM     26  C4  NON d   1      -1.210  -7.595  -1.060  0.00  0.00     0.039 C 
BRANCH  26  27
ATOM     27  C5  NON d   1      -0.543  -6.287  -1.416  0.00  0.00    -0.058 A 
ATOM     28  C6  NON d   1      -0.771  -5.734  -2.688  0.00  0.00     0.007 A 
ATOM     29  C7  NON d   1      -0.195  -4.516  -3.061  0.00  0.00     0.001 A 
ATOM     30  C8  NON d   1       0.620  -3.828  -2.166  0.00  0.00     0.000 A 
ATOM     31  C9  NON d   1       0.820  -4.339  -0.888  0.00  0.00     0.001 A 
ATOM     32  C10 NON d   1       0.218  -5.543  -0.509  0.00  0.00     0.007 A 
ENDBRANCH  26  27
ENDBRANCH  25  26
ENDBRANCH  24  25
ENDBRANCH  21  24
ENDBRANCH   1  20
TORSDOF 8
