REMARK  5 active torsions:
REMARK  status: ('A' for Active; 'I' for Inactive)
REMARK    1  A    between atoms: O1_2  and  C2_3 
REMARK    2  A    between atoms: C5_6  and  N1_7 
REMARK       I    between atoms: N1_7  and  C6_8 
REMARK    3  A    between atoms: C6_8  and  C7_10 
REMARK    4  A    between atoms: C13_16  and  N2_17 
REMARK       I    between atoms: N2_17  and  C14_18 
REMARK    5  A    between atoms: C14_18  and  C15_20 
ROOT
ATOM      1  C7  NON d   1      -6.369  -6.286  -0.070  0.00  0.00     0.059 A 
ATOM      2  C8  NON d   1      -7.638  -6.867   0.126  0.00  0.00     0.019 A 
ATOM      3  C9  NON d   1      -7.782  -8.230   0.340  0.00  0.00     0.002 A 
ATOM      4  C10 NON d   1      -6.658  -9.040   0.300  0.00  0.00     0.009 A 
ATOM      5  C11 NON d   1      -5.376  -8.501   0.072  0.00  0.00    -0.034 A 
ATOM      6  C12 NON d   1      -4.281  -9.519  -0.143  0.00  0.00     0.050 C 
ATOM      7  C13 NON d   1      -5.206  -7.093  -0.034  0.00  0.00     0.056 A 
ENDROOT
BRANCH   1   8
ATOM      8  C6  NON d   1      -6.425  -4.818  -0.324  0.00  0.00     0.258 C 
ATOM      9  N1  NON d   1      -5.472  -4.009   0.268  0.00  0.00    -0.322 N 
ATOM     10  H6  NON d   1      -4.731  -4.455   0.794  0.00  0.00     0.169 HD
ATOM     11  O2  NON d   1      -7.323  -4.407  -1.055  0.00  0.00    -0.267 OA
BRANCH   9  12
ATOM     12  C5  NON d   1      -5.487  -2.587   0.221  0.00  0.00     0.052 A 
ATOM     13  C4  NON d   1      -4.319  -1.901   0.541  0.00  0.00     0.035 A 
ATOM     14  C3  NON d   1      -4.297  -0.506   0.463  0.00  0.00     0.060 A 
ATOM     15  C2  NON d   1      -5.460   0.177   0.128  0.00  0.00     0.163 A 
ATOM     16  N4  NON d   1      -6.621  -0.434  -0.152  0.00  0.00    -0.235 NA
ATOM     17  C20 NON d   1      -6.600  -1.802  -0.113  0.00  0.00     0.149 A 
BRANCH  15  18
ATOM     18  O1  NON d   1      -5.335   1.540   0.000  0.00  0.00    -0.339 OA
ATOM     19  C1  NON d   1      -6.668   2.310   0.000  0.00  0.00     0.211 C 
ENDBRANCH  15  18
ENDBRANCH   9  12
ENDBRANCH   1   8
BRANCH   7  20
ATOM     20  N2  NON d   1      -3.916  -6.508  -0.187  0.00  0.00    -0.322 N 
ATOM     21  C14 NON d   1      -2.796  -6.938   0.509  0.00  0.00     0.256 C 
ATOM     22  O3  NON d   1      -2.794  -7.732   1.444  0.00  0.00    -0.267 OA
ATOM     23  H13 NON d   1      -3.850  -5.687  -0.776  0.00  0.00     0.169 HD
BRANCH  21  24
ATOM     24  C15 NON d   1      -1.487  -6.375   0.106  0.00  0.00     0.035 A 
ATOM     25  C16 NON d   1      -1.314  -5.023  -0.168  0.00  0.00     0.036 A 
ATOM     26  C17 NON d   1      -0.033  -4.589  -0.461  0.00  0.00     0.117 A 
ATOM     27  N3  NON d   1       1.046  -5.401  -0.509  0.00  0.00    -0.273 NA
ATOM     28  C18 NON d   1       0.849  -6.708  -0.235  0.00  0.00     0.117 A 
ATOM     29  C19 NON d   1      -0.387  -7.238   0.081  0.00  0.00     0.036 A 
ENDBRANCH  21  24
ENDBRANCH   7  20
TORSDOF 5
