@<TRIPOS>MOLECULE
*****
 35 36 0 0 0
SMALL
USER_CHARGES

@<TRIPOS>ATOM
      1 C1         -5.5339   15.0550    0.0000 C.3     1  NONAME1    -0.0306
      2 C2         -4.2002   15.8250    0.0000 C.3     1  NONAME1     0.0900
      3 O1         -3.0439   14.9790   -0.0456 O.3     1  NONAME1    -0.4614
      4 C3         -1.9022   15.7277   -0.0831 C.2     1  NONAME1     0.3392
      5 O2         -1.8675   16.9518   -0.1032 O.2     1  NONAME1    -0.2450
      6 C4         -0.6563   14.9175   -0.0763 C.ar    1  NONAME1     0.0590
      7 C5          0.5566   15.6170   -0.0621 C.ar    1  NONAME1    -0.0475
      8 C6          1.7710   14.9321   -0.0375 C.ar    1  NONAME1    -0.0563
      9 C7          1.8140   13.5278   -0.0309 C.ar    1  NONAME1    -0.0303
     10 C8          3.1883   12.9012    0.0286 C.3     1  NONAME1     0.0371
     11 N1          3.2659   11.4637   -0.0605 N.am    1  NONAME1    -0.3072
     12 C9          4.5067   10.8714   -0.1665 C.2     1  NONAME1     0.2463
     13 O3          5.5317   11.5355   -0.3018 O.2     1  NONAME1    -0.2701
     14 C10         4.5755    9.4111   -0.0794 C.ar    1  NONAME1     0.0636
     15 C11         5.8388    8.7007   -0.0745 C.ar    1  NONAME1    -0.0226
     16 C12         5.6757    7.3438    0.0049 C.ar    1  NONAME1     0.0801
     17 Cl1         6.9169    6.1598    0.0363 Cl      1  NONAME1    -0.0758
     18 S1          4.0571    6.8739    0.0750 S.2     1  NONAME1    -0.0645
     19 C13         3.5437    8.4957   -0.0014 C.ar    1  NONAME1     0.0915
     20 Cl2         1.8408    8.7687    0.0269 Cl      1  NONAME1    -0.0750
     21 C14         0.5957   12.8315   -0.0551 C.ar    1  NONAME1    -0.0563
     22 C15        -0.6323   13.5202   -0.0758 C.ar    1  NONAME1    -0.0475
     23 H1         -6.1575   15.9365    0.2529 H       1  NONAME1     0.0262
     24 H2         -6.8676   14.2850    0.0000 H       1  NONAME1     0.0262
     25 H3         -5.3132   14.4723    0.9174 H       1  NONAME1     0.0262
     26 H4         -4.1992   16.4733   -0.8858 H       1  NONAME1     0.0695
     27 H5         -4.1468   16.4484    0.9035 H       1  NONAME1     0.0695
     28 H6          0.5651   16.7060   -0.0651 H       1  NONAME1     0.0626
     29 H7          2.6948   15.5099   -0.0211 H       1  NONAME1     0.0621
     30 H8          3.7970   13.3169   -0.7848 H       1  NONAME1     0.0512
     31 H9          3.6600   13.1851    0.9779 H       1  NONAME1     0.0512
     32 H10         2.4913   10.9023    0.2602 H       1  NONAME1     0.1493
     33 H11         6.8061    9.1892   -0.1283 H       1  NONAME1     0.0645
     34 H12         0.5667   11.7461   -0.0599 H       1  NONAME1     0.0621
     35 H13        -1.5597   12.9524   -0.0896 H       1  NONAME1     0.0626
@<TRIPOS>BOND
     1     1     2    1
     2     2     3    1
     3     3     4    1
     4     4     5    2
     5     4     6    1
     6     6     7   ar
     7     7     8   ar
     8     8     9   ar
     9     9    10    1
    10    10    11    1
    11    11    12   am
    12    12    13    2
    13    12    14    1
    14    14    15   ar
    15    15    16   ar
    16    16    17    1
    17    16    18   ar
    18    18    19   ar
    19    14    19   ar
    20    19    20    1
    21     9    21   ar
    22    21    22   ar
    23     6    22   ar
    24     1    23    1
    25     1    24    1
    26     1    25    1
    27     2    26    1
    28     2    27    1
    29     7    28    1
    30     8    29    1
    31    10    30    1
    32    10    31    1
    33    11    32    1
    34    15    33    1
    35    21    34    1
    36    22    35    1
