REMARK  5 active torsions:
REMARK  status: ('A' for Active; 'I' for Inactive)
REMARK    1  A    between atoms: C3_4  and  N2_5 
REMARK    2  A    between atoms: C6_9  and  N4_10 
REMARK    3  A    between atoms: N4_10  and  C7_11 
REMARK    4  A    between atoms: C7_11  and  C8_12 
REMARK    5  A    between atoms: C8_12  and  C9_13 
ROOT
ATOM      1  C7  NON d   1      -1.859  -0.405   0.047  0.00  0.00     0.101 C 
ENDROOT
BRANCH   1   2
ATOM      2  N4  NON d   1      -3.216  -0.078   0.500  0.00  0.00    -0.276 NA
ATOM      3  H10 NON d   1      -3.567   0.843   0.232  0.00  0.00     0.129 HD
BRANCH   2   4
ATOM      4  C6  NON d   1      -4.317  -0.942   0.269  0.00  0.00     0.130 A 
ATOM      5  N3  NON d   1      -5.515  -0.221   0.153  0.00  0.00    -0.050 NA
ATOM      6  C3  NON d   1      -6.699  -0.854   0.022  0.00  0.00     0.725 A 
ATOM      7  N1  NON d   1      -6.607  -2.289  -0.074  0.00  0.00    -0.067 NA
ATOM      8  C2  NON d   1      -5.335  -3.080   0.000  0.00  0.00     0.059 A 
ATOM      9  C1  NON d   1      -5.335  -4.620   0.000  0.00  0.00     0.072 C 
ATOM     10  C17 NON d   1      -4.183  -2.366   0.247  0.00  0.00     0.004 A 
ATOM     11  C18 NON d   1      -2.906  -3.117   0.492  0.00  0.00     0.054 C 
BRANCH   6  12
ATOM     12  N2  NON d   1      -8.002   0.000   0.000  0.00  0.00    -0.223 N 
ATOM     13  C4  NON d   1      -9.192  -0.793   0.177  0.00  0.00     0.168 C 
ATOM     14  C5  NON d   1      -8.002   1.540   0.000  0.00  0.00     0.168 C 
ENDBRANCH   6  12
ENDBRANCH   2   4
ENDBRANCH   1   2
BRANCH   1  15
ATOM     15  C8  NON d   1      -0.959   0.811  -0.151  0.00  0.00     0.093 C 
BRANCH  15  16
ATOM     16  C9  NON d   1      -0.340   1.420   1.095  0.00  0.00     0.108 A 
ATOM     17  N5  NON d   1       0.862   1.899   1.032  0.00  0.00    -0.234 NA
ATOM     18  C10 NON d   1       1.374   2.561   2.163  0.00  0.00     0.074 A 
ATOM     19  C11 NON d   1       2.650   3.132   2.100  0.00  0.00     0.032 A 
ATOM     20  C15 NON d   1       0.641   2.707   3.341  0.00  0.00     0.061 A 
ATOM     21  C12 NON d   1       3.171   3.846   3.186  0.00  0.00     0.002 A 
ATOM     22  C13 NON d   1       2.420   3.991   4.353  0.00  0.00     0.001 A 
ATOM     23  C14 NON d   1       1.151   3.417   4.437  0.00  0.00     0.019 A 
ATOM     24  C16 NON d   1      -0.703   2.106   3.376  0.00  0.00     0.259 A 
ATOM     25  O1  NON d   1      -1.405   2.150   4.382  0.00  0.00    -0.267 OA
ATOM     26  N6  NON d   1      -1.119   1.507   2.213  0.00  0.00    -0.311 N 
ATOM     27  H19 NON d   1      -2.047   1.095   2.229  0.00  0.00     0.170 HD
ENDBRANCH  15  16
ENDBRANCH   1  15
TORSDOF 5
