REMARK  6 active torsions:
REMARK  status: ('A' for Active; 'I' for Inactive)
REMARK    1  A    between atoms: C2_3  and  C14_19 
REMARK    2  A    between atoms: C3_4  and  C4_5 
REMARK    3  A    between atoms: C7_8  and  C8_9 
REMARK    4  A    between atoms: C11_12  and  N2_13 
REMARK       I    between atoms: C14_19  and  N3_21 
REMARK    5  A    between atoms: N3_21  and  C15_22 
REMARK    6  A    between atoms: C17_24  and  C18_25 
ROOT
ATOM      1  N1  NON d   1       4.579  -4.741  -1.004  0.00  0.00    -0.191 NA
ATOM      2  C1  NON d   1       3.541  -4.503  -0.538  0.00  0.00     0.105 C 
ATOM      3  C2  NON d   1       2.260  -4.236   0.021  0.00  0.00     0.115 C 
ATOM      4  C3  NON d   1       1.302  -5.158   0.260  0.00  0.00     0.065 C 
ENDROOT
BRANCH   3   5
ATOM      5  C14 NON d   1       2.108  -2.838   0.523  0.00  0.00     0.266 C 
ATOM      6  O4  NON d   1       2.733  -2.500   1.526  0.00  0.00    -0.267 OA
ATOM      7  N3  NON d   1       1.254  -2.008  -0.181  0.00  0.00    -0.321 N 
ATOM      8  H8  NON d   1       0.465  -2.422  -0.660  0.00  0.00     0.169 HD
BRANCH   7   9
ATOM      9  C15 NON d   1       1.294  -0.583  -0.072  0.00  0.00     0.057 A 
ATOM     10  C16 NON d   1       0.071   0.116  -0.081  0.00  0.00     0.047 A 
ATOM     11  C17 NON d   1       0.000   1.540   0.000  0.00  0.00     0.050 A 
ATOM     12  C19 NON d   1       1.207   2.244   0.117  0.00  0.00     0.018 A 
ATOM     13  C20 NON d   1       2.430   1.569   0.082  0.00  0.00     0.027 A 
ATOM     14  C21 NON d   1       2.482   0.172  -0.030  0.00  0.00     0.060 A 
ATOM     15 Cl1  NON d   1       4.048  -0.505  -0.331  0.00  0.00    -0.082 Cl
BRANCH  11  16
ATOM     16  C18 NON d   1      -1.334   2.310   0.000  0.00  0.00     0.417 C 
ATOM     17  F1  NON d   1      -2.667   3.080   0.000  0.00  0.00    -0.166 F 
ATOM     18  F2  NON d   1      -0.933   3.143  -1.095  0.00  0.00    -0.166 F 
ATOM     19  F3  NON d   1      -2.052   1.262  -0.666  0.00  0.00    -0.166 F 
ENDBRANCH  11  16
ENDBRANCH   7   9
ENDBRANCH   3   5
BRANCH   4  20
ATOM     20  C4  NON d   1       1.447  -6.580   0.079  0.00  0.00     0.077 A 
ATOM     21  C5  NON d   1       2.587  -7.379   0.011  0.00  0.00     0.040 A 
ATOM     22  C6  NON d   1       2.193  -8.729  -0.076  0.00  0.00     0.041 A 
ATOM     23  C7  NON d   1       0.818  -8.745  -0.042  0.00  0.00     0.086 A 
ATOM     24  O3  NON d   1       0.359  -7.452   0.044  0.00  0.00    -0.310 OA
BRANCH  23  25
ATOM     25  C8  NON d   1      -0.152  -9.848  -0.048  0.00  0.00    -0.002 A 
ATOM     26  C9  NON d   1       0.313 -11.179  -0.052  0.00  0.00     0.017 A 
ATOM     27  C10 NON d   1      -0.564 -12.270  -0.044  0.00  0.00     0.037 A 
ATOM     28  C11 NON d   1      -1.941 -12.039  -0.031  0.00  0.00     0.102 A 
ATOM     29  C12 NON d   1      -2.433 -10.729  -0.028  0.00  0.00     0.037 A 
ATOM     30  C13 NON d   1      -1.540  -9.642  -0.037  0.00  0.00     0.017 A 
BRANCH  28  31
ATOM     31  N2  NON d   1      -2.866 -13.182  -0.013  0.00  0.00    -0.116 N 
ATOM     32  O1  NON d   1      -4.081 -12.938  -0.003  0.00  0.00    -0.532 OA
ATOM     33  O2  NON d   1      -2.378 -14.320  -0.007  0.00  0.00    -0.532 OA
ENDBRANCH  28  31
ENDBRANCH  23  25
ENDBRANCH   4  20
TORSDOF 6
