REMARK  8 active torsions:
REMARK  status: ('A' for Active; 'I' for Inactive)
REMARK    1  A    between atoms: S1_2  and  C2_3 
REMARK    2  A    between atoms: C5_6  and  C6_7 
REMARK    3  A    between atoms: C7_8  and  C8_9 
REMARK    4  A    between atoms: C8_9  and  O2_11 
REMARK    5  A    between atoms: O2_11  and  C9_12 
REMARK    6  A    between atoms: C9_12  and  C10_13 
REMARK       I    between atoms: C10_13  and  N1_15 
REMARK    7  A    between atoms: C11_16  and  N1_15 
REMARK    8  A    between atoms: C11_16  and  C14_20 
ROOT
ATOM      1  C11 NON d   1       4.001 -10.010   0.000  0.00  0.00     0.093 C 
ATOM      2  C12 NON d   1       4.771  -8.676   0.000  0.00  0.00     0.048 C 
ATOM      3  C13 NON d   1       3.231 -11.344   0.000  0.00  0.00     0.006 C 
ATOM      4  N2  NON d   1       2.461 -12.677   0.000  0.00  0.00    -0.099 N 
ENDROOT
BRANCH   1   5
ATOM      5  N1  NON d   1       2.995  -9.443   1.249  0.00  0.00    -0.240 NA
ATOM      6  C10 NON d   1       2.820  -8.068   1.660  0.00  0.00     0.223 C 
ATOM      7  O3  NON d   1       3.621  -7.560   2.449  0.00  0.00    -0.277 OA
ATOM      8  H10 NON d   1       2.067  -9.839   1.118  0.00  0.00     0.132 HD
BRANCH   6   9
ATOM      9  C9  NON d   1       1.624  -7.186   0.983  0.00  0.00     0.275 C 
BRANCH   9  10
ATOM     10  O2  NON d   1       1.688  -5.697   0.927  0.00  0.00    -0.309 OA
BRANCH  10  11
ATOM     11  C8  NON d   1       0.554  -5.067   0.452  0.00  0.00     0.283 C 
ATOM     12  O1  NON d   1      -0.432  -5.708   0.087  0.00  0.00    -0.260 OA
BRANCH  11  13
ATOM     13  C7  NON d   1       0.469  -3.530   0.379  0.00  0.00     0.083 C 
ATOM     14  C6  NON d   1       1.366  -2.514   0.424  0.00  0.00     0.017 C 
BRANCH  14  15
ATOM     15  C5  NON d   1       1.183  -0.988   0.274  0.00  0.00    -0.036 A 
ATOM     16  C4  NON d   1       2.335  -0.189   0.166  0.00  0.00     0.012 A 
ATOM     17  C3  NON d   1       2.300   1.245   0.077  0.00  0.00     0.019 A 
ATOM     18  C2  NON d   1       1.110   2.002   0.090  0.00  0.00    -0.000 A 
ATOM     19  C18 NON d   1      -0.056   1.226   0.175  0.00  0.00     0.019 A 
ATOM     20  C17 NON d   1      -0.016  -0.237   0.264  0.00  0.00     0.012 A 
BRANCH  18  21
ATOM     21  S1  NON d   1       1.334   3.850   0.000  0.00  0.00    -0.134 SA
ATOM     22  C1  NON d   1       0.000   4.620   0.000  0.00  0.00     0.095 C 
ENDBRANCH  18  21
ENDBRANCH  14  15
ENDBRANCH  11  13
ENDBRANCH  10  11
ENDBRANCH   9  10
ENDBRANCH   6   9
ENDBRANCH   1   5
BRANCH   1  23
ATOM     23  C14 NON d   1       5.335 -10.780   0.000  0.00  0.00     0.013 C 
ATOM     24  C15 NON d   1       6.418 -10.555   1.164  0.00  0.00     0.012 C 
ATOM     25  C16 NON d   1       5.335 -12.320  -0.015  0.00  0.00     0.012 C 
ENDBRANCH   1  23
TORSDOF 8
