REMARK  9 active torsions:
REMARK  status: ('A' for Active; 'I' for Inactive)
REMARK    1  A    between atoms: C2_2  and  C3_3 
REMARK    2  A    between atoms: C3_3  and  C4_4 
REMARK       I    between atoms: C4_4  and  N1_6 
REMARK    3  A    between atoms: N1_6  and  C5_7 
REMARK    4  A    between atoms: C9_11  and  N2_12 
REMARK    5  A    between atoms: N2_12  and  C10_13 
REMARK    6  A    between atoms: C10_13  and  C11_14 
REMARK       I    between atoms: C11_14  and  N3_16 
REMARK    7  A    between atoms: N3_16  and  C12_17 
REMARK    8  A    between atoms: C15_20  and  N4_21 
REMARK       I    between atoms: N4_21  and  C16_22 
REMARK    9  A    between atoms: C16_22  and  C17_24 
ROOT
ATOM      1  C11 NON d   1       5.389 -12.701  -0.021  0.00  0.00     0.239 C 
ATOM      2  O2  NON d   1       5.146 -13.903  -0.120  0.00  0.00    -0.271 OA
ATOM      3  N3  NON d   1       6.681 -12.142   0.032  0.00  0.00    -0.326 N 
ATOM      4  H15 NON d   1       6.729 -11.130   0.077  0.00  0.00     0.169 HD
ENDROOT
BRANCH   3   5
ATOM      5  C12 NON d   1       7.962 -12.803   0.018  0.00  0.00     0.034 A 
ATOM      6  C13 NON d   1       9.130 -12.022   0.040  0.00  0.00     0.032 A 
ATOM      7  C14 NON d   1      10.443 -12.594   0.034  0.00  0.00     0.032 A 
ATOM      8  C15 NON d   1      10.655 -13.979   0.008  0.00  0.00     0.035 A 
ATOM      9  C24 NON d   1       9.478 -14.758  -0.016  0.00  0.00     0.032 A 
ATOM     10  C25 NON d   1       8.165 -14.181  -0.012  0.00  0.00     0.032 A 
BRANCH   8  11
ATOM     11  N4  NON d   1      11.952 -14.645   0.007  0.00  0.00    -0.323 N 
ATOM     12  C16 NON d   1      13.219 -14.036   0.040  0.00  0.00     0.256 C 
ATOM     13  O3  NON d   1      13.355 -12.812   0.074  0.00  0.00    -0.267 OA
ATOM     14  H18 NON d   1      11.918 -15.653  -0.018  0.00  0.00     0.169 HD
BRANCH  12  15
ATOM     15  C17 NON d   1      14.529 -14.873   0.033  0.00  0.00     0.032 A 
ATOM     16  C18 NON d   1      15.730 -14.140   0.041  0.00  0.00     0.017 A 
ATOM     17  C19 NON d   1      17.000 -14.758   0.045  0.00  0.00     0.002 A 
ATOM     18  C20 NON d   1      17.142 -16.150   0.032  0.00  0.00     0.007 A 
ATOM     19  C21 NON d   1      16.004 -16.940   0.000  0.00  0.00    -0.061 A 
ATOM     20  C22 NON d   1      16.004 -18.480   0.000  0.00  0.00     0.048 C 
ATOM     21  C23 NON d   1      14.692 -16.277   0.022  0.00  0.00     0.023 A 
ENDBRANCH  12  15
ENDBRANCH   8  11
ENDBRANCH   3   5
BRANCH   1  22
ATOM     22  C10 NON d   1       4.221 -11.633   0.002  0.00  0.00     0.223 C 
BRANCH  22  23
ATOM     23  N2  NON d   1       2.855 -12.223   0.136  0.00  0.00    -0.381 N 
ATOM     24  H12 NON d   1       2.799 -13.165  -0.245  0.00  0.00     0.160 HD
BRANCH  23  25
ATOM     25  C9  NON d   1       1.680 -11.453   0.006  0.00  0.00     0.030 A 
ATOM     26  C8  NON d   1       1.694 -10.056   0.038  0.00  0.00     0.029 A 
ATOM     27  C7  NON d   1       0.512  -9.307  -0.014  0.00  0.00     0.004 A 
ATOM     28  C6  NON d   1      -0.732  -9.938  -0.061  0.00  0.00     0.029 A 
ATOM     29  C5  NON d   1      -0.821 -11.327  -0.043  0.00  0.00     0.036 A 
ATOM     30  C26 NON d   1       0.393 -12.072  -0.011  0.00  0.00     0.058 A 
BRANCH  29  31
ATOM     31  N1  NON d   1      -2.082 -12.003  -0.068  0.00  0.00    -0.327 N 
ATOM     32  C4  NON d   1      -3.347 -11.416   0.045  0.00  0.00     0.222 C 
ATOM     33  O1  NON d   1      -3.571 -10.226   0.247  0.00  0.00    -0.273 OA
ATOM     34  H8  NON d   1      -2.046 -13.014  -0.112  0.00  0.00     0.169 HD
BRANCH  32  35
ATOM     35  C3  NON d   1      -4.505 -12.409  -0.108  0.00  0.00     0.103 C 
BRANCH  35  36
ATOM     36  C2  NON d   1      -5.886 -11.796   0.188  0.00  0.00     0.005 C 
ATOM     37  C1  NON d   1      -6.438 -10.930  -0.941  0.00  0.00     0.005 C 
ENDBRANCH  35  36
ENDBRANCH  32  35
ENDBRANCH  29  31
ENDBRANCH  23  25
ENDBRANCH  22  23
ENDBRANCH   1  22
TORSDOF 9
