@<TRIPOS>MOLECULE
*****
 47 49 0 0 0
SMALL
USER_CHARGES

@<TRIPOS>ATOM
      1 C1         -5.3347   -4.6200    0.0000 C.3     1  NONAME1    -0.0219
      2 C2         -5.3347   -3.0800    0.0000 C.ar    1  NONAME1     0.0480
      3 N1         -6.5952   -2.2824    0.0696 N.ar    1  NONAME1    -0.2192
      4 C3         -6.6604   -0.8532    0.0173 C.ar    1  NONAME1     0.2192
      5 N2         -8.0021    0.0000    0.0000 N.pl3   1  NONAME1    -0.3057
      6 C4         -9.1760   -0.8044    0.2185 C.3     1  NONAME1     0.0030
      7 C5         -8.0021    1.5400    0.0000 C.3     1  NONAME1     0.0030
      8 N3         -5.4414   -0.2406   -0.0422 N.ar    1  NONAME1    -0.1993
      9 C6         -4.2309   -0.9867   -0.1253 C.ar    1  NONAME1     0.1270
     10 N4         -3.0492   -0.1910   -0.2096 N.pl3   1  NONAME1    -0.3283
     11 C7         -1.7096   -0.7227    0.0715 C.3     1  NONAME1     0.0172
     12 C8         -0.4878    0.1962    0.0290 C.3     1  NONAME1     0.0210
     13 C9          0.8744   -0.5635    0.0610 C.ar    1  NONAME1     0.1118
     14 N5          1.9898    0.1037    0.0219 N.ar    1  NONAME1    -0.2337
     15 C10         3.2143   -0.6095    0.0243 C.ar    1  NONAME1     0.0781
     16 C11         4.4229    0.0915   -0.0088 C.ar    1  NONAME1    -0.0355
     17 C12         5.6519   -0.5866   -0.0211 C.ar    1  NONAME1    -0.0597
     18 C13         5.6899   -1.9809   -0.0041 C.ar    1  NONAME1    -0.0609
     19 C14         4.4966   -2.6980    0.0317 C.ar    1  NONAME1    -0.0474
     20 C15         3.2761   -2.0043    0.0500 C.ar    1  NONAME1     0.0647
     21 C16         2.0019   -2.7237    0.0975 C.ar    1  NONAME1     0.2592
     22 O1          1.9309   -3.9480    0.1159 O.2     1  NONAME1    -0.2672
     23 N6          0.8722   -1.9389    0.1177 N.ar    1  NONAME1    -0.3103
     24 C17        -4.1507   -2.4135   -0.1733 C.ar    1  NONAME1     0.0104
     25 C18        -2.9278   -3.2582   -0.4167 C.3     1  NONAME1    -0.0348
     26 H1         -6.4339   -4.7077   -0.1129 H       1  NONAME1     0.0293
     27 H2         -5.3347   -6.1600    0.0000 H       1  NONAME1     0.0293
     28 H3         -5.0949   -4.6950    1.0814 H       1  NONAME1     0.0293
     29 H4         -9.9934   -0.1950    0.6178 H       1  NONAME1     0.0428
     30 H5         -9.5138   -1.2357   -0.7296 H       1  NONAME1     0.0428
     31 H6         -9.0026   -1.6160    0.9323 H       1  NONAME1     0.0428
     32 H7         -7.2118    1.6366   -0.7674 H       1  NONAME1     0.0428
     33 H8         -8.0021    3.0800    0.0000 H       1  NONAME1     0.0428
     34 H9         -8.9725    1.6358   -0.5226 H       1  NONAME1     0.0428
     35 H10        -3.2634    0.7692    0.0426 H       1  NONAME1     0.1475
     36 H11        -1.7124   -1.2291    1.0433 H       1  NONAME1     0.0466
     37 H12        -1.4922   -1.4240   -0.7299 H       1  NONAME1     0.0466
     38 H13        -0.5033    0.8932    0.8734 H       1  NONAME1     0.0358
     39 H14        -0.4984    0.7945   -0.8895 H       1  NONAME1     0.0358
     40 H15         4.4127    1.1764   -0.0270 H       1  NONAME1     0.0639
     41 H16         6.5835   -0.0236   -0.0461 H       1  NONAME1     0.0618
     42 H17         6.6434   -2.5026   -0.0151 H       1  NONAME1     0.0618
     43 H18         4.5190   -3.7860    0.0458 H       1  NONAME1     0.0626
     44 H19         0.0287   -2.4877    0.1523 H       1  NONAME1     0.1700
     45 H20        -3.1336   -4.3259   -0.5387 H       1  NONAME1     0.0279
     46 H21        -2.2383   -3.2116    0.4296 H       1  NONAME1     0.0279
     47 H22        -2.4549   -2.9863   -1.3638 H       1  NONAME1     0.0279
@<TRIPOS>BOND
     1     1     2    1
     2     2     3   ar
     3     3     4   ar
     4     4     5    1
     5     5     6    1
     6     5     7    1
     7     4     8   ar
     8     8     9   ar
     9     9    10    1
    10    10    11    1
    11    11    12    1
    12    12    13    1
    13    13    14   ar
    14    14    15   ar
    15    15    16   ar
    16    16    17   ar
    17    17    18   ar
    18    18    19   ar
    19    19    20   ar
    20    15    20   ar
    21    20    21   ar
    22    21    22    2
    23    21    23   ar
    24    13    23   ar
    25     9    24   ar
    26     2    24   ar
    27    24    25    1
    28     1    26    1
    29     1    27    1
    30     1    28    1
    31     6    29    1
    32     6    30    1
    33     6    31    1
    34     7    32    1
    35     7    33    1
    36     7    34    1
    37    10    35    1
    38    11    36    1
    39    11    37    1
    40    12    38    1
    41    12    39    1
    42    16    40    1
    43    17    41    1
    44    18    42    1
    45    19    43    1
    46    23    44    1
    47    25    45    1
    48    25    46    1
    49    25    47    1
