REMARK  10 active torsions:
REMARK  status: ('A' for Active; 'I' for Inactive)
REMARK    1  A    between atoms: C2_2  and  O1_3 
REMARK    2  A    between atoms: O1_3  and  C3_4 
REMARK    3  A    between atoms: C3_4  and  C4_6 
REMARK    4  A    between atoms: C5_8  and  N1_9 
REMARK       I    between atoms: N1_9  and  C6_10 
REMARK    5  A    between atoms: C6_10  and  C7_12 
REMARK    6  A    between atoms: C7_12  and  O4_13 
REMARK    7  A    between atoms: O4_13  and  C8_14 
REMARK    8  A    between atoms: C16_22  and  C17_23 
REMARK    9  A    between atoms: C17_23  and  O6_25 
REMARK   10  A    between atoms: O6_25  and  C18_26 
ROOT
ATOM      1  C4  NON d   1      -1.414  -2.528  -0.133  0.00  0.00     0.089 A 
ATOM      2  S1  NON d   1       0.290  -2.422  -0.294  0.00  0.00    -0.065 SA
ATOM      3  C5  NON d   1       0.513  -4.074  -0.083  0.00  0.00     0.094 A 
ATOM      4  C16 NON d   1      -0.676  -4.766   0.118  0.00  0.00     0.080 A 
ATOM      5  C20 NON d   1      -1.822  -3.851   0.065  0.00  0.00    -0.020 A 
ATOM      6  C21 NON d   1      -3.257  -4.273   0.212  0.00  0.00     0.051 C 
ENDROOT
BRANCH   3   7
ATOM      7  N1  NON d   1       1.780  -4.632  -0.097  0.00  0.00    -0.319 N 
ATOM      8  C6  NON d   1       3.019  -4.011  -0.176  0.00  0.00     0.246 C 
ATOM      9  O3  NON d   1       3.243  -2.810  -0.271  0.00  0.00    -0.271 OA
ATOM     10  H6  NON d   1       1.786  -5.644  -0.026  0.00  0.00     0.169 HD
BRANCH   8  11
ATOM     11  C7  NON d   1       4.128  -5.074  -0.097  0.00  0.00     0.278 C 
BRANCH  11  12
ATOM     12  O4  NON d   1       5.421  -4.553  -0.257  0.00  0.00    -0.341 OA
BRANCH  12  13
ATOM     13  C8  NON d   1       6.530  -5.339  -0.092  0.00  0.00     0.081 A 
ATOM     14  C9  NON d   1       7.715  -4.565  -0.020  0.00  0.00    -0.028 A 
ATOM     15  C10 NON d   1       7.663  -3.057  -0.071  0.00  0.00     0.051 C 
ATOM     16  C11 NON d   1       8.968  -5.188   0.052  0.00  0.00     0.009 A 
ATOM     17  C12 NON d   1       9.059  -6.571   0.084  0.00  0.00     0.001 A 
ATOM     18  C13 NON d   1       7.898  -7.337   0.051  0.00  0.00     0.009 A 
ATOM     19  C14 NON d   1       6.618  -6.747  -0.033  0.00  0.00    -0.028 A 
ATOM     20  C15 NON d   1       5.466  -7.712  -0.089  0.00  0.00     0.051 C 
ENDBRANCH  12  13
ENDBRANCH  11  12
ENDBRANCH   8  11
ENDBRANCH   3   7
BRANCH   4  21
ATOM     21  C17 NON d   1      -0.705  -6.214   0.412  0.00  0.00     0.296 C 
ATOM     22  O5  NON d   1      -1.626  -6.782   0.987  0.00  0.00    -0.259 OA
BRANCH  21  23
ATOM     23  O6  NON d   1       0.460  -6.846   0.053  0.00  0.00    -0.318 OA
BRANCH  23  24
ATOM     24  C18 NON d   1       0.734  -8.123   0.647  0.00  0.00     0.174 C 
ATOM     25  C19 NON d   1       0.164  -9.263  -0.168  0.00  0.00     0.034 C 
ENDBRANCH  23  24
ENDBRANCH  21  23
ENDBRANCH   4  21
BRANCH   1  26
ATOM     26  C3  NON d   1      -2.147  -1.265  -0.219  0.00  0.00     0.300 C 
ATOM     27  O2  NON d   1      -1.645  -0.154  -0.362  0.00  0.00    -0.259 OA
BRANCH  26  28
ATOM     28  O1  NON d   1      -3.497  -1.459  -0.113  0.00  0.00    -0.317 OA
BRANCH  28  29
ATOM     29  C2  NON d   1      -4.252  -0.240  -0.176  0.00  0.00     0.174 C 
ATOM     30  C1  NON d   1      -5.729  -0.569  -0.098  0.00  0.00     0.034 C 
ENDBRANCH  28  29
ENDBRANCH  26  28
ENDBRANCH   1  26
TORSDOF 10
