@<TRIPOS>MOLECULE
*****
 47 49 0 0 0
SMALL
USER_CHARGES

@<TRIPOS>ATOM
      1 C1         -5.9858   -1.1277    2.2914 C.3     1  NONAME1    -0.0613
      2 C2         -5.6603   -2.1039    1.1457 C.3     1  NONAME1    -0.0305
      3 C3         -4.3199   -2.8085    1.1411 C.ar    1  NONAME1    -0.0474
      4 C4         -4.0224   -3.6458    0.0504 C.ar    1  NONAME1    -0.0551
      5 C5         -2.7934   -4.3147   -0.0508 C.ar    1  NONAME1    -0.0197
      6 C6         -1.8327   -4.1691    0.9466 C.ar    1  NONAME1     0.1205
      7 O1         -0.5956   -4.7604    0.9697 O.3     1  NONAME1    -0.4918
      8 C7         -0.2828   -5.6711   -0.0831 C.3     1  NONAME1     0.0927
      9 C8          0.9842   -6.4679    0.2439 C.3     1  NONAME1     0.0157
     10 C9          2.2969   -5.7741   -0.1287 C.3     1  NONAME1     0.0927
     11 O2          2.5629   -4.6859    0.7488 O.3     1  NONAME1    -0.4918
     12 C10         3.8695   -4.2778    0.8495 C.ar    1  NONAME1     0.1211
     13 C11         4.8907   -4.6013   -0.0467 C.ar    1  NONAME1    -0.0199
     14 C12         6.1852   -4.1279    0.1705 C.ar    1  NONAME1    -0.0577
     15 C13         6.4581   -3.3203    1.2763 C.ar    1  NONAME1    -0.0543
     16 C14         5.4449   -2.9670    2.1822 C.ar    1  NONAME1    -0.0204
     17 C15         5.7854   -1.9992    3.2426 C.2     1  NONAME1    -0.0356
     18 C16         5.3005   -1.7981    4.4789 C.2     1  NONAME1     0.0787
     19 S1          5.8682   -0.4889    5.4451 S.3     1  NONAME1    -0.0595
     20 C17         4.6678   -0.8166    6.6687 C.2     1  NONAME1     0.1389
     21 S2          4.4731    0.1609    8.0149 S.2     1  NONAME1    -0.0257
     22 N1          3.9474   -1.9036    6.4091 N.am    1  NONAME1    -0.1612
     23 C18         4.2755   -2.5341    5.2746 C.2     1  NONAME1     0.2754
     24 O3          3.8219   -3.6154    4.9185 O.2     1  NONAME1    -0.2674
     25 C19         4.1499   -3.4433    1.9414 C.ar    1  NONAME1    -0.0128
     26 C20        -2.1261   -3.3452    2.0401 C.ar    1  NONAME1    -0.0197
     27 C21        -3.3545   -2.6742    2.1417 C.ar    1  NONAME1    -0.0551
     28 H1         -6.9591   -0.8007    1.8698 H       1  NONAME1     0.0233
     29 H2         -6.3114   -0.1515    3.4372 H       1  NONAME1     0.0233
     30 H3         -5.2125   -0.3799    2.0163 H       1  NONAME1     0.0233
     31 H4         -5.7474   -1.5612    0.1932 H       1  NONAME1     0.0311
     32 H5         -6.4368   -2.8805    1.1445 H       1  NONAME1     0.0311
     33 H6         -4.7543   -3.7779   -0.7449 H       1  NONAME1     0.0621
     34 H7         -2.6229   -4.9348   -0.9234 H       1  NONAME1     0.0654
     35 H8         -1.0945   -6.4031   -0.1817 H       1  NONAME1     0.0697
     36 H9         -0.1675   -5.1299   -1.0288 H       1  NONAME1     0.0697
     37 H10         0.9448   -7.4055   -0.3247 H       1  NONAME1     0.0331
     38 H11         0.9965   -6.7162    1.3115 H       1  NONAME1     0.0331
     39 H12         2.2568   -5.4092   -1.1617 H       1  NONAME1     0.0697
     40 H13         3.0858   -6.5331   -0.0500 H       1  NONAME1     0.0697
     41 H14         4.7075   -5.2100   -0.9249 H       1  NONAME1     0.0654
     42 H15         6.9819   -4.3761   -0.5256 H       1  NONAME1     0.0619
     43 H16         7.4730   -2.9539    1.4207 H       1  NONAME1     0.0623
     44 H17         6.5724   -1.3153    2.9253 H       1  NONAME1     0.0636
     45 H18         3.3355   -3.1705    2.6087 H       1  NONAME1     0.0660
     46 H19        -1.3791   -3.2248    2.8244 H       1  NONAME1     0.0654
     47 H20        -3.5263   -2.0446    3.0102 H       1  NONAME1     0.0621
@<TRIPOS>BOND
     1     1     2    1
     2     2     3    1
     3     3     4   ar
     4     4     5   ar
     5     5     6   ar
     6     6     7    1
     7     7     8    1
     8     8     9    1
     9     9    10    1
    10    10    11    1
    11    11    12    1
    12    12    13   ar
    13    13    14   ar
    14    14    15   ar
    15    15    16   ar
    16    16    17    1
    17    17    18    2
    18    18    19    1
    19    19    20    1
    20    20    21    2
    21    20    22    1
    22    22    23   am
    23    18    23    1
    24    23    24    2
    25    16    25   ar
    26    12    25   ar
    27     6    26   ar
    28    26    27   ar
    29     3    27   ar
    30     1    28    1
    31     1    29    1
    32     1    30    1
    33     2    31    1
    34     2    32    1
    35     4    33    1
    36     5    34    1
    37     8    35    1
    38     8    36    1
    39     9    37    1
    40     9    38    1
    41    10    39    1
    42    10    40    1
    43    13    41    1
    44    14    42    1
    45    15    43    1
    46    17    44    1
    47    25    45    1
    48    26    46    1
    49    27    47    1
