REMARK  9 active torsions:
REMARK  status: ('A' for Active; 'I' for Inactive)
REMARK    1  A    between atoms: C2_2  and  N1_3 
REMARK    2  A    between atoms: N1_3  and  C3_4 
REMARK    3  A    between atoms: N1_3  and  C5_6 
REMARK    4  A    between atoms: C8_9  and  C9_10 
REMARK    5  A    between atoms: C10_11  and  C12_14 
REMARK    6  A    between atoms: C12_14  and  O2_16 
REMARK    7  A    between atoms: C13_17  and  O2_16 
REMARK    8  A    between atoms: C13_17  and  C15_19 
REMARK    9  A    between atoms: C15_19  and  O3_20 
ROOT
ATOM      1  C9  NON d   1       1.188   8.752  -0.277  0.00  0.00     0.040 C 
ATOM      2  C10 NON d   1       1.809   7.582   0.007  0.00  0.00     0.120 C 
ATOM      3  C11 NON d   1       1.144   6.469   0.613  0.00  0.00     0.105 C 
ATOM      4  N2  NON d   1       0.588   5.554   1.063  0.00  0.00    -0.191 NA
ENDROOT
BRANCH   2   5
ATOM      5  C12 NON d   1       3.207   7.333  -0.541  0.00  0.00     0.304 C 
ATOM      6  O1  NON d   1       3.403   7.172  -1.742  0.00  0.00    -0.258 OA
BRANCH   5   7
ATOM      7  O2  NON d   1       4.193   7.126   0.419  0.00  0.00    -0.310 OA
BRANCH   7   8
ATOM      8  C13 NON d   1       5.335   6.160   0.000  0.00  0.00     0.152 C 
ATOM      9  C14 NON d   1       5.335   4.620   0.000  0.00  0.00     0.042 C 
BRANCH   8  10
ATOM     10  C15 NON d   1       6.668   6.930   0.000  0.00  0.00     0.199 C 
BRANCH  10  11
ATOM     11  O3  NON d   1       6.894   7.543   1.273  0.00  0.00    -0.393 OA
ATOM     12  C16 NON d   1       6.356   8.855   1.389  0.00  0.00     0.201 C 
ENDBRANCH  10  11
ENDBRANCH   8  10
ENDBRANCH   7   8
ENDBRANCH   5   7
ENDBRANCH   2   5
BRANCH   1  13
ATOM     13  C8  NON d   1      -0.194   9.323  -0.048  0.00  0.00    -0.035 A 
ATOM     14  C7  NON d   1      -0.292  10.703   0.155  0.00  0.00     0.013 A 
ATOM     15  C6  NON d   1      -1.540  11.403   0.215  0.00  0.00     0.030 A 
ATOM     16  C5  NON d   1      -2.804  10.822   0.045  0.00  0.00     0.030 A 
ATOM     17  C18 NON d   1      -2.693   9.416  -0.111  0.00  0.00     0.030 A 
ATOM     18  C17 NON d   1      -1.436   8.684  -0.155  0.00  0.00     0.013 A 
BRANCH  16  19
ATOM     19  N1  NON d   1      -4.025  11.547  -0.036  0.00  0.00    -0.382 N 
BRANCH  19  20
ATOM     20  C2  NON d   1      -5.335  10.780   0.000  0.00  0.00     0.118 C 
ATOM     21  C1  NON d   1      -6.668  11.550   0.000  0.00  0.00     0.026 C 
ENDBRANCH  19  20
BRANCH  19  22
ATOM     22  C3  NON d   1      -4.197  12.987   0.293  0.00  0.00     0.118 C 
ATOM     23  C4  NON d   1      -3.132  13.994  -0.107  0.00  0.00     0.026 C 
ENDBRANCH  19  22
ENDBRANCH  16  19
ENDBRANCH   1  13
TORSDOF 9
