@<TRIPOS>MOLECULE
*****
 58 61 0 0 0
SMALL
USER_CHARGES

@<TRIPOS>ATOM
      1 C1          9.5960    5.6814   -1.6357 C.3     1  NONAME1     0.0371
      2 O1          8.2980    5.1717   -1.9220 O.3     1  NONAME1    -0.3738
      3 C2          7.3696    5.5069   -0.9098 C.3     1  NONAME1     0.1236
      4 C3          5.9018    5.1667   -1.1874 C.2     1  NONAME1     0.2430
      5 O2          5.0066    5.8489   -0.6690 O.2     1  NONAME1    -0.2729
      6 N1          5.5046    4.1397   -2.0140 N.am    1  NONAME1    -0.2818
      7 C4          5.8264    2.7754   -1.7861 C.ar    1  NONAME1     0.0601
      8 C5          7.0556    2.2053   -2.2016 C.ar    1  NONAME1    -0.0262
      9 C6          7.3910    0.8681   -1.9197 C.ar    1  NONAME1     0.0406
     10 C7          8.8545    0.3570   -2.1248 C.2     1  NONAME1     0.2447
     11 O3          9.0075   -0.6613   -2.8008 O.2     1  NONAME1    -0.2702
     12 N2         10.0273    0.9800   -1.5296 N.am    1  NONAME1    -0.3033
     13 C8         10.1217    1.5400    0.0000 C.3     1  NONAME1     0.0634
     14 C9          8.7880    2.3100    0.0000 C.3     1  NONAME1    -0.0410
     15 C10        11.4554    2.3100    0.0000 C.ar    1  NONAME1     0.0686
     16 C11        11.7012    3.4666    0.7187 C.ar    1  NONAME1     0.0005
     17 S1         13.3598    3.8708    0.6532 S.2     1  NONAME1    -0.0805
     18 C12        13.6559    2.4409   -0.2531 C.ar    1  NONAME1     0.0756
     19 C13        15.0554    2.0766   -0.6047 C.3     1  NONAME1    -0.0159
     20 N3         12.5912    1.7229   -0.5487 N.ar    1  NONAME1    -0.2474
     21 C14         6.3571    0.0106   -1.4343 C.ar    1  NONAME1    -0.0220
     22 C15         5.0657    0.5378   -1.1206 C.ar    1  NONAME1     0.0922
     23 N4          3.8778   -0.0686   -0.7108 N.ar    1  NONAME1    -0.2275
     24 C16         2.9700    0.8911   -0.5272 C.ar    1  NONAME1     0.1416
     25 C17         1.4987    0.7060   -0.2790 C.ar    1  NONAME1     0.0175
     26 C18         0.9683   -0.5778   -0.0902 C.ar    1  NONAME1    -0.0511
     27 C19        -0.4134   -0.7938    0.0934 C.ar    1  NONAME1    -0.0611
     28 C20        -1.3033    0.2759    0.1110 C.ar    1  NONAME1    -0.0617
     29 C21        -0.8132    1.5598   -0.0746 C.ar    1  NONAME1    -0.0611
     30 C22         0.5660    1.7624   -0.2835 C.ar    1  NONAME1    -0.0511
     31 N5          3.6391    2.1072   -0.5868 N.ar    1  NONAME1    -0.3253
     32 C23         3.2608    3.3139    0.1287 C.3     1  NONAME1     0.0139
     33 C24         4.8615    1.9125   -1.2202 C.ar    1  NONAME1     0.0904
     34 H1          9.5765    6.7720   -1.5575 H       1  NONAME1     0.0524
     35 H2          9.9774    5.2595   -0.7028 H       1  NONAME1     0.0524
     36 H3         10.2669    5.3954   -2.4491 H       1  NONAME1     0.0524
     37 H4          7.3954    6.5960   -0.7727 H       1  NONAME1     0.0656
     38 H5          7.6623    5.0718    0.0514 H       1  NONAME1     0.0656
     39 H6          4.4980    4.2508   -2.0778 H       1  NONAME1     0.1549
     40 H7          7.7976    2.8368   -2.6832 H       1  NONAME1     0.0644
     41 H8         10.8793    0.4896   -1.7843 H       1  NONAME1     0.1497
     42 H9          8.7880    0.7700    0.0000 H       1  NONAME1     0.0561
     43 H10         9.1432    3.1394   -0.6377 H       1  NONAME1     0.0251
     44 H11         7.4543    3.0800    0.0000 H       1  NONAME1     0.0251
     45 H12         8.8579    2.6311    1.0625 H       1  NONAME1     0.0251
     46 H13        11.0076    4.0595    1.2970 H       1  NONAME1     0.0712
     47 H14        15.0854    1.1080   -1.1122 H       1  NONAME1     0.0298
     48 H15        15.6722    2.0002    0.2978 H       1  NONAME1     0.0298
     49 H16        15.4981    2.8265   -1.2672 H       1  NONAME1     0.0298
     50 H17         6.5416   -1.0453   -1.2702 H       1  NONAME1     0.0647
     51 H18         1.6299   -1.4388   -0.1035 H       1  NONAME1     0.0625
     52 H19        -0.7933   -1.8069    0.2124 H       1  NONAME1     0.0618
     53 H20        -2.3701    0.1046    0.2509 H       1  NONAME1     0.0618
     54 H21        -1.5001    2.4065   -0.0717 H       1  NONAME1     0.0618
     55 H22         0.8563    2.7953   -0.4653 H       1  NONAME1     0.0625
     56 H23         4.1588    3.7572    0.5613 H       1  NONAME1     0.0456
     57 H24         2.6029    3.0608    0.9654 H       1  NONAME1     0.0456
     58 H25         2.7763    3.9950   -0.5680 H       1  NONAME1     0.0456
@<TRIPOS>BOND
     1     1     2    1
     2     2     3    1
     3     3     4    1
     4     4     5    2
     5     4     6   am
     6     6     7    1
     7     7     8   ar
     8     8     9   ar
     9     9    10    1
    10    10    11    2
    11    10    12   am
    12    13    12    1
    13    13    14    1
    14    13    15    1
    15    15    16   ar
    16    16    17   ar
    17    17    18   ar
    18    18    19    1
    19    18    20   ar
    20    15    20   ar
    21     9    21   ar
    22    21    22   ar
    23    22    23   ar
    24    23    24   ar
    25    24    25    1
    26    25    26   ar
    27    26    27   ar
    28    27    28   ar
    29    28    29   ar
    30    29    30   ar
    31    25    30   ar
    32    24    31   ar
    33    31    32    1
    34    31    33   ar
    35     7    33   ar
    36    22    33   ar
    37     1    34    1
    38     1    35    1
    39     1    36    1
    40     3    37    1
    41     3    38    1
    42     6    39    1
    43     8    40    1
    44    12    41    1
    45    13    42    1
    46    14    43    1
    47    14    44    1
    48    14    45    1
    49    16    46    1
    50    19    47    1
    51    19    48    1
    52    19    49    1
    53    21    50    1
    54    26    51    1
    55    27    52    1
    56    28    53    1
    57    29    54    1
    58    30    55    1
    59    32    56    1
    60    32    57    1
    61    32    58    1
