@<TRIPOS>MOLECULE
*****
 64 66 0 0 0
SMALL
USER_CHARGES

@<TRIPOS>ATOM
      1 C1         -2.8154  -14.8765    1.3145 C.3     1  NONAME1    -0.0652
      2 C2         -1.4313  -15.5170    1.4182 C.3     1  NONAME1    -0.0528
      3 C3         -0.9793  -16.1137    0.0808 C.3     1  NONAME1    -0.0189
      4 C4          0.5319  -16.3981   -0.0718 C.3     1  NONAME1     0.0896
      5 O1          1.4638  -15.5408    0.6046 O.3     1  NONAME1    -0.4912
      6 C5          1.8114  -14.3266    0.0560 C.ar    1  NONAME1     0.1326
      7 C6          0.7787  -13.4188   -0.2386 C.ar    1  NONAME1    -0.0192
      8 C7          1.0380  -12.0730   -0.4597 C.ar    1  NONAME1    -0.0583
      9 C8          2.3424  -11.6138   -0.3870 C.ar    1  NONAME1    -0.0608
     10 C9          3.4005  -12.5084   -0.1604 C.ar    1  NONAME1    -0.0461
     11 C10         3.1737  -13.8840    0.0458 C.ar    1  NONAME1     0.0786
     12 C11         4.3476  -14.8563    0.2016 C.2     1  NONAME1     0.2531
     13 O2          4.0895  -16.0429    0.3762 O.2     1  NONAME1    -0.2697
     14 N1          5.6996  -14.3764    0.1191 N.am    1  NONAME1    -0.2626
     15 C12         6.9199  -15.1086    0.0692 C.2     1  NONAME1     0.1533
     16 S1          7.0549  -16.7846    0.0284 S.2     1  NONAME1    -0.0170
     17 N2          8.0764  -14.2929    0.0223 N.am    1  NONAME1    -0.2453
     18 N3          9.4031  -14.9036    0.0090 N.am    1  NONAME1    -0.2311
     19 C13        10.5648  -14.1248    0.0260 C.2     1  NONAME1     0.2601
     20 O3         10.5025  -12.8963    0.0757 O.2     1  NONAME1    -0.2687
     21 C14        11.9344  -14.8223   -0.0015 C.ar    1  NONAME1     0.0383
     22 C15        13.1151  -14.0489    0.0285 C.ar    1  NONAME1    -0.0478
     23 C16        14.4246  -14.6310    0.0081 C.ar    1  NONAME1    -0.0398
     24 C17        14.6159  -16.0149   -0.0476 C.ar    1  NONAME1     0.0337
     25 N4         15.8966  -16.7039   -0.0728 N.am    1  NONAME1    -0.2815
     26 C18        17.1937  -16.1548   -0.0085 C.2     1  NONAME1     0.2485
     27 O4         17.3629  -14.9353    0.0663 O.2     1  NONAME1    -0.2698
     28 C19        18.5061  -17.0420   -0.0236 C.ar    1  NONAME1     0.0399
     29 C20        19.6962  -16.2920   -0.0391 C.ar    1  NONAME1    -0.0494
     30 C21        20.9554  -16.9049   -0.0276 C.ar    1  NONAME1    -0.0610
     31 C22        21.0706  -18.2937    0.0060 C.ar    1  NONAME1    -0.0615
     32 C23        19.9302  -19.0898    0.0242 C.ar    1  NONAME1    -0.0581
     33 C24        18.6715  -18.4800    0.0000 C.ar    1  NONAME1    -0.0383
     34 C25        17.3378  -19.2500    0.0000 C.3     1  NONAME1    -0.0390
     35 C26        13.4342  -16.7831   -0.0838 C.ar    1  NONAME1    -0.0398
     36 C27        12.1167  -16.2049   -0.0542 C.ar    1  NONAME1    -0.0478
     37 H1         -2.9555  -14.1449    2.1178 H       1  NONAME1     0.0230
     38 H2         -3.6065  -15.6274    1.4032 H       1  NONAME1     0.0230
     39 H3         -2.9522  -14.3479    0.3645 H       1  NONAME1     0.0230
     40 H4         -0.7308  -14.7503    1.7593 H       1  NONAME1     0.0264
     41 H5         -1.4468  -16.2921    2.1923 H       1  NONAME1     0.0264
     42 H6         -1.2857  -15.4572   -0.7425 H       1  NONAME1     0.0298
     43 H7         -1.5351  -17.0446   -0.0992 H       1  NONAME1     0.0298
     44 H8          0.7034  -17.3939    0.3567 H       1  NONAME1     0.0696
     45 H9          0.7937  -16.4833   -1.1338 H       1  NONAME1     0.0696
     46 H10        -0.2628  -13.7070   -0.2225 H       1  NONAME1     0.0654
     47 H11         0.2126  -11.3853   -0.6319 H       1  NONAME1     0.0619
     48 H12         2.5363  -10.5493   -0.5028 H       1  NONAME1     0.0618
     49 H13         4.3895  -12.0719   -0.1277 H       1  NONAME1     0.0626
     50 H14         5.8200  -13.3858    0.0109 H       1  NONAME1     0.1569
     51 H15         8.0831  -13.2840    0.1598 H       1  NONAME1     0.1718
     52 H16         9.4013  -15.9188   -0.0226 H       1  NONAME1     0.1731
     53 H17        13.0408  -12.9603    0.0690 H       1  NONAME1     0.0626
     54 H18        15.2735  -13.9516    0.0323 H       1  NONAME1     0.0636
     55 H19        15.8114  -17.7004   -0.1517 H       1  NONAME1     0.1551
     56 H20        19.6617  -15.2030   -0.0571 H       1  NONAME1     0.0625
     57 H21        21.8507  -16.2866   -0.0412 H       1  NONAME1     0.0618
     58 H22        22.0559  -18.7533    0.0168 H       1  NONAME1     0.0618
     59 H23        20.0306  -20.1714    0.0493 H       1  NONAME1     0.0620
     60 H24        17.2364  -19.2306    1.1058 H       1  NONAME1     0.0278
     61 H25        16.0041  -20.0200    0.0000 H       1  NONAME1     0.0278
     62 H26        17.7755  -20.2238   -0.2973 H       1  NONAME1     0.0278
     63 H27        13.5007  -17.8701   -0.1285 H       1  NONAME1     0.0636
     64 H28        11.2779  -16.8869   -0.0879 H       1  NONAME1     0.0626
@<TRIPOS>BOND
     1     1     2    1
     2     2     3    1
     3     3     4    1
     4     4     5    1
     5     5     6    1
     6     6     7   ar
     7     7     8   ar
     8     8     9   ar
     9     9    10   ar
    10    10    11   ar
    11     6    11   ar
    12    11    12    1
    13    12    13    2
    14    12    14   am
    15    14    15    1
    16    15    16    2
    17    15    17    1
    18    17    18    1
    19    18    19   am
    20    19    20    2
    21    19    21    1
    22    21    22   ar
    23    22    23   ar
    24    23    24   ar
    25    24    25    1
    26    25    26   am
    27    26    27    2
    28    26    28    1
    29    28    29   ar
    30    29    30   ar
    31    30    31   ar
    32    31    32   ar
    33    32    33   ar
    34    28    33   ar
    35    33    34    1
    36    24    35   ar
    37    35    36   ar
    38    21    36   ar
    39     1    37    1
    40     1    38    1
    41     1    39    1
    42     2    40    1
    43     2    41    1
    44     3    42    1
    45     3    43    1
    46     4    44    1
    47     4    45    1
    48     7    46    1
    49     8    47    1
    50     9    48    1
    51    10    49    1
    52    14    50    1
    53    17    51    1
    54    18    52    1
    55    22    53    1
    56    23    54    1
    57    25    55    1
    58    29    56    1
    59    30    57    1
    60    31    58    1
    61    32    59    1
    62    34    60    1
    63    34    61    1
    64    34    62    1
    65    35    63    1
    66    36    64    1
