@<TRIPOS>MOLECULE
*****
 96 98 0 0 0
SMALL
USER_CHARGES

@<TRIPOS>ATOM
      1 C1          3.6428   -8.1932    1.0256 C.3     1  NONAME1    -0.0653
      2 C2          3.8396   -8.5397    2.4892 C.3     1  NONAME1    -0.0559
      3 C3          4.7837   -9.6942    2.8089 C.3     1  NONAME1    -0.0531
      4 C4          4.4409  -11.1226    2.3628 C.3     1  NONAME1    -0.0504
      5 C5          4.2675  -11.5240    0.8740 C.3     1  NONAME1    -0.0412
      6 C6          4.0222  -13.0411    0.8169 C.3     1  NONAME1    -0.0623
      7 C7          5.3535  -11.1387   -0.1736 C.3     1  NONAME1    -0.0203
      8 C8          6.7865  -10.9489    0.3286 C.3     1  NONAME1     0.0800
      9 C9          7.7714  -12.0893    0.3654 C.2     1  NONAME1    -0.0591
     10 C10         8.9497  -12.2127   -0.2853 C.2     1  NONAME1    -0.0796
     11 C11        10.0759  -13.1087    0.2028 C.3     1  NONAME1     0.0088
     12 C12        11.5391  -12.7406   -0.2840 C.3     1  NONAME1    -0.0063
     13 C13        12.2792  -11.4433    0.2149 C.3     1  NONAME1    -0.0472
     14 C14        12.7665  -10.5305   -0.9458 C.3     1  NONAME1    -0.0524
     15 C15        13.7588   -9.3553   -0.6705 C.3     1  NONAME1    -0.0496
     16 C16        13.6625   -8.4072    0.5546 C.3     1  NONAME1    -0.0343
     17 C17        12.8691   -7.1151    0.4159 C.2     1  NONAME1    -0.0773
     18 C18        12.3592   -6.4647    1.4786 C.2     1  NONAME1     0.0186
     19 C19        11.3438   -5.3825    1.3737 C.2     1  NONAME1     0.3314
     20 O1         11.0198   -4.7933    0.3599 O.2     1  NONAME1    -0.2456
     21 O2         10.7303   -5.2883    2.5882 O.3     1  NONAME1    -0.4649
     22 C20         9.4794   -4.5899    2.6179 C.3     1  NONAME1     0.0820
     23 C21        12.3017  -14.0076    0.1771 C.3     1  NONAME1     0.0610
     24 O3         13.4732  -14.2053   -0.5978 O.3     1  NONAME1    -0.3914
     25 C22        11.3355  -15.1863    0.0367 C.3     1  NONAME1     0.0005
     26 C23         9.9862  -14.5649   -0.3249 C.3     1  NONAME1     0.0706
     27 O4          8.8953  -15.4208   -0.0402 O.3     1  NONAME1    -0.3474
     28 C24         8.3027  -15.5211    1.2460 C.3     1  NONAME1     0.1595
     29 C25         7.0566  -16.3898    1.0227 C.3     1  NONAME1    -0.0015
     30 C26         6.3381  -16.7218    2.3155 C.3     1  NONAME1    -0.0464
     31 C27         7.3136  -17.1335    3.4096 C.3     1  NONAME1    -0.0292
     32 C28         8.7587  -17.1905    2.9210 C.3     1  NONAME1     0.0507
     33 O5          9.1791  -16.0023    2.2574 O.3     1  NONAME1    -0.3513
     34 O6          7.3779   -9.8375   -0.3386 O.3     1  NONAME1    -0.3441
     35 C29         7.5293   -8.7027    0.5167 C.3     1  NONAME1     0.1599
     36 C30         8.4598   -8.9606    1.7177 C.3     1  NONAME1    -0.0015
     37 C31         9.8973   -8.6486    1.3766 C.3     1  NONAME1    -0.0464
     38 C32        10.1197   -8.7433   -0.1176 C.3     1  NONAME1    -0.0292
     39 C33         9.1916   -7.8507   -0.9178 C.3     1  NONAME1     0.0507
     40 O7          7.9832   -7.5731   -0.2231 O.3     1  NONAME1    -0.3513
     41 H1          4.5798   -8.1637    0.4698 H       1  NONAME1     0.0230
     42 H2          2.9703   -8.8983    0.5356 H       1  NONAME1     0.0230
     43 H3          3.1930   -7.1983    0.9397 H       1  NONAME1     0.0230
     44 H4          4.2548   -7.6488    2.9815 H       1  NONAME1     0.0263
     45 H5          2.8654   -8.7196    2.9546 H       1  NONAME1     0.0263
     46 H6          4.8534   -9.7343    3.9066 H       1  NONAME1     0.0265
     47 H7          5.7926   -9.4175    2.5159 H       1  NONAME1     0.0265
     48 H8          5.2099  -11.7785    2.7964 H       1  NONAME1     0.0268
     49 H9          3.5133  -11.3948    2.8855 H       1  NONAME1     0.0268
     50 H10         3.3296  -11.0690    0.5312 H       1  NONAME1     0.0299
     51 H11         3.7006  -13.3456   -0.1847 H       1  NONAME1     0.0232
     52 H12         4.9280  -13.5999    1.0729 H       1  NONAME1     0.0232
     53 H13         3.2312  -13.3354    1.5157 H       1  NONAME1     0.0232
     54 H14         5.3452  -11.8514   -1.0091 H       1  NONAME1     0.0296
     55 H15         5.0248  -10.1934   -0.6263 H       1  NONAME1     0.0296
     56 H16         6.6968  -10.7173    1.3818 H       1  NONAME1     0.0641
     57 H17         7.5604  -12.7425    1.1974 H       1  NONAME1     0.0595
     58 H18         9.1694  -11.5537   -1.1204 H       1  NONAME1     0.0573
     59 H19        10.0598  -13.1068    1.3016 H       1  NONAME1     0.0372
     60 H20        11.5387  -12.7148   -1.3840 H       1  NONAME1     0.0332
     61 H21        11.6362  -10.8884    0.8951 H       1  NONAME1     0.0269
     62 H22        13.1714  -11.7253    0.7880 H       1  NONAME1     0.0269
     63 H23        13.2863  -11.1769   -1.6685 H       1  NONAME1     0.0265
     64 H24        11.9050  -10.1570   -1.5061 H       1  NONAME1     0.0265
     65 H25        14.7507   -9.8227   -0.5996 H       1  NONAME1     0.0268
     66 H26        13.7990   -8.7443   -1.5838 H       1  NONAME1     0.0268
     67 H27        14.6898   -8.0702    0.7572 H       1  NONAME1     0.0307
     68 H28        13.3304   -8.9662    1.4292 H       1  NONAME1     0.0307
     69 H29        12.6419   -6.7520   -0.5892 H       1  NONAME1     0.0574
     70 H30        12.5543   -6.8178    2.4892 H       1  NONAME1     0.0686
     71 H31         9.2693   -4.3195    3.6593 H       1  NONAME1     0.0661
     72 H32         9.4970   -3.6759    2.0211 H       1  NONAME1     0.0661
     73 H33         8.6796   -5.2579    2.2791 H       1  NONAME1     0.0661
     74 H34        12.6005  -13.9104    1.2283 H       1  NONAME1     0.0597
     75 H35        13.8832  -15.0359   -0.2947 H       1  NONAME1     0.2098
     76 H36        11.2877  -15.7419    0.9782 H       1  NONAME1     0.0315
     77 H37        11.6477  -15.9060   -0.7282 H       1  NONAME1     0.0315
     78 H38         9.9680  -14.4967   -1.4224 H       1  NONAME1     0.0604
     79 H39         7.9696  -14.5488    1.5890 H       1  NONAME1     0.0909
     80 H40         6.3716  -15.8971    0.3214 H       1  NONAME1     0.0314
     81 H41         7.3535  -17.3258    0.5299 H       1  NONAME1     0.0314
     82 H42         5.7534  -15.8566    2.6512 H       1  NONAME1     0.0268
     83 H43         5.6129  -17.5250    2.1330 H       1  NONAME1     0.0268
     84 H44         7.0238  -18.1086    3.8195 H       1  NONAME1     0.0287
     85 H45         7.2310  -16.4132    4.2326 H       1  NONAME1     0.0287
     86 H46         9.4190  -17.3337    3.7831 H       1  NONAME1     0.0561
     87 H47         8.9156  -18.0428    2.2518 H       1  NONAME1     0.0561
     88 H48         6.5503   -8.4185    0.8883 H       1  NONAME1     0.0910
     89 H49         8.4152   -9.9857    2.0942 H       1  NONAME1     0.0314
     90 H50         8.1618   -8.3204    2.5564 H       1  NONAME1     0.0314
     91 H51        10.5734   -9.3074    1.9341 H       1  NONAME1     0.0268
     92 H52        10.0935   -7.6402    1.7245 H       1  NONAME1     0.0268
     93 H53         9.9675   -9.7748   -0.4243 H       1  NONAME1     0.0287
     94 H54        11.1351   -8.5176   -0.4004 H       1  NONAME1     0.0287
     95 H55         9.6796   -6.8953   -1.1315 H       1  NONAME1     0.0561
     96 H56         8.9611   -8.3158   -1.8835 H       1  NONAME1     0.0561
@<TRIPOS>BOND
     1     1     2    1
     2     2     3    1
     3     3     4    1
     4     5     4    1
     5     5     6    1
     6     5     7    1
     7     8     7    1
     8     8     9    1
     9     9    10    2
    10    11    10    1
    11    11    12    1
    12    12    13    1
    13    13    14    1
    14    14    15    1
    15    15    16    1
    16    16    17    1
    17    17    18    2
    18    18    19    1
    19    19    20    2
    20    19    21    1
    21    21    22    1
    22    12    23    1
    23    23    24    1
    24    23    25    1
    25    26    25    1
    26    11    26    1
    27    26    27    1
    28    28    27    1
    29    28    29    1
    30    29    30    1
    31    30    31    1
    32    31    32    1
    33    32    33    1
    34    28    33    1
    35     8    34    1
    36    35    34    1
    37    35    36    1
    38    36    37    1
    39    37    38    1
    40    38    39    1
    41    39    40    1
    42    35    40    1
    43     1    41    1
    44     1    42    1
    45     1    43    1
    46     2    44    1
    47     2    45    1
    48     3    46    1
    49     3    47    1
    50     4    48    1
    51     4    49    1
    52     5    50    1
    53     6    51    1
    54     6    52    1
    55     6    53    1
    56     7    54    1
    57     7    55    1
    58     8    56    1
    59     9    57    1
    60    10    58    1
    61    11    59    1
    62    12    60    1
    63    13    61    1
    64    13    62    1
    65    14    63    1
    66    14    64    1
    67    15    65    1
    68    15    66    1
    69    16    67    1
    70    16    68    1
    71    17    69    1
    72    18    70    1
    73    22    71    1
    74    22    72    1
    75    22    73    1
    76    23    74    1
    77    24    75    1
    78    25    76    1
    79    25    77    1
    80    26    78    1
    81    28    79    1
    82    29    80    1
    83    29    81    1
    84    30    82    1
    85    30    83    1
    86    31    84    1
    87    31    85    1
    88    32    86    1
    89    32    87    1
    90    35    88    1
    91    36    89    1
    92    36    90    1
    93    37    91    1
    94    37    92    1
    95    38    93    1
    96    38    94    1
    97    39    95    1
    98    39    96    1
