@<TRIPOS>MOLECULE
*****
 66 68 0 0 0
SMALL
USER_CHARGES

@<TRIPOS>ATOM
      1 C1         -5.5211   -4.4822   -2.3622 C.3     1  NONAME1    -0.0653
      2 C2         -4.8928   -5.0919   -1.1094 C.3     1  NONAME1    -0.0559
      3 C3         -5.4954   -6.4599   -0.7610 C.3     1  NONAME1    -0.0519
      4 C4         -5.2429   -6.9300    0.6856 C.3     1  NONAME1    -0.0371
      5 C5         -4.0481   -7.8625    1.0430 C.3     1  NONAME1     0.0168
      6 N1         -2.6800   -7.3387    0.9868 N.am    1  NONAME1    -0.2764
      7 C6         -2.4267   -6.0087    1.4227 C.2     1  NONAME1     0.3112
      8 O1         -3.1687   -5.3807    2.1684 O.2     1  NONAME1    -0.2520
      9 N2         -1.2559   -5.5113    0.8108 N.am    1  NONAME1    -0.2319
     10 C7         -0.9994   -4.1167    0.6110 C.ar    1  NONAME1     0.0400
     11 C8         -2.0075   -3.1467    0.5537 C.ar    1  NONAME1    -0.0401
     12 C9         -1.7049   -1.8119    0.2420 C.ar    1  NONAME1    -0.0598
     13 C10        -0.3877   -1.4055    0.0266 C.ar    1  NONAME1    -0.0587
     14 C11         0.6390   -2.3411    0.1083 C.ar    1  NONAME1    -0.0487
     15 C12         2.0769   -1.9377   -0.0472 C.3     1  NONAME1    -0.0397
     16 C13         0.3130   -3.6777    0.3847 C.ar    1  NONAME1    -0.0372
     17 C14        -0.8015   -6.4527   -0.1883 C.3     1  NONAME1     0.1482
     18 N3          0.6684   -6.6524   -0.3428 N.am    1  NONAME1    -0.1438
     19 O2          1.0913   -6.6110   -1.6951 O.3     1  NONAME1    -0.2895
     20 C15         1.6037   -6.9977    0.6147 C.2     1  NONAME1     0.3310
     21 O3          1.3582   -7.0893    1.8129 O.2     1  NONAME1    -0.2501
     22 N4          2.8631   -7.2785    0.1036 N.am    1  NONAME1    -0.2676
     23 C16         4.0080   -6.4665    0.2688 C.ar    1  NONAME1     0.0351
     24 C17         3.9174   -5.1525    0.7237 C.ar    1  NONAME1    -0.0404
     25 C18         5.0396   -4.3248    0.7622 C.ar    1  NONAME1    -0.0598
     26 C19         6.2842   -4.8223    0.3952 C.ar    1  NONAME1    -0.0587
     27 C20         6.4135   -6.1533   -0.0165 C.ar    1  NONAME1    -0.0487
     28 C21         7.7843   -6.6896   -0.3135 C.3     1  NONAME1    -0.0397
     29 C22         5.2665   -6.9669   -0.0935 C.ar    1  NONAME1    -0.0375
     30 C23        -1.7111   -7.7628    0.0000 C.3     1  NONAME1     0.0708
     31 C24        -0.6927   -8.9180    0.0000 C.3     1  NONAME1    -0.0403
     32 C25        -2.3781   -7.9552   -1.4084 C.3     1  NONAME1    -0.0403
     33 H1         -5.0930   -3.4930   -2.5595 H       1  NONAME1     0.0230
     34 H2         -5.3490   -5.1064   -3.2446 H       1  NONAME1     0.0230
     35 H3         -6.6020   -4.3528   -2.2393 H       1  NONAME1     0.0230
     36 H4         -3.8141   -5.1720   -1.2621 H       1  NONAME1     0.0263
     37 H5         -5.0506   -4.3915   -0.2828 H       1  NONAME1     0.0263
     38 H6         -6.5856   -6.3565   -0.8688 H       1  NONAME1     0.0266
     39 H7         -5.2044   -7.2227   -1.4895 H       1  NONAME1     0.0266
     40 H8         -6.1342   -7.5151    0.9517 H       1  NONAME1     0.0280
     41 H9         -5.2806   -6.0647    1.3540 H       1  NONAME1     0.0280
     42 H10        -4.1101   -8.7825    0.4534 H       1  NONAME1     0.0465
     43 H11        -4.1912   -8.1642    2.0876 H       1  NONAME1     0.0465
     44 H12        -3.0477   -3.4140    0.7036 H       1  NONAME1     0.0636
     45 H13        -2.5070   -1.0831    0.1680 H       1  NONAME1     0.0618
     46 H14        -0.1771   -0.3620   -0.1951 H       1  NONAME1     0.0620
     47 H15         2.5822   -2.5886   -0.7696 H       1  NONAME1     0.0278
     48 H16         2.5888   -2.0070    0.9183 H       1  NONAME1     0.0278
     49 H17         2.1745   -0.9088   -0.4050 H       1  NONAME1     0.0278
     50 H18         1.1195   -4.3846    0.4670 H       1  NONAME1     0.0639
     51 H19        -1.0963   -5.9830   -1.1411 H       1  NONAME1     0.0760
     52 H20         1.7954   -5.9327   -1.6545 H       1  NONAME1     0.2418
     53 H21         3.0174   -8.2529   -0.1212 H       1  NONAME1     0.1564
     54 H22         2.9810   -4.7450    1.0731 H       1  NONAME1     0.0636
     55 H23         4.9405   -3.2951    1.0949 H       1  NONAME1     0.0618
     56 H24         7.1561   -4.1732    0.4500 H       1  NONAME1     0.0620
     57 H25         7.7408   -7.6764   -0.7832 H       1  NONAME1     0.0278
     58 H26         8.3559   -6.7765    0.6171 H       1  NONAME1     0.0278
     59 H27         8.3187   -6.0176   -0.9937 H       1  NONAME1     0.0278
     60 H28         5.3684   -7.9949   -0.4315 H       1  NONAME1     0.0639
     61 H29        -1.4477   -9.7343   -0.0295 H       1  NONAME1     0.0251
     62 H30         0.3257  -10.0732    0.0000 H       1  NONAME1     0.0251
     63 H31        -0.4305   -8.8190    1.0749 H       1  NONAME1     0.0251
     64 H32        -3.0215   -8.8408   -1.4395 H       1  NONAME1     0.0251
     65 H33        -2.9759   -7.0949   -1.7046 H       1  NONAME1     0.0251
     66 H34        -1.6175   -8.0873   -2.1902 H       1  NONAME1     0.0251
@<TRIPOS>BOND
     1     1     2    1
     2     2     3    1
     3     3     4    1
     4     4     5    1
     5     5     6    1
     6     6     7   am
     7     7     8    2
     8     7     9   am
     9     9    10    1
    10    10    11   ar
    11    11    12   ar
    12    12    13   ar
    13    13    14   ar
    14    14    15    1
    15    14    16   ar
    16    10    16   ar
    17    17     9    1
    18    17    18    1
    19    18    19    1
    20    18    20   am
    21    20    21    2
    22    20    22   am
    23    22    23    1
    24    23    24   ar
    25    24    25   ar
    26    25    26   ar
    27    26    27   ar
    28    27    28    1
    29    27    29   ar
    30    23    29   ar
    31    17    30    1
    32     6    30    1
    33    30    31    1
    34    30    32    1
    35     1    33    1
    36     1    34    1
    37     1    35    1
    38     2    36    1
    39     2    37    1
    40     3    38    1
    41     3    39    1
    42     4    40    1
    43     4    41    1
    44     5    42    1
    45     5    43    1
    46    11    44    1
    47    12    45    1
    48    13    46    1
    49    15    47    1
    50    15    48    1
    51    15    49    1
    52    16    50    1
    53    17    51    1
    54    19    52    1
    55    22    53    1
    56    24    54    1
    57    25    55    1
    58    26    56    1
    59    28    57    1
    60    28    58    1
    61    28    59    1
    62    29    60    1
    63    31    61    1
    64    31    62    1
    65    31    63    1
    66    32    64    1
    67    32    65    1
    68    32    66    1
