REMARK  13 active torsions:
REMARK  status: ('A' for Active; 'I' for Inactive)
REMARK    1  A    between atoms: O1_2  and  C2_3 
REMARK    2  A    between atoms: C2_3  and  C3_4 
REMARK    3  A    between atoms: C3_4  and  O2_5 
REMARK    4  A    between atoms: O2_5  and  C4_6 
REMARK    5  A    between atoms: C9_11  and  C10_12 
REMARK       I    between atoms: C10_12  and  N1_14 
REMARK    6  A    between atoms: N1_14  and  C11_15 
REMARK    7  A    between atoms: C11_15  and  N2_17 
REMARK    8  A    between atoms: N2_17  and  C12_18 
REMARK    9  A    between atoms: C17_23  and  C18_24 
REMARK       I    between atoms: C18_24  and  N3_26 
REMARK   10  A    between atoms: N3_26  and  C19_27 
REMARK   11  A    between atoms: C19_27  and  C20_28 
REMARK   12  A    between atoms: C20_28  and  C21_29 
REMARK   13  A    between atoms: C21_29  and  O5_30 
ROOT
ATOM      1  C11 NON d   1       3.005  -3.189   0.971  0.00  0.00     0.179 C 
ATOM      2  S1  NON d   1       4.358  -2.874   1.897  0.00  0.00    -0.040 SA
ENDROOT
BRANCH   1   3
ATOM      3  N1  NON d   1       2.677  -4.525   0.774  0.00  0.00    -0.299 N 
ATOM      4  C10 NON d   1       1.502  -5.039   0.236  0.00  0.00     0.260 C 
ATOM      5  O3  NON d   1       0.571  -4.317  -0.121  0.00  0.00    -0.267 OA
ATOM      6  H12 NON d   1       3.355  -5.165   1.167  0.00  0.00     0.171 HD
BRANCH   4   7
ATOM      7  C9  NON d   1       1.394  -6.519   0.143  0.00  0.00     0.065 A 
ATOM      8  C8  NON d   1       2.526  -7.304  -0.132  0.00  0.00     0.020 A 
ATOM      9  C7  NON d   1       2.412  -8.695  -0.227  0.00  0.00     0.001 A 
ATOM     10  C6  NON d   1       1.174  -9.313  -0.057  0.00  0.00     0.003 A 
ATOM     11  C5  NON d   1       0.043  -8.542   0.207  0.00  0.00     0.038 A 
ATOM     12  C4  NON d   1       0.148  -7.151   0.288  0.00  0.00     0.084 A 
BRANCH  12  13
ATOM     13  O2  NON d   1      -0.978  -6.453   0.640  0.00  0.00    -0.348 OA
BRANCH  13  14
ATOM     14  C3  NON d   1      -1.790  -6.169  -0.515  0.00  0.00     0.201 C 
BRANCH  14  15
ATOM     15  C2  NON d   1      -3.040  -5.410  -0.061  0.00  0.00     0.193 C 
BRANCH  15  16
ATOM     16  O1  NON d   1      -4.094  -6.287   0.361  0.00  0.00    -0.394 OA
ATOM     17  C1  NON d   1      -3.846  -6.900   1.620  0.00  0.00     0.201 C 
ENDBRANCH  15  16
ENDBRANCH  14  15
ENDBRANCH  13  14
ENDBRANCH  12  13
ENDBRANCH   4   7
ENDBRANCH   1   3
BRANCH   1  18
ATOM     18  N2  NON d   1       2.094  -2.301   0.448  0.00  0.00    -0.332 N 
ATOM     19  H13 NON d   1       1.190  -2.739   0.264  0.00  0.00     0.168 HD
BRANCH  18  20
ATOM     20  C12 NON d   1       2.090  -0.893   0.358  0.00  0.00     0.050 A 
ATOM     21  C13 NON d   1       0.832  -0.301   0.577  0.00  0.00     0.030 A 
ATOM     22  C14 NON d   1       0.663   1.084   0.541  0.00  0.00     0.002 A 
ATOM     23  C15 NON d   1       1.748   1.904   0.256  0.00  0.00     0.001 A 
ATOM     24  C16 NON d   1       2.993   1.334  -0.015  0.00  0.00     0.019 A 
ATOM     25  C17 NON d   1       3.171  -0.063   0.024  0.00  0.00     0.058 A 
BRANCH  25  26
ATOM     26  C18 NON d   1       4.455  -0.582  -0.515  0.00  0.00     0.253 C 
ATOM     27  O4  NON d   1       4.465  -1.430  -1.399  0.00  0.00    -0.268 OA
ATOM     28  N3  NON d   1       5.593  -0.017   0.036  0.00  0.00    -0.357 N 
ATOM     29  H18 NON d   1       5.469   0.469   0.915  0.00  0.00     0.162 HD
BRANCH  28  30
ATOM     30  C19 NON d   1       6.890  -0.625  -0.193  0.00  0.00     0.125 C 
BRANCH  30  31
ATOM     31  C20 NON d   1       8.014   0.401  -0.111  0.00  0.00     0.046 C 
BRANCH  31  32
ATOM     32  C21 NON d   1       9.376  -0.257  -0.291  0.00  0.00     0.165 C 
BRANCH  32  33
ATOM     33  O5  NON d   1       9.640  -1.123   0.804  0.00  0.00    -0.401 OA
ATOM     34  H25 NON d   1      10.502  -1.543   0.638  0.00  0.00     0.209 HD
ENDBRANCH  32  33
ENDBRANCH  31  32
ENDBRANCH  30  31
ENDBRANCH  28  30
ENDBRANCH  25  26
ENDBRANCH  18  20
ENDBRANCH   1  18
TORSDOF 13
