REMARK  13 active torsions:
REMARK  status: ('A' for Active; 'I' for Inactive)
REMARK    1  A    between atoms: O1_2  and  C2_3 
REMARK    2  A    between atoms: C2_3  and  C3_4 
REMARK    3  A    between atoms: C3_4  and  O2_5 
REMARK    4  A    between atoms: O2_5  and  C4_6 
REMARK    5  A    between atoms: C9_11  and  C10_12 
REMARK       I    between atoms: C10_12  and  N1_14 
REMARK    6  A    between atoms: N1_14  and  C11_15 
REMARK    7  A    between atoms: C11_15  and  N2_17 
REMARK    8  A    between atoms: N2_17  and  C12_18 
REMARK    9  A    between atoms: C17_23  and  C18_24 
REMARK       I    between atoms: C18_24  and  N3_26 
REMARK   10  A    between atoms: N3_26  and  C19_27 
REMARK   11  A    between atoms: C19_27  and  C20_28 
REMARK   12  A    between atoms: C20_28  and  C21_29 
REMARK   13  A    between atoms: C21_29  and  O5_30 
ROOT
ATOM      1  C11 NON d   1       3.029  -3.246   0.499  0.00  0.00     0.179 C 
ATOM      2  S1  NON d   1       4.511  -3.076   1.235  0.00  0.00    -0.040 SA
ENDROOT
BRANCH   1   3
ATOM      3  N1  NON d   1       2.691  -4.540   0.164  0.00  0.00    -0.299 N 
ATOM      4  C10 NON d   1       1.488  -5.116   0.540  0.00  0.00     0.260 C 
ATOM      5  O3  NON d   1       0.571  -4.428   0.982  0.00  0.00    -0.267 OA
ATOM      6  H12 NON d   1       3.500  -5.135   0.118  0.00  0.00     0.171 HD
BRANCH   4   7
ATOM      7  C9  NON d   1       1.348  -6.600   0.355  0.00  0.00     0.065 A 
ATOM      8  C8  NON d   1       2.458  -7.435   0.126  0.00  0.00     0.020 A 
ATOM      9  C7  NON d   1       2.297  -8.814  -0.059  0.00  0.00     0.001 A 
ATOM     10  C6  NON d   1       1.030  -9.385  -0.005  0.00  0.00     0.003 A 
ATOM     11  C5  NON d   1      -0.077  -8.579   0.244  0.00  0.00     0.038 A 
ATOM     12  C4  NON d   1       0.077  -7.197   0.408  0.00  0.00     0.084 A 
BRANCH  12  13
ATOM     13  O2  NON d   1      -1.064  -6.504   0.715  0.00  0.00    -0.348 OA
BRANCH  13  14
ATOM     14  C3  NON d   1      -1.586  -5.824  -0.432  0.00  0.00     0.201 C 
BRANCH  14  15
ATOM     15  C2  NON d   1      -2.916  -5.186  -0.040  0.00  0.00     0.193 C 
BRANCH  15  16
ATOM     16  O1  NON d   1      -3.754  -5.035  -1.187  0.00  0.00    -0.394 OA
ATOM     17  C1  NON d   1      -4.480  -6.226  -1.471  0.00  0.00     0.201 C 
ENDBRANCH  15  16
ENDBRANCH  14  15
ENDBRANCH  13  14
ENDBRANCH  12  13
ENDBRANCH   4   7
ENDBRANCH   1   3
BRANCH   1  18
ATOM     18  N2  NON d   1       2.050  -2.321   0.225  0.00  0.00    -0.332 N 
ATOM     19  H13 NON d   1       1.128  -2.759   0.235  0.00  0.00     0.168 HD
BRANCH  18  20
ATOM     20  C12 NON d   1       2.025  -0.906   0.177  0.00  0.00     0.050 A 
ATOM     21  C13 NON d   1       0.742  -0.349   0.377  0.00  0.00     0.030 A 
ATOM     22  C14 NON d   1       0.529   1.032   0.393  0.00  0.00     0.002 A 
ATOM     23  C15 NON d   1       1.596   1.898   0.199  0.00  0.00     0.001 A 
ATOM     24  C16 NON d   1       2.866   1.377  -0.051  0.00  0.00     0.019 A 
ATOM     25  C17 NON d   1       3.083  -0.016  -0.084  0.00  0.00     0.058 A 
BRANCH  25  26
ATOM     26  C18 NON d   1       4.405  -0.434  -0.604  0.00  0.00     0.253 C 
ATOM     27  O4  NON d   1       4.475  -1.141  -1.604  0.00  0.00    -0.268 OA
ATOM     28  N3  NON d   1       5.493   0.041   0.107  0.00  0.00    -0.357 N 
ATOM     29  H18 NON d   1       5.298   0.459   1.007  0.00  0.00     0.162 HD
BRANCH  28  30
ATOM     30  C19 NON d   1       6.780  -0.619  -0.024  0.00  0.00     0.125 C 
BRANCH  30  31
ATOM     31  C20 NON d   1       7.948   0.356  -0.071  0.00  0.00     0.046 C 
BRANCH  31  32
ATOM     32  C21 NON d   1       9.257  -0.399  -0.262  0.00  0.00     0.165 C 
BRANCH  32  33
ATOM     33  O5  NON d   1       9.486  -1.257   0.849  0.00  0.00    -0.401 OA
ATOM     34  H25 NON d   1      10.228  -1.840   0.615  0.00  0.00     0.209 HD
ENDBRANCH  32  33
ENDBRANCH  31  32
ENDBRANCH  30  31
ENDBRANCH  28  30
ENDBRANCH  25  26
ENDBRANCH  18  20
ENDBRANCH   1  18
TORSDOF 13
