@<TRIPOS>MOLECULE
*****
 59 62 0 0 0
SMALL
USER_CHARGES

@<TRIPOS>ATOM
      1 O1         -9.9912    0.4202   -0.2262 O.2     1  NONAME1    -0.2701
      2 C1         -9.0337    1.1826    0.0000 C.2     1  NONAME1     0.2731
      3 N1         -7.7349    0.3985    0.1823 N.am    1  NONAME1    -0.2040
      4 N2         -7.6466   -1.1232    0.1439 N.2     1  NONAME1    -0.1875
      5 C2         -6.4986   -1.7986    0.1520 C.2     1  NONAME1     0.0565
      6 C3         -6.2247   -3.4653    0.1483 C.2     1  NONAME1     0.0432
      7 C4         -5.0268   -4.1644    0.1105 C.2     1  NONAME1    -0.0225
      8 C5         -4.7920   -5.7995    0.1263 C.2     1  NONAME1     0.0827
      9 N3         -3.6224   -6.4541    0.0743 N.2     1  NONAME1    -0.1827
     10 N4         -3.5642   -7.9638    0.0864 N.pl3   1  NONAME1    -0.2372
     11 C6         -2.3094   -8.7680    0.0396 C.ar    1  NONAME1     0.0488
     12 C7         -1.0674   -8.1763    0.2004 C.ar    1  NONAME1    -0.0391
     13 C8          0.1159   -8.9668    0.2312 C.ar    1  NONAME1    -0.0594
     14 C9          0.1403  -10.3912    0.1379 C.ar    1  NONAME1    -0.0500
     15 C10        -1.0316  -11.1374    0.0000 C.ar    1  NONAME1     0.0566
     16 C11        -1.0316  -12.6774    0.0000 C.3     1  NONAME1     0.4175
     17 F1         -1.0316  -14.2174    0.0000 F       1  NONAME1    -0.1659
     18 F2         -0.0721  -12.7479   -1.0609 F       1  NONAME1    -0.1659
     19 F3         -2.2779  -12.7562   -0.7018 F       1  NONAME1    -0.1659
     20 C12        -2.2649  -10.2538   -0.0200 C.ar    1  NONAME1    -0.0275
     21 C13        -6.1062   -6.4845    0.2345 C.2     1  NONAME1    -0.0311
     22 C14        -7.2656   -5.8209    0.2671 C.2     1  NONAME1    -0.0122
     23 C15        -7.4333   -4.3448    0.2131 C.2     1  NONAME1     0.1877
     24 O2         -8.5786   -3.9098    0.2450 O.2     1  NONAME1    -0.2872
     25 C16        -9.0337    2.7226    0.0000 C.3     1  NONAME1     0.1938
     26 O3         -7.4937    2.7226    0.0000 O.3     1  NONAME1    -0.3711
     27 C17        -9.0337    4.2626    0.0000 C.ar    1  NONAME1    -0.0026
     28 C18        -9.2438    5.0188    1.1743 C.ar    1  NONAME1    -0.0550
     29 C19        -9.1685    6.4132    1.1523 C.ar    1  NONAME1    -0.0614
     30 C20        -8.8318    7.0773   -0.0250 C.ar    1  NONAME1    -0.0617
     31 C21        -8.5743    6.3520   -1.1856 C.ar    1  NONAME1    -0.0614
     32 C22        -8.6758    4.9599   -1.1761 C.ar    1  NONAME1    -0.0550
     33 C23       -10.5737    2.7226    0.0000 C.ar    1  NONAME1    -0.0026
     34 C24       -11.3129    2.5361    1.1968 C.ar    1  NONAME1    -0.0550
     35 C25       -12.7091    2.5437    1.1881 C.ar    1  NONAME1    -0.0614
     36 C26       -13.3997    2.7538   -0.0034 C.ar    1  NONAME1    -0.0617
     37 C27       -12.7008    2.9439   -1.1934 C.ar    1  NONAME1    -0.0614
     38 C28       -11.3049    2.9179   -1.1984 C.ar    1  NONAME1    -0.0550
     39 H1         -6.8739    0.9282    0.0903 H       1  NONAME1     0.1773
     40 H2         -5.5453   -1.2414    0.1718 H       1  NONAME1     0.0852
     41 H3         -4.0787   -3.6358    0.0674 H       1  NONAME1     0.0647
     42 H4         -4.2652   -8.4232   -0.4953 H       1  NONAME1     0.1744
     43 H5         -0.9895   -7.0962    0.2953 H       1  NONAME1     0.0636
     44 H6          1.0694   -8.4464    0.3390 H       1  NONAME1     0.0618
     45 H7          1.1072  -10.8927    0.1747 H       1  NONAME1     0.0623
     46 H8         -3.2287  -10.7657   -0.0822 H       1  NONAME1     0.0642
     47 H9         -6.1068   -7.5649    0.3040 H       1  NONAME1     0.0640
     48 H10        -8.2012   -6.3648    0.3491 H       1  NONAME1     0.0656
     49 H11        -7.2610    3.1063    0.8668 H       1  NONAME1     0.2116
     50 H12        -9.4922    4.5282    2.1124 H       1  NONAME1     0.0621
     51 H13        -9.3716    6.9824    2.0560 H       1  NONAME1     0.0618
     52 H14        -8.7630    8.1618   -0.0363 H       1  NONAME1     0.0618
     53 H15        -8.2870    6.8690   -2.0974 H       1  NONAME1     0.0618
     54 H16        -8.4462    4.4059   -2.0846 H       1  NONAME1     0.0621
     55 H17       -10.7983    2.3425    2.1352 H       1  NONAME1     0.0621
     56 H18       -13.2588    2.3669    2.1086 H       1  NONAME1     0.0618
     57 H19       -14.4861    2.7512   -0.0079 H       1  NONAME1     0.0618
     58 H20       -13.2428    3.0992   -2.1223 H       1  NONAME1     0.0618
     59 H21       -10.7826    3.0480   -2.1434 H       1  NONAME1     0.0621
@<TRIPOS>BOND
     1     1     2    2
     2     2     3   am
     3     3     4    1
     4     4     5    2
     5     5     6    1
     6     6     7    2
     7     7     8    1
     8     8     9    2
     9     9    10    1
    10    10    11    1
    11    11    12   ar
    12    12    13   ar
    13    13    14   ar
    14    14    15   ar
    15    15    16    1
    16    16    17    1
    17    16    18    1
    18    16    19    1
    19    15    20   ar
    20    11    20   ar
    21     8    21    1
    22    21    22    2
    23    22    23    1
    24     6    23    1
    25    23    24    2
    26     2    25    1
    27    25    26    1
    28    25    27    1
    29    27    28   ar
    30    28    29   ar
    31    29    30   ar
    32    30    31   ar
    33    31    32   ar
    34    27    32   ar
    35    25    33    1
    36    33    34   ar
    37    34    35   ar
    38    35    36   ar
    39    36    37   ar
    40    37    38   ar
    41    33    38   ar
    42     3    39    1
    43     5    40    1
    44     7    41    1
    45    10    42    1
    46    12    43    1
    47    13    44    1
    48    14    45    1
    49    20    46    1
    50    21    47    1
    51    22    48    1
    52    26    49    1
    53    28    50    1
    54    29    51    1
    55    30    52    1
    56    31    53    1
    57    32    54    1
    58    34    55    1
    59    35    56    1
    60    36    57    1
    61    37    58    1
    62    38    59    1
