@<TRIPOS>MOLECULE
*****
 45 45 0 0 0
SMALL
USER_CHARGES

@<TRIPOS>ATOM
      1 C1          7.3302  -10.9875   -1.3803 C.3     1  NONAME1    -0.0416
      2 C2          6.8217  -12.3874   -1.1000 C.3     1  NONAME1     0.0455
      3 O1          7.4785  -12.9774    0.0191 O.3     1  NONAME1    -0.3708
      4 C3          8.7574  -13.5213   -0.2601 C.3     1  NONAME1     0.1251
      5 C4          9.9962  -12.7152    0.1834 C.2     1  NONAME1     0.2549
      6 O2          9.9624  -11.6194    0.7345 O.2     1  NONAME1    -0.2718
      7 N1         11.1827  -13.3879   -0.0775 N.am    1  NONAME1    -0.2313
      8 N2         12.3958  -12.9543    0.5092 N.am    1  NONAME1    -0.2181
      9 C5         13.5465  -13.2032   -0.2240 C.2     1  NONAME1     0.3167
     10 O3         13.5343  -13.5544   -1.3999 O.2     1  NONAME1    -0.2513
     11 N3         14.6956  -13.1935    0.5630 N.am    1  NONAME1    -0.2848
     12 C6         16.0041  -13.8600    0.0000 C.3     1  NONAME1     0.1067
     13 C7         15.2341  -15.1937    0.0000 C.3     1  NONAME1    -0.0353
     14 C8         16.7741  -12.5263    0.0000 C.3     1  NONAME1    -0.0353
     15 C9         17.3422  -14.4920    0.7221 C.2     1  NONAME1     0.2402
     16 O4         17.3510  -14.9691    1.8536 O.2     1  NONAME1    -0.2731
     17 N4         18.4684  -14.4213   -0.1238 N.am    1  NONAME1    -0.2837
     18 C10        19.7292  -14.9952    0.1078 C.ar    1  NONAME1     0.0334
     19 C11        20.8619  -14.2420   -0.2324 C.ar    1  NONAME1    -0.0405
     20 C12        22.1343  -14.8107   -0.1627 C.ar    1  NONAME1    -0.0600
     21 C13        22.2721  -16.1498    0.1931 C.ar    1  NONAME1    -0.0616
     22 C14        21.1421  -16.9023    0.5231 C.ar    1  NONAME1    -0.0600
     23 C15        19.8722  -16.3196    0.5069 C.ar    1  NONAME1    -0.0405
     24 H1          7.2891  -10.3742   -0.4738 H       1  NONAME1     0.0252
     25 H2          8.3728  -11.0067   -1.7130 H       1  NONAME1     0.0252
     26 H3          6.7300  -10.5087   -2.1573 H       1  NONAME1     0.0252
     27 H4          6.9046  -13.0284   -1.9847 H       1  NONAME1     0.0557
     28 H5          5.7579  -12.3304   -0.8484 H       1  NONAME1     0.0557
     29 H6          8.8008  -14.4621    0.3058 H       1  NONAME1     0.0657
     30 H7          8.8585  -13.7868   -1.3209 H       1  NONAME1     0.0657
     31 H8         11.2146  -14.2857   -0.5532 H       1  NONAME1     0.1729
     32 H9         12.3366  -12.0605    0.9949 H       1  NONAME1     0.1744
     33 H10        14.5624  -13.2326    1.5711 H       1  NONAME1     0.1513
     34 H11        15.2768  -15.4274    1.0854 H       1  NONAME1     0.0255
     35 H12        14.4641  -16.5274    0.0000 H       1  NONAME1     0.0255
     36 H13        15.9622  -15.7675   -0.6092 H       1  NONAME1     0.0255
     37 H14        16.5201  -12.1714    1.0250 H       1  NONAME1     0.0255
     38 H15        17.5441  -11.1926    0.0000 H       1  NONAME1     0.0255
     39 H16        16.1878  -12.0434   -0.8092 H       1  NONAME1     0.0255
     40 H17        18.4849  -13.6651   -0.7964 H       1  NONAME1     0.1549
     41 H18        20.7713  -13.1992   -0.5272 H       1  NONAME1     0.0636
     42 H19        23.0132  -14.2145   -0.4004 H       1  NONAME1     0.0618
     43 H20        23.2566  -16.6077    0.2105 H       1  NONAME1     0.0618
     44 H21        21.2507  -17.9554    0.7717 H       1  NONAME1     0.0618
     45 H22        18.9997  -16.9281    0.7347 H       1  NONAME1     0.0636
@<TRIPOS>BOND
     1     1     2    1
     2     2     3    1
     3     3     4    1
     4     4     5    1
     5     5     6    2
     6     5     7   am
     7     7     8    1
     8     8     9   am
     9     9    10    2
    10     9    11   am
    11    11    12    1
    12    12    13    1
    13    12    14    1
    14    12    15    1
    15    15    16    2
    16    15    17   am
    17    17    18    1
    18    18    19   ar
    19    19    20   ar
    20    20    21   ar
    21    21    22   ar
    22    22    23   ar
    23    18    23   ar
    24     1    24    1
    25     1    25    1
    26     1    26    1
    27     2    27    1
    28     2    28    1
    29     4    29    1
    30     4    30    1
    31     7    31    1
    32     8    32    1
    33    11    33    1
    34    13    34    1
    35    13    35    1
    36    13    36    1
    37    14    37    1
    38    14    38    1
    39    14    39    1
    40    17    40    1
    41    19    41    1
    42    20    42    1
    43    21    43    1
    44    22    44    1
    45    23    45    1
