REMARK  9 active torsions:
REMARK  status: ('A' for Active; 'I' for Inactive)
REMARK    1  A    between atoms: C6_6  and  C5_5 
REMARK    2  A    between atoms: C6_6  and  N1_7 
REMARK    3  A    between atoms: C6_6  and  C22_28 
REMARK    4  A    between atoms: N1_7  and  C7_8 
REMARK    5  A    between atoms: C7_8  and  C8_9 
REMARK       I    between atoms: C8_9  and  N2_11 
REMARK    6  A    between atoms: N2_11  and  C10_13 
REMARK    7  A    between atoms: C15_18  and  C16_19 
REMARK       I    between atoms: C16_19  and  N3_21 
REMARK    8  A    between atoms: N3_21  and  C17_22 
REMARK    9  A    between atoms: C17_22  and  C18_23 
ROOT
ATOM      1  C8  NON d   1       2.896  -6.341  -0.648  0.00  0.00     0.252 C 
ATOM      2  O1  NON d   1       3.032  -5.620  -1.638  0.00  0.00    -0.271 OA
ATOM      3  N2  NON d   1       4.001  -6.930   0.000  0.00  0.00    -0.320 N 
ATOM      4  C9  NON d   1       4.001  -8.470   0.000  0.00  0.00     0.159 C 
ENDROOT
BRANCH   1   5
ATOM      5  C7  NON d   1       1.510  -6.833  -0.146  0.00  0.00     0.373 C 
BRANCH   5   6
ATOM      6  N1  NON d   1       0.467  -5.793  -0.103  0.00  0.00     0.106 N 
ATOM      7  H7  NON d   1      -0.376  -6.155   0.331  0.00  0.00     0.317 HD
BRANCH   6   8
ATOM      8  C6  NON d   1       0.138  -5.247  -1.442  0.00  0.00     0.293 C 
BRANCH   8   9
ATOM      9  C5  NON d   1       0.751  -3.854  -1.627  0.00  0.00    -0.020 A 
ATOM     10  C4  NON d   1       1.401  -3.175  -0.572  0.00  0.00     0.010 A 
ATOM     11  C3  NON d   1       2.246  -2.088  -0.815  0.00  0.00     0.007 A 
ATOM     12  C2  NON d   1       2.426  -1.637  -2.119  0.00  0.00    -0.062 A 
ATOM     13  C1  NON d   1       3.349  -0.446  -2.438  0.00  0.00     0.048 C 
ATOM     14  C27 NON d   1       1.688  -2.226  -3.159  0.00  0.00     0.007 A 
ATOM     15  C26 NON d   1       0.884  -3.334  -2.921  0.00  0.00     0.010 A 
ENDBRANCH   8   9
BRANCH   8  16
ATOM     16  C22 NON d   1      -1.350  -5.448  -1.771  0.00  0.00     0.020 A 
ATOM     17  C23 NON d   1      -2.089  -6.610  -1.572  0.00  0.00     0.017 A 
ATOM     18  C24 NON d   1      -3.385  -6.564  -2.161  0.00  0.00     0.008 A 
ATOM     19  C25 NON d   1      -3.612  -5.368  -2.797  0.00  0.00     0.050 A 
ATOM     20  S1  NON d   1      -2.307  -4.285  -2.602  0.00  0.00    -0.104 SA
ENDBRANCH   8  16
ENDBRANCH   6   8
ENDBRANCH   5   6
ENDBRANCH   1   5
BRANCH   3  21
ATOM     21  C10 NON d   1       5.311  -6.306  -0.042  0.00  0.00     0.052 A 
ATOM     22  C11 NON d   1       5.377  -4.905  -0.189  0.00  0.00     0.031 A 
ATOM     23  C12 NON d   1       6.600  -4.222  -0.252  0.00  0.00     0.002 A 
ATOM     24  C13 NON d   1       7.798  -4.920  -0.158  0.00  0.00     0.001 A 
ATOM     25  C14 NON d   1       7.773  -6.298   0.026  0.00  0.00     0.019 A 
ATOM     26  C15 NON d   1       6.547  -6.984   0.096  0.00  0.00     0.058 A 
BRANCH  26  27
ATOM     27  C16 NON d   1       6.662  -8.418   0.431  0.00  0.00     0.254 C 
ATOM     28  O2  NON d   1       6.605  -8.765   1.603  0.00  0.00    -0.268 OA
ATOM     29  N3  NON d   1       6.756  -9.286  -0.638  0.00  0.00    -0.351 N 
ATOM     30  H17 NON d   1       6.752  -8.920  -1.582  0.00  0.00     0.163 HD
BRANCH  29  31
ATOM     31  C17 NON d   1       6.497 -10.701  -0.449  0.00  0.00     0.187 C 
BRANCH  31  32
ATOM     32  C18 NON d   1       7.726 -11.517  -0.388  0.00  0.00     0.070 A 
ATOM     33  C19 NON d   1       9.076 -11.253  -0.298  0.00  0.00     0.036 A 
ATOM     34  C20 NON d   1       9.722 -12.511  -0.199  0.00  0.00     0.027 A 
ATOM     35  C21 NON d   1       8.728 -13.459  -0.229  0.00  0.00     0.142 A 
ATOM     36  O3  NON d   1       7.516 -12.868  -0.361  0.00  0.00    -0.325 OA
ENDBRANCH  31  32
ENDBRANCH  29  31
ENDBRANCH  26  27
ENDBRANCH   3  21
TORSDOF 9
