@<TRIPOS>MOLECULE
*****
 46 49 0 0 0
SMALL
USER_CHARGES

@<TRIPOS>ATOM
      1 O1          6.7778   -3.1022   -0.3715 O.2     1  NONAME1    -0.2739
      2 C1          6.6633   -1.9061   -0.1159 C.2     1  NONAME1     0.2335
      3 C2          5.3690   -1.1077   -0.0628 C.3     1  NONAME1     0.0525
      4 C3          4.0753   -1.8641   -0.0098 C.ar    1  NONAME1    -0.0136
      5 C4          3.8526   -3.2259    0.0572 C.ar    1  NONAME1     0.0064
      6 N1          2.5028   -3.4530    0.0765 N.ar    1  NONAME1    -0.3604
      7 C5          1.8203   -2.2618    0.0414 C.ar    1  NONAME1     0.0467
      8 C6          0.4429   -2.0104    0.0504 C.ar    1  NONAME1    -0.0378
      9 C7          0.0272   -0.6766    0.0099 C.ar    1  NONAME1    -0.0598
     10 C8          0.9540    0.3612   -0.0387 C.ar    1  NONAME1    -0.0611
     11 C9          2.3275    0.0908   -0.0503 C.ar    1  NONAME1    -0.0523
     12 C10         2.7753   -1.2470   -0.0101 C.ar    1  NONAME1     0.0033
     13 N2          7.7767   -1.1139    0.1318 N.am    1  NONAME1    -0.2338
     14 N3          9.0410   -1.6976    0.0338 N.am    1  NONAME1    -0.2277
     15 C11        10.1653   -0.8991    0.0683 C.2     1  NONAME1     0.3006
     16 O2         10.1373    0.3201    0.1680 O.2     1  NONAME1    -0.2651
     17 C12        11.4809   -1.6909   -0.0236 C.2     1  NONAME1     0.2516
     18 O3         11.3843   -2.9162   -0.1006 O.2     1  NONAME1    -0.2816
     19 C13        12.7737   -1.0273   -0.0113 C.ar    1  NONAME1     0.0648
     20 C14        13.1051    0.3385    0.0273 C.ar    1  NONAME1     0.0608
     21 N4         14.4207    0.5532    0.0259 N.ar    1  NONAME1    -0.1741
     22 N5         14.9792   -0.6847   -0.0073 N.ar    1  NONAME1    -0.2392
     23 C15        16.3922   -0.8533   -0.0083 C.ar    1  NONAME1     0.0654
     24 C16        17.2210    0.2795    0.0157 C.ar    1  NONAME1    -0.0363
     25 C17        18.6102    0.1369    0.0173 C.ar    1  NONAME1    -0.0598
     26 C18        19.1812   -1.1335   -0.0040 C.ar    1  NONAME1    -0.0616
     27 C19        18.3652   -2.2634   -0.0272 C.ar    1  NONAME1    -0.0598
     28 C20        16.9734   -2.1291   -0.0298 C.ar    1  NONAME1    -0.0363
     29 C21        14.0041   -1.6587   -0.0365 C.ar    1  NONAME1     0.0422
     30 H1          5.4141   -0.4584    0.8216 H       1  NONAME1     0.0408
     31 H2          5.3596   -0.4601   -0.9488 H       1  NONAME1     0.0408
     32 H3          4.5384   -4.0634    0.0819 H       1  NONAME1     0.0810
     33 H4          2.0676   -4.3641    0.1130 H       1  NONAME1     0.1653
     34 H5         -0.2812   -2.8175    0.0881 H       1  NONAME1     0.0638
     35 H6         -1.0361   -0.4478    0.0164 H       1  NONAME1     0.0618
     36 H7          0.6097    1.3920   -0.0687 H       1  NONAME1     0.0618
     37 H8          3.0379    0.9106   -0.0893 H       1  NONAME1     0.0624
     38 H9          7.7364   -0.0989    0.2089 H       1  NONAME1     0.1728
     39 H10         9.0983   -2.7136   -0.0758 H       1  NONAME1     0.1732
     40 H11        12.4492    1.2007    0.0550 H       1  NONAME1     0.0855
     41 H12        16.7980    1.2827    0.0331 H       1  NONAME1     0.0639
     42 H13        19.2446    1.0195    0.0355 H       1  NONAME1     0.0618
     43 H14        20.2627   -1.2430   -0.0022 H       1  NONAME1     0.0618
     44 H15        18.8147   -3.2535   -0.0429 H       1  NONAME1     0.0618
     45 H16        16.3790   -3.0370   -0.0469 H       1  NONAME1     0.0639
     46 H17        14.2433   -2.7112   -0.0688 H       1  NONAME1     0.0838
@<TRIPOS>BOND
     1     1     2    2
     2     2     3    1
     3     3     4    1
     4     4     5   ar
     5     5     6   ar
     6     6     7   ar
     7     7     8   ar
     8     8     9   ar
     9     9    10   ar
    10    10    11   ar
    11    11    12   ar
    12     4    12   ar
    13     7    12   ar
    14     2    13   am
    15    13    14    1
    16    14    15   am
    17    15    16    2
    18    15    17    1
    19    17    18    2
    20    17    19    1
    21    19    20   ar
    22    20    21   ar
    23    21    22   ar
    24    22    23    1
    25    23    24   ar
    26    24    25   ar
    27    25    26   ar
    28    26    27   ar
    29    27    28   ar
    30    23    28   ar
    31    22    29   ar
    32    19    29   ar
    33     3    30    1
    34     3    31    1
    35     5    32    1
    36     6    33    1
    37     8    34    1
    38     9    35    1
    39    10    36    1
    40    11    37    1
    41    13    38    1
    42    14    39    1
    43    20    40    1
    44    24    41    1
    45    25    42    1
    46    26    43    1
    47    27    44    1
    48    28    45    1
    49    29    46    1
