REMARK  8 active torsions:
REMARK  status: ('A' for Active; 'I' for Inactive)
REMARK    1  A    between atoms: C2_2  and  C3_3 
REMARK    2  A    between atoms: C4_4  and  C3_3 
REMARK    3  A    between atoms: C4_4  and  C5_5 
REMARK    4  A    between atoms: C4_4  and  C14_20 
REMARK    5  A    between atoms: C5_5  and  C6_6 
REMARK    6  A    between atoms: C6_6  and  C7_7 
REMARK       I    between atoms: C7_7  and  N1_9 
REMARK    7  A    between atoms: N1_9  and  C8_10 
REMARK    8  A    between atoms: C10_12  and  N2_13 
ROOT
ATOM      1  C7  NON d   1      12.164 -10.278   0.335  0.00  0.00     0.222 C 
ATOM      2  O1  NON d   1      11.862 -10.826   1.394  0.00  0.00    -0.273 OA
ATOM      3  N1  NON d   1      13.444 -10.012  -0.175  0.00  0.00    -0.324 N 
ATOM      4  H13 NON d   1      13.457  -9.274  -0.860  0.00  0.00     0.169 HD
ENDROOT
BRANCH   3   5
ATOM      5  C8  NON d   1      14.726 -10.562   0.100  0.00  0.00     0.087 A 
ATOM      6  C9  NON d   1      15.782  -9.655  -0.157  0.00  0.00     0.069 A 
ATOM      7  C10 NON d   1      17.109 -10.062  -0.048  0.00  0.00     0.105 A 
ATOM      8  C11 NON d   1      17.426 -11.370   0.264  0.00  0.00     0.040 A 
ATOM      9  C12 NON d   1      16.379 -12.256   0.510  0.00  0.00     0.059 A 
ATOM     10  C13 NON d   1      15.003 -11.907   0.466  0.00  0.00     0.198 A 
ATOM     11  O4  NON d   1      14.149 -12.825   0.686  0.00  0.00    -0.286 OA
BRANCH   7  12
ATOM     12  N2  NON d   1      18.189  -9.089  -0.261  0.00  0.00    -0.116 N 
ATOM     13  O2  NON d   1      17.888  -7.889  -0.368  0.00  0.00    -0.532 OA
ATOM     14  O3  NON d   1      19.357  -9.511  -0.313  0.00  0.00    -0.532 OA
ENDBRANCH   7  12
ENDBRANCH   3   5
BRANCH   1  15
ATOM     15  C6  NON d   1      11.139  -9.419  -0.447  0.00  0.00     0.104 C 
BRANCH  15  16
ATOM     16  C5  NON d   1       9.632  -9.758  -0.386  0.00  0.00     0.024 C 
BRANCH  16  17
ATOM     17  C4  NON d   1       9.010 -10.986  -1.146  0.00  0.00     0.087 C 
BRANCH  17  18
ATOM     18  C3  NON d   1       7.751 -11.611  -1.812  0.00  0.00     0.015 C 
BRANCH  18  19
ATOM     19  C2  NON d   1       6.506 -10.762  -2.077  0.00  0.00    -0.004 C 
ATOM     20  C1  NON d   1       5.837 -10.154  -0.852  0.00  0.00     0.005 C 
ENDBRANCH  18  19
ENDBRANCH  17  18
BRANCH  17  21
ATOM     21  C14 NON d   1      10.026 -11.206  -2.282  0.00  0.00     0.177 C 
ATOM     22  O5  NON d   1      10.112 -10.239  -3.104  0.00  0.00    -0.648 OA
ATOM     23  O6  NON d   1      10.510 -12.365  -2.370  0.00  0.00    -0.648 OA
ENDBRANCH  17  21
ENDBRANCH  16  17
ENDBRANCH  15  16
ENDBRANCH   1  15
TORSDOF 8
