@<TRIPOS>MOLECULE
*****
 38 39 0 0 0
SMALL
USER_CHARGES

@<TRIPOS>ATOM
      1 N1          2.0499   -3.2488   -0.0579 N.2     1  NONAME1    -0.0975
      2 C1          0.9290   -2.5786   -0.0394 C.2     1  NONAME1     0.3345
      3 N2         -0.2560   -3.2960   -0.0404 N.pl3   1  NONAME1    -0.1079
      4 N3         -0.2454   -4.6622   -0.0410 N.2     1  NONAME1    -0.0994
      5 C2         -1.3827   -5.2848   -0.0255 C.2     1  NONAME1     0.0792
      6 C3         -1.4085   -6.7714   -0.0052 C.ar    1  NONAME1     0.0381
      7 C4         -0.1746   -7.4490    0.0182 C.ar    1  NONAME1    -0.0495
      8 C5         -0.1258   -8.8389    0.0604 C.ar    1  NONAME1    -0.0609
      9 C6         -1.3095   -9.5636    0.0885 C.ar    1  NONAME1    -0.0583
     10 C7         -2.5407   -8.9004    0.0640 C.ar    1  NONAME1    -0.0193
     11 C8         -2.6111   -7.4985    0.0032 C.ar    1  NONAME1     0.1293
     12 O1         -3.7923   -6.7965   -0.0590 O.3     1  NONAME1    -0.4891
     13 C9         -5.0001   -7.5742   -0.0375 C.3     1  NONAME1     0.1126
     14 C10        -6.2184   -6.6787   -0.2550 C.3     1  NONAME1     0.0783
     15 O2         -6.4841   -5.8993    0.9069 O.3     1  NONAME1    -0.3917
     16 C11         0.9853   -1.0813   -0.0198 C.ar    1  NONAME1     0.0671
     17 C12        -0.1641   -0.2839   -0.0126 C.ar    1  NONAME1    -0.0468
     18 C13        -0.0493    1.1119    0.0014 C.ar    1  NONAME1    -0.0609
     19 C14         1.2068    1.7189    0.0082 C.ar    1  NONAME1    -0.0617
     20 C15         2.3559    0.9350    0.0013 C.ar    1  NONAME1    -0.0609
     21 C16         2.2443   -0.4574   -0.0119 C.ar    1  NONAME1    -0.0468
     22 H1          1.7228   -4.2300   -0.0658 H       1  NONAME1     0.3634
     23 H2         -1.1373   -2.7996    0.0258 H       1  NONAME1     0.3274
     24 H3         -2.3462   -4.7465   -0.0203 H       1  NONAME1     0.0873
     25 H4          0.7619   -6.8943    0.0063 H       1  NONAME1     0.0625
     26 H5          0.8340   -9.3492    0.0766 H       1  NONAME1     0.0618
     27 H6         -1.2781  -10.6497    0.1295 H       1  NONAME1     0.0619
     28 H7         -3.4282   -9.5234    0.0931 H       1  NONAME1     0.0654
     29 H8         -4.9826   -8.3039   -0.8556 H       1  NONAME1     0.0720
     30 H9         -5.0866   -8.0791    0.9328 H       1  NONAME1     0.0720
     31 H10        -6.0611   -5.9997   -1.0982 H       1  NONAME1     0.0591
     32 H11        -7.0999   -7.3000   -0.4463 H       1  NONAME1     0.0591
     33 H12        -7.2953   -5.3926    0.7292 H       1  NONAME1     0.2095
     34 H13        -1.1581   -0.7135   -0.0213 H       1  NONAME1     0.0626
     35 H14        -0.9451    1.7291    0.0070 H       1  NONAME1     0.0618
     36 H15         1.2905    2.8028    0.0174 H       1  NONAME1     0.0618
     37 H16         3.3392    1.4005    0.0057 H       1  NONAME1     0.0618
     38 H17         3.1492   -1.0629   -0.0186 H       1  NONAME1     0.0626
@<TRIPOS>BOND
     1     1     2    2
     2     2     3    1
     3     3     4    1
     4     4     5    2
     5     5     6    1
     6     6     7   ar
     7     7     8   ar
     8     8     9   ar
     9     9    10   ar
    10    10    11   ar
    11     6    11   ar
    12    11    12    1
    13    12    13    1
    14    13    14    1
    15    14    15    1
    16     2    16    1
    17    16    17   ar
    18    17    18   ar
    19    18    19   ar
    20    19    20   ar
    21    20    21   ar
    22    16    21   ar
    23     1    22    1
    24     3    23    1
    25     5    24    1
    26     7    25    1
    27     8    26    1
    28     9    27    1
    29    10    28    1
    30    13    29    1
    31    13    30    1
    32    14    31    1
    33    14    32    1
    34    15    33    1
    35    17    34    1
    36    18    35    1
    37    19    36    1
    38    20    37    1
    39    21    38    1
