@<TRIPOS>MOLECULE
*****
 61 64 0 0 0
SMALL
USER_CHARGES

@<TRIPOS>ATOM
      1 C1          3.3489   -0.4463   -2.4377 C.3     1  NONAME1    -0.0397
      2 C2          2.4263   -1.6375   -2.1192 C.ar    1  NONAME1    -0.0504
      3 C3          2.2459   -2.0880   -0.8153 C.ar    1  NONAME1    -0.0585
      4 C4          1.4009   -3.1748   -0.5723 C.ar    1  NONAME1    -0.0565
      5 C5          0.7509   -3.8542   -1.6267 C.ar    1  NONAME1    -0.0256
      6 C6          0.1381   -5.2468   -1.4421 C.3     1  NONAME1     0.0650
      7 N1          0.4672   -5.7925   -0.1034 N.3     1  NONAME1    -0.2972
      8 C7          1.5096   -6.8334   -0.1463 C.3     1  NONAME1     0.0744
      9 C8          2.8964   -6.3408   -0.6485 C.2     1  NONAME1     0.2334
     10 O1          3.0323   -5.6199   -1.6378 O.2     1  NONAME1    -0.2739
     11 N2          4.0010   -6.9300    0.0000 N.am    1  NONAME1    -0.2727
     12 C9          4.0010   -8.4700    0.0000 C.3     1  NONAME1     0.0083
     13 C10         5.3111   -6.3057   -0.0422 C.ar    1  NONAME1     0.0481
     14 C11         5.3769   -4.9050   -0.1887 C.ar    1  NONAME1    -0.0395
     15 C12         6.6004   -4.2223   -0.2523 C.ar    1  NONAME1    -0.0600
     16 C13         7.7984   -4.9195   -0.1577 C.ar    1  NONAME1    -0.0609
     17 C14         7.7731   -6.2981    0.0265 C.ar    1  NONAME1    -0.0478
     18 C15         6.5468   -6.9844    0.0957 C.ar    1  NONAME1     0.0580
     19 C16         6.6615   -8.4180    0.4307 C.2     1  NONAME1     0.2462
     20 O2          6.6050   -8.7652    1.6029 O.2     1  NONAME1    -0.2701
     21 N3          6.7565   -9.2858   -0.6376 N.am    1  NONAME1    -0.3042
     22 C17         6.4966  -10.7014   -0.4488 C.3     1  NONAME1     0.0700
     23 C18         7.7262  -11.5165   -0.3880 C.ar    1  NONAME1     0.1218
     24 C19         9.0765  -11.2529   -0.2979 C.ar    1  NONAME1    -0.0192
     25 C20         9.7217  -12.5105   -0.1988 C.ar    1  NONAME1    -0.0236
     26 C21         8.7284  -13.4588   -0.2292 C.ar    1  NONAME1     0.0921
     27 O3          7.5156  -12.8681   -0.3607 O.2     1  NONAME1    -0.4662
     28 C22        -1.3497   -5.4484   -1.7709 C.ar    1  NONAME1     0.0111
     29 C23        -2.0894   -6.6099   -1.5717 C.ar    1  NONAME1    -0.0497
     30 C24        -3.3850   -6.5644   -2.1611 C.ar    1  NONAME1    -0.0544
     31 C25        -3.6122   -5.3678   -2.7966 C.ar    1  NONAME1    -0.0240
     32 S1         -2.3071   -4.2854   -2.6018 S.2     1  NONAME1    -0.0997
     33 C26         0.8838   -3.3342   -2.9213 C.ar    1  NONAME1    -0.0565
     34 C27         1.6880   -2.2258   -3.1593 C.ar    1  NONAME1    -0.0585
     35 H1          4.2582   -0.9328   -2.0242 H       1  NONAME1     0.0278
     36 H2          4.2714    0.7450   -2.7561 H       1  NONAME1     0.0278
     37 H3          3.3816   -0.6040   -3.5346 H       1  NONAME1     0.0278
     38 H4          2.7840   -1.6304    0.0097 H       1  NONAME1     0.0620
     39 H5          1.3327   -3.5494    0.4464 H       1  NONAME1     0.0621
     40 H6          0.6276   -5.8775   -2.2015 H       1  NONAME1     0.0565
     41 H7         -0.3761   -6.1549    0.3307 H       1  NONAME1     0.1233
     42 H8          1.1815   -7.6674   -0.7773 H       1  NONAME1     0.0520
     43 H9          1.6275   -7.2116    0.8740 H       1  NONAME1     0.0520
     44 H10         3.1835   -8.6049   -0.7273 H       1  NONAME1     0.0433
     45 H11         4.0010  -10.0100    0.0000 H       1  NONAME1     0.0433
     46 H12         3.6172   -8.5424    1.0352 H       1  NONAME1     0.0433
     47 H13         4.4740   -4.3060   -0.2522 H       1  NONAME1     0.0636
     48 H14         6.6003   -3.1402   -0.3708 H       1  NONAME1     0.0618
     49 H15         8.7430   -4.3848   -0.1983 H       1  NONAME1     0.0618
     50 H16         8.7101   -6.8357    0.1485 H       1  NONAME1     0.0626
     51 H17         6.7515   -8.9198   -1.5818 H       1  NONAME1     0.1495
     52 H18         5.9326  -10.8584    0.4761 H       1  NONAME1     0.0543
     53 H19         5.8707  -11.0275   -1.2872 H       1  NONAME1     0.0543
     54 H20         9.5314  -10.2756   -0.2762 H       1  NONAME1     0.0652
     55 H21        10.7794  -12.6974   -0.0919 H       1  NONAME1     0.0649
     56 H22         8.7161  -14.5379   -0.1666 H       1  NONAME1     0.1029
     57 H23        -1.6975   -7.4830   -1.0647 H       1  NONAME1     0.0626
     58 H24        -4.0989   -7.3789   -2.1474 H       1  NONAME1     0.0623
     59 H25        -4.4878   -5.0725   -3.3590 H       1  NONAME1     0.0693
     60 H26         0.4113   -3.8231   -3.7693 H       1  NONAME1     0.0621
     61 H27         1.7635   -1.8518   -4.1779 H       1  NONAME1     0.0620
@<TRIPOS>BOND
     1     1     2    1
     2     2     3   ar
     3     3     4   ar
     4     4     5   ar
     5     6     5    1
     6     6     7    1
     7     7     8    1
     8     8     9    1
     9     9    10    2
    10     9    11   am
    11    11    12    1
    12    11    13    1
    13    13    14   ar
    14    14    15   ar
    15    15    16   ar
    16    16    17   ar
    17    17    18   ar
    18    13    18   ar
    19    18    19    1
    20    19    20    2
    21    19    21   am
    22    21    22    1
    23    22    23    1
    24    23    24   ar
    25    24    25   ar
    26    25    26   ar
    27    26    27   ar
    28    23    27   ar
    29     6    28    1
    30    28    29   ar
    31    29    30   ar
    32    30    31   ar
    33    31    32   ar
    34    28    32   ar
    35     5    33   ar
    36    33    34   ar
    37     2    34   ar
    38     1    35    1
    39     1    36    1
    40     1    37    1
    41     3    38    1
    42     4    39    1
    43     6    40    1
    44     7    41    1
    45     8    42    1
    46     8    43    1
    47    12    44    1
    48    12    45    1
    49    12    46    1
    50    14    47    1
    51    15    48    1
    52    16    49    1
    53    17    50    1
    54    21    51    1
    55    22    52    1
    56    22    53    1
    57    24    54    1
    58    25    55    1
    59    26    56    1
    60    29    57    1
    61    30    58    1
    62    31    59    1
    63    33    60    1
    64    34    61    1
