REMARK  6 active torsions:
REMARK  status: ('A' for Active; 'I' for Inactive)
REMARK    1  A    between atoms: C2_2  and  C3_3 
REMARK    2  A    between atoms: C6_6  and  C7_7 
REMARK    3  A    between atoms: C7_7  and  C8_8 
REMARK    4  A    between atoms: C10_12  and  N2_13 
REMARK    5  A    between atoms: N2_13  and  C11_14 
REMARK    6  A    between atoms: C15_18  and  N3_19 
ROOT
ATOM      1  C8  NON d   1       7.388  -7.298  -0.056  0.00  0.00     0.085 A 
ATOM      2  C9  NON d   1       7.486  -8.826   0.000  0.00  0.00     0.295 A 
ATOM      3  O1  NON d   1       8.597  -9.351   0.101  0.00  0.00    -0.265 OA
ATOM      4  N1  NON d   1       6.337  -9.613  -0.062  0.00  0.00    -0.023 NA
ATOM      5  C10 NON d   1       5.186  -9.003  -0.080  0.00  0.00     0.711 A 
ATOM      6  N4  NON d   1       5.100  -7.661  -0.080  0.00  0.00    -0.153 N 
ATOM      7  C17 NON d   1       6.139  -6.803  -0.148  0.00  0.00     0.271 A 
ATOM      8  O2  NON d   1       5.604  -5.676  -0.245  0.00  0.00    -0.267 OA
ATOM      9  H17 NON d   1       4.318  -7.177   0.327  0.00  0.00     0.187 HD
ENDROOT
BRANCH   5  10
ATOM     10  N2  NON d   1       4.013  -9.723  -0.124  0.00  0.00    -0.190 N 
ATOM     11  H10 NON d   1       4.187 -10.720  -0.119  0.00  0.00     0.184 HD
BRANCH  10  12
ATOM     12  C11 NON d   1       2.660  -9.340  -0.204  0.00  0.00     0.051 A 
ATOM     13  C12 NON d   1       1.675 -10.285   0.120  0.00  0.00     0.030 A 
ATOM     14  C13 NON d   1       0.324  -9.929   0.214  0.00  0.00     0.004 A 
ATOM     15  C14 NON d   1      -0.070  -8.606   0.017  0.00  0.00     0.023 A 
ATOM     16  C15 NON d   1       0.867  -7.652  -0.360  0.00  0.00     0.008 A 
ATOM     17  C16 NON d   1       2.209  -8.039  -0.482  0.00  0.00     0.053 A 
BRANCH  16  18
ATOM     18  N3  NON d   1       0.535  -6.292  -0.372  0.00  0.00    -0.303 NA
ATOM     19  H14 NON d   1       1.243  -5.697  -0.800  0.00  0.00     0.124 HD
ATOM     20  H15 NON d   1      -0.409  -6.073  -0.659  0.00  0.00     0.124 HD
ENDBRANCH  16  18
ENDBRANCH  10  12
ENDBRANCH   5  10
BRANCH   1  21
ATOM     21  C7  NON d   1       8.741  -6.612   0.019  0.00  0.00     0.088 C 
BRANCH  21  22
ATOM     22  C6  NON d   1       8.913  -5.101   0.118  0.00  0.00    -0.054 C 
ATOM     23  C5  NON d   1      10.056  -4.494  -0.425  0.00  0.00     0.008 C 
ATOM     24  C4  NON d   1      10.208  -3.099  -0.416  0.00  0.00     0.007 C 
ATOM     25  C3  NON d   1       9.207  -2.269   0.110  0.00  0.00    -0.059 C 
ATOM     26  C19 NON d   1       8.133  -2.879   0.754  0.00  0.00     0.007 C 
ATOM     27  C18 NON d   1       8.025  -4.271   0.802  0.00  0.00     0.008 C 
BRANCH  25  28
ATOM     28  C2  NON d   1       9.336  -0.770   0.000  0.00  0.00     0.034 C 
ATOM     29  C1  NON d   1       8.002   0.000   0.000  0.00  0.00     0.010 C 
ENDBRANCH  25  28
ENDBRANCH  21  22
ENDBRANCH   1  21
TORSDOF 6
