REMARK  7 active torsions:
REMARK  status: ('A' for Active; 'I' for Inactive)
REMARK    1  A    between atoms: C2_2  and  C5_5 
REMARK    2  A    between atoms: C5_5  and  N1_6 
REMARK    3  A    between atoms: C6_7  and  N1_6 
REMARK    4  A    between atoms: C6_7  and  O1_8 
REMARK    5  A    between atoms: C6_7  and  C7_9 
REMARK    6  A    between atoms: C7_9  and  O2_10 
REMARK    7  A    between atoms: N2_11  and  O2_10 
ROOT
ATOM      1  O2  NON d   1       4.985  -4.786  -0.065  0.00  0.00    -0.252 OA
ENDROOT
BRANCH   1   2
ATOM      2  C7  NON d   1       3.759  -4.022   0.095  0.00  0.00     0.265 C 
BRANCH   2   3
ATOM      3  C6  NON d   1       2.683  -4.710  -0.786  0.00  0.00     0.345 C 
BRANCH   3   4
ATOM      4  N1  NON d   1       1.247  -4.290  -0.674  0.00  0.00    -0.046 N 
ATOM      5  H12 NON d   1       0.758  -5.022  -1.201  0.00  0.00     0.280 HD
ATOM      6  H13 NON d   1       1.178  -3.454  -1.265  0.00  0.00     0.280 HD
BRANCH   4   7
ATOM      7  C5  NON d   1       0.411  -3.992   0.559  0.00  0.00     0.243 C 
BRANCH   7   8
ATOM      8  C2  NON d   1      -0.317  -5.285   1.468  0.00  0.00    -0.027 C 
ATOM      9  C1  NON d   1      -0.629  -6.555   0.458  0.00  0.00     0.016 C 
ATOM     10  C3  NON d   1      -1.739  -4.772   1.178  0.00  0.00     0.016 C 
ATOM     11  C4  NON d   1       1.106  -5.799   1.759  0.00  0.00     0.016 C 
ENDBRANCH   7   8
ENDBRANCH   4   7
ENDBRANCH   3   4
BRANCH   3  12
ATOM     12  O1  NON d   1       2.784  -6.117  -0.755  0.00  0.00    -0.368 OA
ATOM     13  H15 NON d   1       3.735  -6.323  -0.659  0.00  0.00     0.212 HD
ENDBRANCH   3  12
ENDBRANCH   2   3
ENDBRANCH   1   2
BRANCH   1  14
ATOM     14  N2  NON d   1       6.110  -3.946   0.036  0.00  0.00    -0.137 NA
ATOM     15  C8  NON d   1       7.249  -4.594   0.038  0.00  0.00     0.077 A 
ATOM     16  C9  NON d   1       8.594  -3.787   0.086  0.00  0.00     0.102 A 
ATOM     17  C18 NON d   1       7.577  -6.005  -0.005  0.00  0.00     0.003 A 
ATOM     18  C10 NON d   1       9.592  -4.903   0.047  0.00  0.00    -0.040 A 
ATOM     19  C11 NON d   1      10.984  -4.814   0.061  0.00  0.00     0.008 A 
ATOM     20  C19 NON d   1       8.961  -6.133  -0.003  0.00  0.00    -0.007 A 
ATOM     21  C12 NON d   1      11.697  -6.026   0.025  0.00  0.00     0.001 A 
ATOM     22  C13 NON d   1      11.046  -7.271  -0.025  0.00  0.00     0.012 A 
ATOM     23  C14 NON d   1       9.642  -7.329  -0.038  0.00  0.00    -0.025 A 
ATOM     24  C15 NON d   1       8.867  -8.494  -0.081  0.00  0.00     0.012 A 
ATOM     25  C16 NON d   1       7.467  -8.401  -0.075  0.00  0.00     0.002 A 
ATOM     26  C17 NON d   1       6.800  -7.164  -0.030  0.00  0.00     0.014 A 
ENDBRANCH   1  14
TORSDOF 7
