REMARK  8 active torsions:
REMARK  status: ('A' for Active; 'I' for Inactive)
REMARK    1  A    between atoms: C2_2  and  O1_3 
REMARK    2  A    between atoms: C2_2  and  C9_11 
REMARK    3  A    between atoms: O1_3  and  C3_4 
REMARK       I    between atoms: C9_11  and  N1_13 
REMARK    4  A    between atoms: N1_13  and  N2_14 
REMARK       I    between atoms: N2_14  and  C10_15 
REMARK    5  A    between atoms: C10_15  and  C11_17 
REMARK    6  A    between atoms: C11_17  and  N3_18 
REMARK       I    between atoms: N3_18  and  C12_19 
REMARK       I    between atoms: C12_19  and  N4_21 
REMARK    7  A    between atoms: N4_21  and  C13_22 
REMARK    8  A    between atoms: C13_22  and  C14_23 
ROOT
ATOM      1  N2  NON d   1       6.509  -2.378   0.209  0.00  0.00    -0.266 N 
ATOM      2  C10 NON d   1       7.711  -3.081   0.087  0.00  0.00     0.253 C 
ATOM      3  O3  NON d   1       7.739  -4.303  -0.077  0.00  0.00    -0.270 OA
ATOM      4  H10 NON d   1       6.456  -1.373   0.377  0.00  0.00     0.190 HD
ENDROOT
BRANCH   1   5
ATOM      5  N1  NON d   1       5.245  -3.050   0.029  0.00  0.00    -0.265 N 
ATOM      6  C9  NON d   1       4.059  -2.386   0.363  0.00  0.00     0.265 C 
ATOM      7  O2  NON d   1       4.106  -1.244   0.831  0.00  0.00    -0.269 OA
ATOM      8  H9  NON d   1       5.311  -4.039  -0.199  0.00  0.00     0.190 HD
BRANCH   6   9
ATOM      9  C2  NON d   1       2.667  -3.080   0.000  0.00  0.00     0.218 C 
ATOM     10  C1  NON d   1       2.667  -4.620   0.000  0.00  0.00     0.050 C 
BRANCH   9  11
ATOM     11  O1  NON d   1       1.585  -2.650   0.868  0.00  0.00    -0.337 OA
BRANCH  11  12
ATOM     12  C3  NON d   1       0.326  -3.060   0.479  0.00  0.00     0.070 A 
ATOM     13  C4  NON d   1      -0.092  -4.400   0.535  0.00  0.00     0.040 A 
ATOM     14  C5  NON d   1      -1.382  -4.769   0.142  0.00  0.00     0.045 A 
ATOM     15  C6  NON d   1      -2.283  -3.787  -0.237  0.00  0.00     0.116 A 
ATOM     16  F1  NON d   1      -3.526  -4.134  -0.593  0.00  0.00    -0.206 F 
ATOM     17  C7  NON d   1      -1.913  -2.447  -0.222  0.00  0.00     0.045 A 
ATOM     18  C8  NON d   1      -0.607  -2.082   0.135  0.00  0.00     0.040 A 
ENDBRANCH  11  12
ENDBRANCH   9  11
ENDBRANCH   6   9
ENDBRANCH   1   5
BRANCH   2  19
ATOM     19  C11 NON d   1       9.001  -2.206   0.137  0.00  0.00     0.228 C 
BRANCH  19  20
ATOM     20  N3  NON d   1      10.306  -2.905   0.135  0.00  0.00    -0.334 N 
ATOM     21  C12 NON d   1      11.470  -2.171   0.052  0.00  0.00     0.316 C 
ATOM     22  O4  NON d   1      11.476  -0.961  -0.116  0.00  0.00    -0.247 OA
ATOM     23  N4  NON d   1      12.626  -2.937   0.166  0.00  0.00    -0.343 N 
ATOM     24  H14 NON d   1      12.523  -3.892  -0.142  0.00  0.00     0.164 HD
ATOM     25  H13 NON d   1      10.351  -3.797   0.604  0.00  0.00     0.164 HD
BRANCH  23  26
ATOM     26  C13 NON d   1      13.924  -2.306  -0.105  0.00  0.00     0.129 C 
BRANCH  26  27
ATOM     27  C14 NON d   1      15.174  -3.072   0.373  0.00  0.00     0.003 C 
ATOM     28  C15 NON d   1      16.471  -2.323   0.017  0.00  0.00     0.006 C 
ATOM     29  C16 NON d   1      17.583  -3.369   0.070  0.00  0.00     0.000 C 
ATOM     30  C17 NON d   1      16.894  -4.723  -0.068  0.00  0.00     0.000 C 
ATOM     31  C18 NON d   1      15.410  -4.428  -0.291  0.00  0.00     0.006 C 
ENDBRANCH  26  27
ENDBRANCH  23  26
ENDBRANCH  19  20
ENDBRANCH   2  19
TORSDOF 8
