@<TRIPOS>MOLECULE
*****
 51 52 0 0 0
SMALL
USER_CHARGES

@<TRIPOS>ATOM
      1 C1          1.9074   -3.6236   -0.8535 C.3     1  NONAME1     0.0788
      2 O1          2.6084   -4.4103    0.1042 O.3     1  NONAME1    -0.4951
      3 C2          2.4367   -5.7634    0.0222 C.ar    1  NONAME1     0.1202
      4 C3          3.3573   -6.5264    0.7388 C.ar    1  NONAME1    -0.0182
      5 C4          3.3133   -7.9291    0.7047 C.ar    1  NONAME1    -0.0334
      6 C5          2.3100   -8.6210    0.0000 C.ar    1  NONAME1     0.0896
      7 S1          2.3100  -10.1610    0.0000 S.O2    1  NONAME1     0.0114
      8 O2          1.9571  -10.1699   -1.4352 O.2     1  NONAME1    -0.1683
      9 O3          1.5348  -10.0148    1.2450 O.2     1  NONAME1    -0.1683
     10 C6          2.3100  -11.7010    0.0000 C.3     1  NONAME1     0.1741
     11 C7          0.7700  -11.7010    0.0000 C.3     1  NONAME1     0.0080
     12 C8         -0.4463  -12.7800   -0.2377 C.ar    1  NONAME1    -0.0267
     13 C9         -0.4605  -14.1663   -0.5210 C.ar    1  NONAME1    -0.0556
     14 C10        -1.6278  -14.9334   -0.4242 C.ar    1  NONAME1    -0.0433
     15 C11        -2.8031  -14.3060   -0.0902 C.ar    1  NONAME1     0.0276
     16 N1         -2.8893  -12.9828    0.1245 N.ar    1  NONAME1    -0.2630
     17 C12        -1.7261  -12.2732    0.0571 C.ar    1  NONAME1     0.0308
     18 C13         2.3100  -13.2410    0.0000 C.3     1  NONAME1    -0.0161
     19 C14         2.4462  -13.8579    1.4566 C.3     1  NONAME1    -0.0442
     20 C15         3.9040  -14.2700    1.7895 C.3     1  NONAME1    -0.0626
     21 C16         1.6028  -15.1003    1.7313 C.3     1  NONAME1    -0.0626
     22 C17         3.8500  -11.7010    0.0000 C.2     1  NONAME1     0.2635
     23 O4          4.5345  -11.3927    0.9816 O.2     1  NONAME1    -0.2713
     24 N2          4.4745  -11.9286   -1.2131 N.am    1  NONAME1    -0.1957
     25 O5          5.8855  -11.8991   -1.2019 O.3     1  NONAME1    -0.2951
     26 C18         1.3629   -7.8123   -0.6742 C.ar    1  NONAME1    -0.0334
     27 C19         1.4333   -6.4122   -0.6850 C.ar    1  NONAME1    -0.0182
     28 H1          2.2618   -2.5923   -0.7639 H       1  NONAME1     0.0660
     29 H2          0.8313   -3.6260   -0.6516 H       1  NONAME1     0.0660
     30 H3          2.1169   -3.9589   -1.8753 H       1  NONAME1     0.0660
     31 H4          4.1201   -6.0268    1.3318 H       1  NONAME1     0.0655
     32 H5          4.0529   -8.4756    1.2911 H       1  NONAME1     0.0638
     33 H6          0.4954  -11.6741    1.0770 H       1  NONAME1     0.0340
     34 H7          0.2340  -10.8947   -0.5393 H       1  NONAME1     0.0340
     35 H8          0.3912  -14.7877   -0.7619 H       1  NONAME1     0.0621
     36 H9         -1.5949  -16.0106   -0.5602 H       1  NONAME1     0.0633
     37 H10        -3.7251  -14.8659    0.0239 H       1  NONAME1     0.0829
     38 H11        -1.8583  -11.2197    0.3013 H       1  NONAME1     0.0832
     39 H12         1.6989  -13.6752   -0.7637 H       1  NONAME1     0.0294
     40 H13         3.2036  -13.6746   -0.4843 H       1  NONAME1     0.0294
     41 H14         2.1509  -13.0989    2.1921 H       1  NONAME1     0.0296
     42 H15         4.5651  -13.4176    1.9267 H       1  NONAME1     0.0232
     43 H16         4.3317  -14.9037    1.0052 H       1  NONAME1     0.0232
     44 H17         3.9619  -14.8242    2.7287 H       1  NONAME1     0.0232
     45 H18         1.7801  -15.8798    0.9851 H       1  NONAME1     0.0232
     46 H19         1.8511  -15.5235    2.7138 H       1  NONAME1     0.0232
     47 H20         0.5417  -14.8596    1.7781 H       1  NONAME1     0.0232
     48 H21         4.0185  -12.1686   -2.0899 H       1  NONAME1     0.1823
     49 H22         6.0945  -11.7209   -0.2588 H       1  NONAME1     0.2414
     50 H23         0.5510   -8.2772   -1.2354 H       1  NONAME1     0.0638
     51 H24         0.6817   -5.8690   -1.2482 H       1  NONAME1     0.0655
@<TRIPOS>BOND
     1     1     2    1
     2     2     3    1
     3     3     4   ar
     4     4     5   ar
     5     5     6   ar
     6     6     7    1
     7     7     8    2
     8     7     9    2
     9    10     7    1
    10    10    11    1
    11    11    12    1
    12    12    13   ar
    13    13    14   ar
    14    14    15   ar
    15    15    16   ar
    16    16    17   ar
    17    12    17   ar
    18    10    18    1
    19    18    19    1
    20    19    20    1
    21    19    21    1
    22    10    22    1
    23    22    23    2
    24    22    24   am
    25    24    25    1
    26     6    26   ar
    27    26    27   ar
    28     3    27   ar
    29     1    28    1
    30     1    29    1
    31     1    30    1
    32     4    31    1
    33     5    32    1
    34    11    33    1
    35    11    34    1
    36    13    35    1
    37    14    36    1
    38    15    37    1
    39    17    38    1
    40    18    39    1
    41    18    40    1
    42    19    41    1
    43    20    42    1
    44    20    43    1
    45    20    44    1
    46    21    45    1
    47    21    46    1
    48    21    47    1
    49    24    48    1
    50    25    49    1
    51    26    50    1
    52    27    51    1
