REMARK  7 active torsions:
REMARK  status: ('A' for Active; 'I' for Inactive)
REMARK    1  A    between atoms: C5_5  and  S1_6 
REMARK    2  A    between atoms: S1_6  and  N1_9 
REMARK    3  A    between atoms: N1_9  and  C6_10 
REMARK    4  A    between atoms: N1_9  and  C8_15 
REMARK    5  A    between atoms: C6_10  and  C7_11 
REMARK       I    between atoms: C7_11  and  N2_13 
REMARK    6  A    between atoms: N2_13  and  O4_14 
REMARK    7  A    between atoms: C8_15  and  C9_16 
ROOT
ATOM      1  N1  NON d   1       3.437  -3.286   0.000  0.00  0.00    -0.294 N 
ENDROOT
BRANCH   1   2
ATOM      2  S1  NON d   1       2.667  -4.620   0.000  0.00  0.00     0.261 S 
ATOM      3  O1  NON d   1       2.614  -4.508  -1.470  0.00  0.00    -0.200 OA
ATOM      4  O2  NON d   1       1.577  -4.027   0.793  0.00  0.00    -0.200 OA
BRANCH   2   5
ATOM      5  C5  NON d   1       1.897  -5.954   0.000  0.00  0.00     0.079 A 
ATOM      6  C4  NON d   1       1.735  -6.653   1.219  0.00  0.00     0.026 A 
ATOM      7  C3  NON d   1       1.037  -7.871   1.316  0.00  0.00     0.008 A 
ATOM      8  C2  NON d   1       0.497  -8.473   0.180  0.00  0.00    -0.062 A 
ATOM      9  C1  NON d   1      -0.238  -9.777   0.265  0.00  0.00     0.048 C 
ATOM     10  C16 NON d   1       0.695  -7.857  -1.049  0.00  0.00     0.008 A 
ATOM     11  C15 NON d   1       1.366  -6.628  -1.128  0.00  0.00     0.026 A 
ENDBRANCH   2   5
ENDBRANCH   1   2
BRANCH   1  12
ATOM     12  C6  NON d   1       4.829  -3.369  -0.539  0.00  0.00     0.240 C 
BRANCH  12  13
ATOM     13  C7  NON d   1       5.740  -4.038   0.489  0.00  0.00     0.259 C 
ATOM     14  O3  NON d   1       5.421  -5.040   1.126  0.00  0.00    -0.270 OA
ATOM     15  N2  NON d   1       6.969  -3.438   0.642  0.00  0.00    -0.236 N 
ATOM     16  H8  NON d   1       7.343  -2.723   0.024  0.00  0.00     0.197 HD
BRANCH  15  17
ATOM     17  O4  NON d   1       7.881  -4.063   1.517  0.00  0.00    -0.287 OA
ATOM     18  H9  NON d   1       7.378  -4.843   1.837  0.00  0.00     0.244 HD
ENDBRANCH  15  17
ENDBRANCH  12  13
ENDBRANCH   1  12
BRANCH   1  19
ATOM     19  C8  NON d   1       2.748  -1.963  -0.117  0.00  0.00     0.174 C 
BRANCH  19  20
ATOM     20  C9  NON d   1       3.499  -0.636   0.005  0.00  0.00    -0.040 A 
ATOM     21  C10 NON d   1       2.841   0.512  -0.481  0.00  0.00     0.009 A 
ATOM     22  C11 NON d   1       3.423   1.778  -0.400  0.00  0.00     0.001 A 
ATOM     23  C12 NON d   1       4.688   1.923   0.155  0.00  0.00     0.000 A 
ATOM     24  C13 NON d   1       5.338   0.811   0.686  0.00  0.00     0.001 A 
ATOM     25  C14 NON d   1       4.725  -0.448   0.655  0.00  0.00     0.009 A 
ENDBRANCH  19  20
ENDBRANCH   1  19
TORSDOF 7
