@<TRIPOS>MOLECULE
*****
 46 47 0 0 0
SMALL
USER_CHARGES

@<TRIPOS>ATOM
      1 C1          6.0585   -0.2727   -2.6349 C.3     1  NONAME1    -0.0653
      2 C2          5.1411   -0.7219   -1.4824 C.3     1  NONAME1    -0.0559
      3 C3          3.7828   -0.0660   -1.3399 C.3     1  NONAME1    -0.0529
      4 C4          3.0605   -0.5673   -0.0704 C.3     1  NONAME1    -0.0471
      5 C5          2.4109   -1.9559   -0.1740 C.3     1  NONAME1    -0.0021
      6 C6          3.3231   -3.1357   -0.0229 C.ar    1  NONAME1     0.1037
      7 N1          4.3428   -3.2372    0.8070 N.ar    1  NONAME1    -0.1446
      8 N2          4.9366   -4.4934    0.7515 N.ar    1  NONAME1    -0.1239
      9 C7          4.3400   -5.3072   -0.1015 C.ar    1  NONAME1     0.2080
     10 N3          4.6196   -6.6016   -0.3984 N.am    1  NONAME1    -0.1451
     11 C8          5.7179   -7.1044    0.1673 C.2     1  NONAME1     0.3244
     12 O1          5.7724   -7.9882    1.0257 O.2     1  NONAME1    -0.2629
     13 C9          7.0732   -6.6500   -0.4567 C.2     1  NONAME1     0.3013
     14 O2          7.1908   -5.8110   -1.3388 O.2     1  NONAME1    -0.2651
     15 N4          8.1398   -7.3419    0.1041 N.am    1  NONAME1    -0.3034
     16 C10         9.4468   -6.7459    0.0753 C.3     1  NONAME1     0.0373
     17 C11        10.6222   -7.6959    0.0073 C.ar    1  NONAME1    -0.0301
     18 C12        11.9116   -7.1336   -0.0091 C.ar    1  NONAME1    -0.0536
     19 C13        13.0448   -7.9268   -0.1965 C.ar    1  NONAME1    -0.0194
     20 C14        12.9080   -9.3034   -0.3434 C.ar    1  NONAME1     0.1269
     21 O3         14.0228  -10.0114   -0.6945 O.3     1  NONAME1    -0.4342
     22 C15        14.3900  -10.9866    0.2713 C.3     1  NONAME1     0.3893
     23 F1         15.5450  -11.5553   -0.1649 F       1  NONAME1    -0.1663
     24 F2         13.4693  -11.9798    0.3064 F       1  NONAME1    -0.1663
     25 C16        11.6414   -9.8856   -0.3040 C.ar    1  NONAME1    -0.0194
     26 C17        10.5025   -9.0861   -0.1255 C.ar    1  NONAME1    -0.0536
     27 S1          3.0031   -4.5771   -0.9072 S.2     1  NONAME1    -0.0336
     28 H1          6.9152   -0.9122   -2.3366 H       1  NONAME1     0.0230
     29 H2          6.9758    0.1765   -3.7875 H       1  NONAME1     0.0230
     30 H3          6.2227    0.7505   -2.2386 H       1  NONAME1     0.0230
     31 H4          4.9869   -1.7961   -1.6326 H       1  NONAME1     0.0263
     32 H5          5.6930   -0.6169   -0.5376 H       1  NONAME1     0.0263
     33 H6          3.9194    1.0186   -1.2538 H       1  NONAME1     0.0265
     34 H7          3.1680   -0.2463   -2.2281 H       1  NONAME1     0.0265
     35 H8          3.7340   -0.5196    0.7946 H       1  NONAME1     0.0269
     36 H9          2.2528    0.1476    0.1341 H       1  NONAME1     0.0269
     37 H10         1.8504   -2.0154   -1.1144 H       1  NONAME1     0.0334
     38 H11         1.6687   -2.0347    0.6325 H       1  NONAME1     0.0334
     39 H12         7.8508   -7.9153    0.8917 H       1  NONAME1     0.1495
     40 H13         9.5275   -6.1463    0.9895 H       1  NONAME1     0.0512
     41 H14         9.5176   -6.0636   -0.7795 H       1  NONAME1     0.0512
     42 H15        12.0273   -6.0533    0.0725 H       1  NONAME1     0.0622
     43 H16        14.0227   -7.4589   -0.2653 H       1  NONAME1     0.0654
     44 H17        14.5566  -10.5667    1.2676 H       1  NONAME1     0.1520
     45 H18        11.5133  -10.9520   -0.4692 H       1  NONAME1     0.0654
     46 H19         9.5212   -9.5556   -0.1426 H       1  NONAME1     0.0622
@<TRIPOS>BOND
     1     1     2    1
     2     2     3    1
     3     3     4    1
     4     4     5    1
     5     5     6    1
     6     6     7   ar
     7     7     8   ar
     8     8     9   ar
     9     9    10    1
    10    10    11   am
    11    11    12    2
    12    11    13    1
    13    13    14    2
    14    13    15   am
    15    15    16    1
    16    16    17    1
    17    17    18   ar
    18    18    19   ar
    19    19    20   ar
    20    20    21    1
    21    21    22    1
    22    22    23    1
    23    22    24    1
    24    20    25   ar
    25    25    26   ar
    26    17    26   ar
    27     9    27   ar
    28     6    27   ar
    29     1    28    1
    30     1    29    1
    31     1    30    1
    32     2    31    1
    33     2    32    1
    34     3    33    1
    35     3    34    1
    36     4    35    1
    37     4    36    1
    38     5    37    1
    39     5    38    1
    40    15    39    1
    41    16    40    1
    42    16    41    1
    43    18    42    1
    44    19    43    1
    45    22    44    1
    46    25    45    1
    47    26    46    1
