@<TRIPOS>MOLECULE
*****
 53 57 0 0 0
SMALL
USER_CHARGES

@<TRIPOS>ATOM
      1 N1         16.8035    7.4061    0.2852 N.pl3   1  NONAME1    -0.3375
      2 C1         16.8963    6.4765   -0.6833 C.ar    1  NONAME1     0.2063
      3 N2         17.8894    6.4120   -1.5703 N.ar    1  NONAME1    -0.0319
      4 O1         17.6148    5.2992   -2.3581 O.2     1  NONAME1    -0.2388
      5 N3         16.4418    4.6669   -1.9479 N.ar    1  NONAME1    -0.0272
      6 C2         16.0396    5.3836   -0.8968 C.ar    1  NONAME1     0.2403
      7 N4         14.8728    5.0156   -0.1859 N.ar    1  NONAME1    -0.1907
      8 N5         14.1085    5.9575    0.4435 N.ar    1  NONAME1    -0.0582
      9 N6         12.8889    5.4665    0.5751 N.ar    1  NONAME1    -0.1240
     10 C3         12.9269    4.1343    0.2436 C.ar    1  NONAME1     0.1734
     11 C4         11.7132    3.3158    0.2033 C.2     1  NONAME1     0.2852
     12 O2         11.7476    2.0926    0.0817 O.2     1  NONAME1    -0.2666
     13 N7         10.5257    4.0540    0.2425 N.am    1  NONAME1    -0.2016
     14 N8          9.3188    3.4089    0.1648 N.2     1  NONAME1    -0.1874
     15 C5          8.2462    4.1351    0.1024 C.2     1  NONAME1     0.0529
     16 C6          6.8996    3.5087    0.0485 C.ar    1  NONAME1    -0.0018
     17 C7          6.7692    2.1048    0.1004 C.ar    1  NONAME1    -0.0494
     18 C8          5.5078    1.4983    0.0790 C.ar    1  NONAME1    -0.0155
     19 C9          4.4030    2.3198    0.0039 C.ar    1  NONAME1     0.1663
     20 C10         4.5276    3.6916   -0.0495 C.ar    1  NONAME1     0.1668
     21 C11         5.7595    4.3190   -0.0345 C.ar    1  NONAME1    -0.0075
     22 O3          3.3172    4.3111   -0.1147 O.3     1  NONAME1    -0.4526
     23 C12         2.4224    3.1770   -0.0799 C.3     1  NONAME1     0.2332
     24 O4          3.1089    1.9114   -0.0129 O.3     1  NONAME1    -0.4526
     25 C13        14.2433    3.7785   -0.0677 C.ar    1  NONAME1     0.0931
     26 C14        14.8532    2.4465   -0.4177 C.3     1  NONAME1     0.0437
     27 N9         15.9863    1.9271    0.4198 N.3     1  NONAME1    -0.2966
     28 C15        16.1828    0.5007    0.0366 C.3     1  NONAME1    -0.0007
     29 C16        17.4640   -0.1802    0.5400 C.3     1  NONAME1    -0.0402
     30 C17        18.7045    0.6565    0.2778 C.3     1  NONAME1    -0.0507
     31 C18        18.4841    2.0422    0.8511 C.3     1  NONAME1    -0.0402
     32 C19        17.2399    2.6720    0.2248 C.3     1  NONAME1    -0.0007
     33 H1         17.4209    8.2102    0.2476 H       1  NONAME1     0.1439
     34 H2         15.9261    7.5741    0.7729 H       1  NONAME1     0.1439
     35 H3         10.5633    5.0660    0.3027 H       1  NONAME1     0.1776
     36 H4          8.2889    5.2389    0.0911 H       1  NONAME1     0.0851
     37 H5          7.6563    1.4755    0.1613 H       1  NONAME1     0.0625
     38 H6          5.4003    0.4207    0.1239 H       1  NONAME1     0.0655
     39 H7          5.8181    5.4018   -0.0766 H       1  NONAME1     0.0662
     40 H8          1.7694    3.2687    0.7972 H       1  NONAME1     0.1166
     41 H9          1.7976    3.1901   -0.9810 H       1  NONAME1     0.1166
     42 H10        14.0513    1.7082   -0.3034 H       1  NONAME1     0.0492
     43 H11        15.1133    2.4263   -1.4821 H       1  NONAME1     0.0492
     44 H12        16.1738    0.4075   -1.0577 H       1  NONAME1     0.0427
     45 H13        15.3332   -0.0811    0.4157 H       1  NONAME1     0.0427
     46 H14        17.5764   -1.1499    0.0396 H       1  NONAME1     0.0278
     47 H15        17.3830   -0.3821    1.6142 H       1  NONAME1     0.0278
     48 H16        19.5874    0.1913    0.7296 H       1  NONAME1     0.0266
     49 H17        18.8948    0.7238   -0.8014 H       1  NONAME1     0.0266
     50 H18        19.3572    2.6711    0.6380 H       1  NONAME1     0.0278
     51 H19        18.3805    1.9929    1.9414 H       1  NONAME1     0.0278
     52 H20        17.1458    3.6610    0.6776 H       1  NONAME1     0.0427
     53 H21        17.4496    2.7707   -0.8442 H       1  NONAME1     0.0427
@<TRIPOS>BOND
     1     1     2    1
     2     2     3   ar
     3     3     4   ar
     4     4     5   ar
     5     5     6   ar
     6     2     6   ar
     7     6     7    1
     8     7     8   ar
     9     8     9   ar
    10     9    10   ar
    11    10    11    1
    12    11    12    2
    13    11    13   am
    14    13    14    1
    15    14    15    2
    16    15    16    1
    17    16    17   ar
    18    17    18   ar
    19    18    19   ar
    20    19    20   ar
    21    20    21   ar
    22    16    21   ar
    23    20    22    1
    24    22    23    1
    25    23    24    1
    26    19    24    1
    27    10    25   ar
    28     7    25   ar
    29    25    26    1
    30    26    27    1
    31    27    28    1
    32    28    29    1
    33    29    30    1
    34    30    31    1
    35    31    32    1
    36    27    32    1
    37     1    33    1
    38     1    34    1
    39    13    35    1
    40    15    36    1
    41    17    37    1
    42    18    38    1
    43    21    39    1
    44    23    40    1
    45    23    41    1
    46    26    42    1
    47    26    43    1
    48    28    44    1
    49    28    45    1
    50    29    46    1
    51    29    47    1
    52    30    48    1
    53    30    49    1
    54    31    50    1
    55    31    51    1
    56    32    52    1
    57    32    53    1
