REMARK  7 active torsions:
REMARK  status: ('A' for Active; 'I' for Inactive)
REMARK    1  A    between atoms: C2_2  and  N1_3 
REMARK    2  A    between atoms: N1_3  and  C3_4 
REMARK       I    between atoms: N1_3  and  C5_6 
REMARK    3  A    between atoms: C5_6  and  C6_8 
REMARK    4  A    between atoms: C9_11  and  N2_12 
REMARK       I    between atoms: N2_12  and  C10_13 
REMARK    5  A    between atoms: C10_13  and  C11_15 
REMARK    6  A    between atoms: C16_20  and  N3_21 
REMARK       I    between atoms: N3_21  and  C17_22 
REMARK    7  A    between atoms: C17_22  and  C18_24 
ROOT
ATOM      1  N2  NON d   1      10.632   9.391  -0.141  0.00  0.00    -0.323 N 
ATOM      2  C10 NON d   1       9.637   8.559  -0.655  0.00  0.00     0.258 C 
ATOM      3  O2  NON d   1       8.613   8.959  -1.203  0.00  0.00    -0.267 OA
ATOM      4  H13 NON d   1      11.197   9.013   0.609  0.00  0.00     0.169 HD
ENDROOT
BRANCH   2   5
ATOM      5  C11 NON d   1       9.825   7.072  -0.486  0.00  0.00     0.059 A 
ATOM      6  C12 NON d   1      11.137   6.566  -0.438  0.00  0.00     0.019 A 
ATOM      7  C13 NON d   1      11.371   5.190  -0.445  0.00  0.00     0.001 A 
ATOM      8  C14 NON d   1      10.300   4.312  -0.559  0.00  0.00     0.002 A 
ATOM      9  C15 NON d   1       8.991   4.801  -0.613  0.00  0.00     0.030 A 
ATOM     10  C16 NON d   1       8.720   6.168  -0.510  0.00  0.00     0.050 A 
BRANCH  10  11
ATOM     11  N3  NON d   1       7.404   6.681  -0.459  0.00  0.00    -0.322 N 
ATOM     12  C17 NON d   1       6.123   6.173  -0.367  0.00  0.00     0.256 C 
ATOM     13  O3  NON d   1       5.207   6.984  -0.536  0.00  0.00    -0.267 OA
ATOM     14  H18 NON d   1       7.349   7.691  -0.599  0.00  0.00     0.169 HD
BRANCH  12  15
ATOM     15  C18 NON d   1       5.794   4.778  -0.076  0.00  0.00     0.039 A 
ATOM     16  C19 NON d   1       6.371   3.867   0.877  0.00  0.00     0.024 A 
ATOM     17  C20 NON d   1       5.777   2.622   0.859  0.00  0.00     0.050 A 
ATOM     18  S1  NON d   1       4.452   2.558  -0.215  0.00  0.00    -0.113 SA
ATOM     19  C21 NON d   1       4.686   4.188  -0.668  0.00  0.00     0.066 A 
ENDBRANCH  12  15
ENDBRANCH  10  11
ENDBRANCH   2   5
BRANCH   1  20
ATOM     20  C9  NON d   1      10.730  10.792  -0.355  0.00  0.00     0.035 C 
ATOM     21  C8  NON d   1      11.379  11.567   0.613  0.00  0.00     0.030 C 
ATOM     22  C7  NON d   1      11.360  12.971   0.537  0.00  0.00     0.019 C 
ATOM     23  C6  NON d   1      10.719  13.617  -0.528  0.00  0.00     0.032 C 
ATOM     24  C23 NON d   1      10.226  12.847  -1.587  0.00  0.00     0.019 C 
ATOM     25  C22 NON d   1      10.207  11.439  -1.483  0.00  0.00     0.030 C 
BRANCH  23  26
ATOM     26  C5  NON d   1      10.554  15.101  -0.459  0.00  0.00     0.253 C 
ATOM     27  N1  NON d   1       9.288  15.706  -0.219  0.00  0.00    -0.349 N 
ATOM     28  O1  NON d   1      11.591  15.756  -0.547  0.00  0.00    -0.267 OA
BRANCH  27  29
ATOM     29  C2  NON d   1       9.336  17.250   0.000  0.00  0.00     0.121 C 
ATOM     30  C1  NON d   1       8.002  18.020   0.000  0.00  0.00     0.026 C 
ENDBRANCH  27  29
BRANCH  27  31
ATOM     31  C3  NON d   1       8.002  14.940   0.000  0.00  0.00     0.121 C 
ATOM     32  C4  NON d   1       8.002  13.400   0.000  0.00  0.00     0.026 C 
ENDBRANCH  27  31
ENDBRANCH  23  26
ENDBRANCH   1  20
TORSDOF 7
