REMARK  8 active torsions:
REMARK  status: ('A' for Active; 'I' for Inactive)
REMARK    1  A    between atoms: C4_5  and  C5_6 
REMARK       I    between atoms: C5_6  and  N2_8 
REMARK    2  A    between atoms: N2_8  and  C6_9 
REMARK    3  A    between atoms: C12_15  and  N3_16 
REMARK    4  A    between atoms: C13_18  and  S1_19 
REMARK    5  A    between atoms: S1_19  and  C14_20 
REMARK    6  A    between atoms: C14_20  and  C15_21 
REMARK       I    between atoms: C15_21  and  N5_23 
REMARK    7  A    between atoms: N5_23  and  C16_24 
REMARK    8  A    between atoms: C16_24  and  C17_25 
ROOT
ATOM      1  N1  NON d   1      -4.043  -9.241  -0.236  0.00  0.00    -0.191 NA
ATOM      2  C1  NON d   1      -3.994  -8.084  -0.188  0.00  0.00     0.102 C 
ATOM      3  C2  NON d   1      -3.966  -6.654  -0.114  0.00  0.00     0.081 A 
ATOM      4  C3  NON d   1      -5.178  -5.965  -0.106  0.00  0.00     0.046 A 
ATOM      5  C4  NON d   1      -5.209  -4.564  -0.061  0.00  0.00     0.073 A 
ATOM      6  C12 NON d   1      -3.978  -3.904  -0.011  0.00  0.00     0.117 A 
ATOM      7  N4  NON d   1      -2.787  -4.559   0.031  0.00  0.00    -0.228 NA
ATOM      8  C13 NON d   1      -2.785  -5.918  -0.046  0.00  0.00     0.116 A 
ENDROOT
BRANCH   8   9
ATOM      9  S1  NON d   1      -1.209  -6.780  -0.042  0.00  0.00    -0.099 SA
BRANCH   9  10
ATOM     10  C14 NON d   1      -0.001  -5.443   0.084  0.00  0.00     0.183 C 
BRANCH  10  11
ATOM     11  C15 NON d   1       0.306  -4.779  -1.250  0.00  0.00     0.227 C 
ATOM     12  O2  NON d   1      -0.416  -4.816  -2.242  0.00  0.00    -0.273 OA
ATOM     13  N5  NON d   1       1.513  -4.091  -1.238  0.00  0.00    -0.356 N 
ATOM     14  H12 NON d   1       1.932  -3.874  -0.345  0.00  0.00     0.162 HD
BRANCH  13  15
ATOM     15  C16 NON d   1       1.911  -3.331  -2.399  0.00  0.00     0.161 C 
BRANCH  15  16
ATOM     16  C17 NON d   1       3.256  -2.646  -2.312  0.00  0.00    -0.038 A 
ATOM     17  C18 NON d   1       4.240  -2.944  -1.341  0.00  0.00     0.012 A 
ATOM     18  C19 NON d   1       5.474  -2.275  -1.328  0.00  0.00     0.040 A 
ATOM     19  C20 NON d   1       5.710  -1.335  -2.307  0.00  0.00     0.105 A 
ATOM     20  C21 NON d   1       4.775  -1.052  -3.269  0.00  0.00     0.105 A 
ATOM     21  O4  NON d   1       6.847  -0.606  -2.458  0.00  0.00    -0.323 OA
ATOM     22  C22 NON d   1       3.550  -1.684  -3.299  0.00  0.00     0.048 A 
ATOM     23  O3  NON d   1       5.203  -0.112  -4.152  0.00  0.00    -0.323 OA
ATOM     24  C23 NON d   1       6.530   0.147  -3.649  0.00  0.00     0.352 A 
ENDBRANCH  15  16
ENDBRANCH  13  15
ENDBRANCH  10  11
ENDBRANCH   9  10
ENDBRANCH   8   9
BRANCH   5  25
ATOM     25  C5  NON d   1      -6.566  -3.936  -0.083  0.00  0.00     0.259 C 
ATOM     26  O1  NON d   1      -7.513  -4.686  -0.311  0.00  0.00    -0.267 OA
ATOM     27  N2  NON d   1      -6.666  -2.575   0.138  0.00  0.00    -0.323 N 
ATOM     28  H2  NON d   1      -5.801  -2.071   0.320  0.00  0.00     0.169 HD
BRANCH  27  29
ATOM     29  C6  NON d   1      -7.861  -1.809   0.110  0.00  0.00     0.035 A 
ATOM     30  C7  NON d   1      -9.142  -2.365   0.024  0.00  0.00     0.029 A 
ATOM     31  C8  NON d   1     -10.281  -1.554  -0.016  0.00  0.00     0.002 A 
ATOM     32  C9  NON d   1     -10.152  -0.169   0.022  0.00  0.00     0.000 A 
ATOM     33  C10 NON d   1      -8.885   0.400   0.113  0.00  0.00     0.002 A 
ATOM     34  C11 NON d   1      -7.747  -0.414   0.166  0.00  0.00     0.029 A 
ENDBRANCH  27  29
ENDBRANCH   5  25
BRANCH   6  35
ATOM     35  N3  NON d   1      -3.859  -2.507  -0.057  0.00  0.00    -0.286 NA
ATOM     36  H8  NON d   1      -2.857  -2.320   0.017  0.00  0.00     0.125 HD
ATOM     37  H9  NON d   1      -4.172  -2.175  -0.970  0.00  0.00     0.125 HD
ENDBRANCH   6  35
TORSDOF 8
