@<TRIPOS>MOLECULE
*****
 40 43 0 0 0
SMALL
USER_CHARGES

@<TRIPOS>ATOM
      1 O1         11.7639    0.2081    0.0020 O.2     1  NONAME1    -0.2684
      2 C1         11.4837   -0.9893    0.0011 C.2     1  NONAME1     0.2634
      3 N1         10.1821   -1.4772    0.0003 N.am    1  NONAME1    -0.2030
      4 N2          9.1446   -0.5853    0.0005 N.2     1  NONAME1    -0.1874
      5 C2          7.9512   -1.0830    0.0001 C.2     1  NONAME1     0.0548
      6 C3          6.8118   -0.1887    0.0001 C.ar    1  NONAME1     0.0196
      7 C4          6.8770    1.1910    0.0002 C.ar    1  NONAME1     0.0114
      8 N3          5.6045    1.6850    0.0001 N.ar    1  NONAME1    -0.3595
      9 C5          4.6875    0.6561   -0.0000 C.ar    1  NONAME1     0.0549
     10 C6          5.4213   -0.5352    0.0000 C.ar    1  NONAME1     0.0089
     11 C7          4.7176   -1.7575    0.0000 C.ar    1  NONAME1    -0.0514
     12 C8          3.3161   -1.7578   -0.0001 C.ar    1  NONAME1    -0.0533
     13 C9          2.5880   -0.5622   -0.0002 C.ar    1  NONAME1    -0.0159
     14 C10         1.1842   -0.5580   -0.0001 C.ar    1  NONAME1    -0.0540
     15 C11         0.4709    0.6442   -0.0001 C.ar    1  NONAME1    -0.0612
     16 C12         1.1475    1.8623   -0.0001 C.ar    1  NONAME1    -0.0611
     17 C13         2.5420    1.8869   -0.0001 C.ar    1  NONAME1    -0.0520
     18 C14         3.2680    0.6783   -0.0001 C.ar    1  NONAME1     0.0060
     19 C15        12.6009   -1.9900    0.0006 C.ar    1  NONAME1     0.0418
     20 C16        13.9140   -1.4845    0.0004 C.ar    1  NONAME1    -0.0494
     21 C17        15.0155   -2.3424    0.0001 C.ar    1  NONAME1    -0.0576
     22 C18        14.8176   -3.7188   -0.0001 C.ar    1  NONAME1    -0.0201
     23 C19        13.5235   -4.2257    0.0002 C.ar    1  NONAME1     0.1176
     24 O2         13.3855   -5.5835    0.0001 O.3     1  NONAME1    -0.5067
     25 C20        12.4122   -3.3801    0.0005 C.ar    1  NONAME1    -0.0080
     26 H1          9.9682   -2.4627   -0.0008 H       1  NONAME1     0.1776
     27 H2          7.7547   -2.1684   -0.0002 H       1  NONAME1     0.0852
     28 H3          7.7335    1.8546    0.0002 H       1  NONAME1     0.0813
     29 H4          5.3674    2.6668    0.0000 H       1  NONAME1     0.1654
     30 H5          5.2500   -2.7039    0.0001 H       1  NONAME1     0.0624
     31 H6          2.7959   -2.7135   -0.0000 H       1  NONAME1     0.0624
     32 H7          0.6316   -1.4949   -0.0001 H       1  NONAME1     0.0624
     33 H8         -0.6162    0.6279   -0.0002 H       1  NONAME1     0.0618
     34 H9          0.5875    2.7939   -0.0002 H       1  NONAME1     0.0618
     35 H10         3.0464    2.8479   -0.0001 H       1  NONAME1     0.0624
     36 H11        14.0862   -0.4084    0.0006 H       1  NONAME1     0.0625
     37 H12        16.0228   -1.9337   -0.0000 H       1  NONAME1     0.0619
     38 H13        15.6690   -4.3941   -0.0003 H       1  NONAME1     0.0654
     39 H14        12.4433   -5.8156    0.0002 H       1  NONAME1     0.2921
     40 H15        11.4257   -3.8216    0.0008 H       1  NONAME1     0.0661
@<TRIPOS>BOND
     1     1     2    2
     2     2     3   am
     3     3     4    1
     4     4     5    2
     5     5     6    1
     6     6     7   ar
     7     7     8   ar
     8     8     9   ar
     9     9    10   ar
    10     6    10   ar
    11    10    11   ar
    12    11    12   ar
    13    12    13   ar
    14    13    14   ar
    15    14    15   ar
    16    15    16   ar
    17    16    17   ar
    18    17    18   ar
    19    13    18   ar
    20     9    18   ar
    21     2    19    1
    22    19    20   ar
    23    20    21   ar
    24    21    22   ar
    25    22    23   ar
    26    23    24    1
    27    23    25   ar
    28    19    25   ar
    29     3    26    1
    30     5    27    1
    31     7    28    1
    32     8    29    1
    33    11    30    1
    34    12    31    1
    35    14    32    1
    36    15    33    1
    37    16    34    1
    38    17    35    1
    39    20    36    1
    40    21    37    1
    41    22    38    1
    42    24    39    1
    43    25    40    1
