REMARK  7 active torsions:
REMARK  status: ('A' for Active; 'I' for Inactive)
REMARK       I    between atoms: C1_2  and  N1_3 
REMARK       I    between atoms: C1_2  and  N4_23 
REMARK    1  A    between atoms: N1_3  and  C2_4 
REMARK    2  A    between atoms: C2_4  and  C3_5 
REMARK    3  A    between atoms: C8_10  and  C9_11 
REMARK    4  A    between atoms: C12_14  and  C13_15 
REMARK    5  A    between atoms: C13_15  and  N2_16 
REMARK    6  A    between atoms: N4_23  and  N5_24 
REMARK    7  A    between atoms: N5_24  and  C19_25 
ROOT
ATOM      1  C3  NON d   1       3.064  -7.602   0.091  0.00  0.00    -0.034 A 
ATOM      2  C4  NON d   1       2.961  -9.015   0.147  0.00  0.00     0.009 A 
ATOM      3  C5  NON d   1       1.736  -9.664   0.055  0.00  0.00     0.001 A 
ATOM      4  C6  NON d   1       0.587  -8.914  -0.098  0.00  0.00     0.001 A 
ATOM      5  C7  NON d   1       0.665  -7.515  -0.131  0.00  0.00     0.013 A 
ATOM      6  C8  NON d   1       1.881  -6.789  -0.009  0.00  0.00    -0.018 A 
ENDROOT
BRANCH   1   7
ATOM      7  C2  NON d   1       4.446  -6.994   0.134  0.00  0.00     0.136 C 
BRANCH   7   8
ATOM      8  N1  NON d   1       5.617  -7.844   0.062  0.00  0.00    -0.239 NA
ATOM      9  C1  NON d   1       6.809  -7.148   0.139  0.00  0.00     0.309 C 
ATOM     10  O1  NON d   1       6.915  -6.003   0.573  0.00  0.00    -0.253 OA
ATOM     11  N4  NON d   1       7.863  -7.819  -0.443  0.00  0.00    -0.272 N 
ATOM     12  H17 NON d   1       8.021  -8.794  -0.195  0.00  0.00     0.185 HD
ATOM     13  H1  NON d   1       5.619  -8.521  -0.687  0.00  0.00     0.132 HD
BRANCH  11  14
ATOM     14  N5  NON d   1       9.058  -7.056  -0.537  0.00  0.00    -0.185 NA
ATOM     15  H18 NON d   1       8.987  -6.216   0.049  0.00  0.00     0.154 HD
BRANCH  14  16
ATOM     16  C19 NON d   1      10.224  -7.790  -0.224  0.00  0.00     0.120 A 
ATOM     17  C20 NON d   1      11.434  -7.100  -0.188  0.00  0.00     0.046 A 
ATOM     18  C21 NON d   1      12.616  -7.801   0.030  0.00  0.00     0.005 A 
ATOM     19  C22 NON d   1      12.562  -9.177   0.199  0.00  0.00     0.019 A 
ATOM     20  C23 NON d   1      11.322  -9.790   0.147  0.00  0.00     0.118 A 
ATOM     21  N6  NON d   1      10.157  -9.133  -0.060  0.00  0.00    -0.247 NA
ENDBRANCH  14  16
ENDBRANCH  11  14
ENDBRANCH   7   8
ENDBRANCH   1   7
BRANCH   6  22
ATOM     22  C9  NON d   1       1.817  -5.258   0.006  0.00  0.00    -0.025 A 
ATOM     23  C10 NON d   1       0.595  -4.561   0.137  0.00  0.00     0.013 A 
ATOM     24  C11 NON d   1       0.497  -3.151   0.114  0.00  0.00     0.010 A 
ATOM     25  C12 NON d   1       1.625  -2.332  -0.017  0.00  0.00    -0.038 A 
ATOM     26  C17 NON d   1       2.836  -2.993  -0.121  0.00  0.00     0.010 A 
ATOM     27  C18 NON d   1       2.921  -4.398  -0.106  0.00  0.00     0.013 A 
BRANCH  25  28
ATOM     28  C13 NON d   1       1.422  -0.834  -0.103  0.00  0.00     0.189 C 
BRANCH  28  29
ATOM     29  N2  NON d   1       2.550   0.111  -0.027  0.00  0.00    -0.277 N 
ATOM     30  C14 NON d   1       2.391   1.474   0.100  0.00  0.00     0.114 A 
ATOM     31  C15 NON d   1       3.650   2.023   0.060  0.00  0.00     0.040 A 
ATOM     32  C16 NON d   1       4.507   0.926  -0.111  0.00  0.00     0.140 A 
ATOM     33  N3  NON d   1       3.844  -0.226  -0.193  0.00  0.00    -0.185 NA
ENDBRANCH  28  29
ENDBRANCH  25  28
ENDBRANCH   6  22
TORSDOF 7
