@<TRIPOS>MOLECULE
*****
 60 62 0 0 0
SMALL
USER_CHARGES

@<TRIPOS>ATOM
      1 C1          8.0021    0.0000    0.0000 C.3     1  NONAME1    -0.0495
      2 C2          8.0021   -1.5400    0.0000 C.3     1  NONAME1     0.0090
      3 N1          9.1505   -2.5324    0.3042 N.pl3   1  NONAME1    -0.3137
      4 C3          9.1030   -3.9967    0.1918 C.ar    1  NONAME1     0.2171
      5 N2         10.2910   -4.6863    0.1757 N.ar    1  NONAME1    -0.1994
      6 C4         10.2886   -6.0754    0.0302 C.ar    1  NONAME1     0.1282
      7 N3         11.4621   -6.9024    0.1907 N.pl3   1  NONAME1    -0.2993
      8 C5         11.4870   -8.3020    0.4943 C.ar    1  NONAME1     0.0325
      9 C6         12.3509   -9.1822   -0.1720 C.ar    1  NONAME1    -0.0387
     10 C7         12.1868  -10.5919   -0.0726 C.ar    1  NONAME1    -0.0376
     11 C8         11.1532  -11.1441    0.6938 C.ar    1  NONAME1     0.0482
     12 N4         10.9029  -12.5678    0.8140 N.pl3   1  NONAME1    -0.2163
     13 S1         10.3838  -13.3795   -0.5997 S.O2    1  NONAME1     0.0723
     14 O1          9.8364  -12.4279   -1.5406 O.2     1  NONAME1    -0.1500
     15 O2         11.4903  -14.2458   -0.9617 O.2     1  NONAME1    -0.1500
     16 C9          9.0225  -14.4417   -0.0868 C.ar    1  NONAME1     0.1085
     17 C10         9.1464  -15.8314   -0.0872 C.ar    1  NONAME1    -0.0348
     18 C11         7.9965  -16.6659    0.0061 C.ar    1  NONAME1    -0.0562
     19 C12         6.6684  -16.1700    0.0000 C.ar    1  NONAME1    -0.0419
     20 C13         5.3347  -16.9400    0.0000 C.3     1  NONAME1    -0.0127
     21 C14         4.0010  -17.7100    0.0000 C.3     1  NONAME1    -0.0560
     22 C15         4.7235  -15.9762   -1.2454 C.3     1  NONAME1    -0.0560
     23 C16         5.9888  -18.2172   -0.8805 C.3     1  NONAME1    -0.0560
     24 C17         6.6328  -14.7525    0.2086 C.ar    1  NONAME1    -0.0562
     25 C18         7.7592  -13.9018    0.1096 C.ar    1  NONAME1    -0.0348
     26 C19        10.3468  -10.2850    1.4287 C.ar    1  NONAME1    -0.0376
     27 C20        10.5289   -8.8922    1.3470 C.ar    1  NONAME1    -0.0387
     28 C21         9.1481   -6.8039   -0.2363 C.ar    1  NONAME1    -0.0004
     29 C22         8.0021   -6.1600    0.0000 C.ar    1  NONAME1     0.0451
     30 C23         6.6684   -6.9300    0.0000 C.3     1  NONAME1    -0.0221
     31 N5          7.9608   -4.7414    0.1644 N.ar    1  NONAME1    -0.2197
     32 H1          8.7713    0.0937   -0.7929 H       1  NONAME1     0.0245
     33 H2          8.0021    1.5400    0.0000 H       1  NONAME1     0.0245
     34 H3          6.9923    0.1034   -0.4482 H       1  NONAME1     0.0245
     35 H4          7.2165   -1.8345    0.7085 H       1  NONAME1     0.0459
     36 H5          7.6428   -1.8579   -0.9897 H       1  NONAME1     0.0459
     37 H6         10.0658   -2.2518   -0.0299 H       1  NONAME1     0.1489
     38 H7         12.3191   -6.3785    0.3030 H       1  NONAME1     0.1536
     39 H8         13.1161   -8.7904   -0.8382 H       1  NONAME1     0.0637
     40 H9         12.8572  -11.2361   -0.6384 H       1  NONAME1     0.0637
     41 H10        11.7579  -13.0521    1.1039 H       1  NONAME1     0.1737
     42 H11        10.1228  -16.2982   -0.2063 H       1  NONAME1     0.0637
     43 H12         8.2031  -17.7354    0.0310 H       1  NONAME1     0.0621
     44 H13         3.2293  -17.0727    0.4573 H       1  NONAME1     0.0238
     45 H14         3.5569  -18.1004   -0.9256 H       1  NONAME1     0.0238
     46 H15         4.0769  -18.5577    0.6972 H       1  NONAME1     0.0238
     47 H16         4.1068  -15.1741   -0.8174 H       1  NONAME1     0.0238
     48 H17         5.4903  -15.5335   -1.8974 H       1  NONAME1     0.0238
     49 H18         4.0873  -16.5156   -1.9604 H       1  NONAME1     0.0238
     50 H19         5.2721  -18.8057   -1.4706 H       1  NONAME1     0.0238
     51 H20         6.6963  -17.8955   -1.6585 H       1  NONAME1     0.0238
     52 H21         6.4606  -18.9315   -0.1935 H       1  NONAME1     0.0238
     53 H22         5.6782  -14.2549    0.3821 H       1  NONAME1     0.0621
     54 H23         7.6209  -12.8222    0.1308 H       1  NONAME1     0.0637
     55 H24         9.5542  -10.6857    2.0548 H       1  NONAME1     0.0637
     56 H25         9.8584   -8.2618    1.9288 H       1  NONAME1     0.0637
     57 H26         9.1435   -7.8531   -0.4895 H       1  NONAME1     0.0670
     58 H27         6.0435   -6.0501    0.2549 H       1  NONAME1     0.0293
     59 H28         5.3347   -7.7000    0.0000 H       1  NONAME1     0.0293
     60 H29         6.8875   -7.4703    0.9451 H       1  NONAME1     0.0293
@<TRIPOS>BOND
     1     1     2    1
     2     2     3    1
     3     3     4    1
     4     4     5   ar
     5     5     6   ar
     6     6     7    1
     7     7     8    1
     8     8     9   ar
     9     9    10   ar
    10    10    11   ar
    11    11    12    1
    12    12    13    1
    13    13    14    2
    14    13    15    2
    15    13    16    1
    16    16    17   ar
    17    17    18   ar
    18    18    19   ar
    19    19    20    1
    20    20    21    1
    21    20    22    1
    22    20    23    1
    23    19    24   ar
    24    24    25   ar
    25    16    25   ar
    26    11    26   ar
    27    26    27   ar
    28     8    27   ar
    29     6    28   ar
    30    28    29   ar
    31    29    30    1
    32    29    31   ar
    33     4    31   ar
    34     1    32    1
    35     1    33    1
    36     1    34    1
    37     2    35    1
    38     2    36    1
    39     3    37    1
    40     7    38    1
    41     9    39    1
    42    10    40    1
    43    12    41    1
    44    17    42    1
    45    18    43    1
    46    21    44    1
    47    21    45    1
    48    21    46    1
    49    22    47    1
    50    22    48    1
    51    22    49    1
    52    23    50    1
    53    23    51    1
    54    23    52    1
    55    24    53    1
    56    25    54    1
    57    26    55    1
    58    27    56    1
    59    28    57    1
    60    30    58    1
    61    30    59    1
    62    30    60    1
