REMARK  12 active torsions:
REMARK  status: ('A' for Active; 'I' for Inactive)
REMARK    1  A    between atoms: C3_3  and  C2_2 
REMARK    2  A    between atoms: C3_3  and  N1_5 
REMARK       I    between atoms: N1_5  and  C5_6 
REMARK    3  A    between atoms: C5_6  and  C6_8 
REMARK    4  A    between atoms: C9_11  and  N2_12 
REMARK    5  A    between atoms: N2_12  and  C10_13 
REMARK    6  A    between atoms: C10_13  and  C11_14 
REMARK       I    between atoms: C11_14  and  N3_16 
REMARK    7  A    between atoms: N3_16  and  C12_17 
REMARK    8  A    between atoms: C16_21  and  C17_22 
REMARK       I    between atoms: C17_22  and  N4_24 
REMARK    9  A    between atoms: N4_24  and  C18_25 
REMARK   10  A    between atoms: C18_25  and  C19_26 
REMARK   11  A    between atoms: C19_26  and  C20_27 
REMARK   12  A    between atoms: C20_27  and  O4_28 
ROOT
ATOM      1  C11 NON d   1      -0.346  10.863   0.072  0.00  0.00     0.239 C 
ATOM      2  O2  NON d   1       0.464  11.773   0.266  0.00  0.00    -0.271 OA
ATOM      3  N3  NON d   1      -0.020   9.504  -0.033  0.00  0.00    -0.326 N 
ATOM      4  H16 NON d   1      -0.786   8.847  -0.112  0.00  0.00     0.169 HD
ENDROOT
BRANCH   1   5
ATOM      5  C10 NON d   1      -1.874  11.188  -0.034  0.00  0.00     0.223 C 
BRANCH   5   6
ATOM      6  N2  NON d   1      -2.068  12.634  -0.249  0.00  0.00    -0.381 N 
ATOM      7  H13 NON d   1      -1.254  13.166   0.074  0.00  0.00     0.160 HD
BRANCH   6   8
ATOM      8  C9  NON d   1      -3.267  13.333  -0.189  0.00  0.00     0.028 A 
ATOM      9  C8  NON d   1      -3.225  14.735  -0.196  0.00  0.00     0.030 A 
ATOM     10  C7  NON d   1      -4.393  15.523  -0.203  0.00  0.00     0.019 A 
ATOM     11  C6  NON d   1      -5.671  14.944  -0.236  0.00  0.00     0.032 A 
ATOM     12  C24 NON d   1      -5.734  13.547  -0.258  0.00  0.00     0.019 A 
ATOM     13  C23 NON d   1      -4.544  12.759  -0.245  0.00  0.00     0.030 A 
BRANCH  11  14
ATOM     14  C5  NON d   1      -6.858  15.873  -0.116  0.00  0.00     0.251 C 
ATOM     15  N1  NON d   1      -8.135  15.486  -0.554  0.00  0.00    -0.353 N 
ATOM     16  H10 NON d   1      -8.249  14.549  -0.914  0.00  0.00     0.163 HD
ATOM     17  O1  NON d   1      -6.665  16.966   0.417  0.00  0.00    -0.268 OA
BRANCH  15  18
ATOM     18  C3  NON d   1      -9.336  16.170   0.000  0.00  0.00     0.080 C 
ATOM     19  C4  NON d   1      -9.336  17.710   0.000  0.00  0.00     0.032 C 
BRANCH  18  20
ATOM     20  C2  NON d   1     -10.669  15.400   0.000  0.00  0.00     0.020 C 
ATOM     21  C1  NON d   1     -11.663  15.582  -1.162  0.00  0.00     0.007 C 
ENDBRANCH  18  20
ENDBRANCH  15  18
ENDBRANCH  11  14
ENDBRANCH   6   8
ENDBRANCH   5   6
ENDBRANCH   1   5
BRANCH   3  22
ATOM     22  C12 NON d   1       1.290   8.927  -0.004  0.00  0.00     0.035 A 
ATOM     23  C13 NON d   1       2.458   9.688   0.039  0.00  0.00     0.029 A 
ATOM     24  C14 NON d   1       3.711   9.077   0.076  0.00  0.00     0.003 A 
ATOM     25  C15 NON d   1       3.835   7.685   0.073  0.00  0.00     0.017 A 
ATOM     26  C16 NON d   1       2.708   6.869   0.015  0.00  0.00     0.034 A 
ATOM     27  C22 NON d   1       1.432   7.518  -0.022  0.00  0.00     0.046 A 
BRANCH  26  28
ATOM     28  C17 NON d   1       2.742   5.360  -0.004  0.00  0.00     0.251 C 
ATOM     29  O3  NON d   1       1.663   4.759  -0.023  0.00  0.00    -0.268 OA
ATOM     30  N4  NON d   1       3.882   4.572  -0.005  0.00  0.00    -0.357 N 
ATOM     31  H20 NON d   1       3.632   3.584  -0.011  0.00  0.00     0.162 HD
BRANCH  30  32
ATOM     32  C18 NON d   1       5.300   4.892  -0.012  0.00  0.00     0.125 C 
BRANCH  32  33
ATOM     33  C19 NON d   1       6.263   3.710  -0.204  0.00  0.00     0.046 C 
BRANCH  33  34
ATOM     34  C20 NON d   1       6.503   2.881   1.059  0.00  0.00     0.168 C 
BRANCH  34  35
ATOM     35  O4  NON d   1       7.815   2.308   1.105  0.00  0.00    -0.396 OA
ATOM     36  C21 NON d   1       8.093   1.354   0.090  0.00  0.00     0.201 C 
ENDBRANCH  34  35
ENDBRANCH  33  34
ENDBRANCH  32  33
ENDBRANCH  30  32
ENDBRANCH  26  28
ENDBRANCH   3  22
TORSDOF 12
