REMARK  5 active torsions:
REMARK  status: ('A' for Active; 'I' for Inactive)
REMARK    1  A    between atoms: C2_2  and  C3_3 
REMARK    2  A    between atoms: C3_3  and  C9_13 
REMARK    3  A    between atoms: N1_4  and  N2_5 
REMARK       I    between atoms: N2_5  and  C4_6 
REMARK    4  A    between atoms: C4_6  and  C5_8 
REMARK    5  A    between atoms: C12_16  and  O2_17 
ROOT
ATOM      1  C3  NON d   1       1.389  -2.413   0.031  0.00  0.00     0.064 C 
ATOM      2  N1  NON d   1       2.564  -2.977   0.072  0.00  0.00    -0.176 NA
ENDROOT
BRANCH   1   3
ATOM      3  C2  NON d   1       0.000  -3.080   0.000  0.00  0.00     0.057 C 
ATOM      4  C1  NON d   1       0.000  -4.620   0.000  0.00  0.00     0.011 C 
ENDBRANCH   1   3
BRANCH   1   5
ATOM      5  C9  NON d   1       1.403  -0.894   0.001  0.00  0.00    -0.010 A 
ATOM      6  C10 NON d   1       0.229  -0.129   0.012  0.00  0.00     0.016 A 
ATOM      7  C11 NON d   1       0.297   1.268   0.000  0.00  0.00     0.037 A 
ATOM      8  C12 NON d   1       1.532   1.905  -0.021  0.00  0.00     0.065 A 
ATOM      9  C13 NON d   1       2.708   1.169  -0.032  0.00  0.00     0.037 A 
ATOM     10  C14 NON d   1       2.642  -0.227  -0.021  0.00  0.00     0.016 A 
BRANCH   8  11
ATOM     11  O2  NON d   1       1.546   3.267  -0.028  0.00  0.00    -0.361 OA
ATOM     12  H12 NON d   1       2.470   3.568  -0.043  0.00  0.00     0.217 HD
ENDBRANCH   8  11
ENDBRANCH   1   5
BRANCH   2  13
ATOM     13  N2  NON d   1       2.782  -4.308   0.162  0.00  0.00    -0.242 N 
ATOM     14  C4  NON d   1       4.063  -4.831   0.003  0.00  0.00     0.278 C 
ATOM     15  O1  NON d   1       5.053  -4.131  -0.208  0.00  0.00    -0.265 OA
ATOM     16  H6  NON d   1       2.054  -4.944   0.444  0.00  0.00     0.192 HD
BRANCH  14  17
ATOM     17  C5  NON d   1       4.155  -6.291   0.086  0.00  0.00     0.074 A 
ATOM     18  C6  NON d   1       5.308  -7.053  -0.015  0.00  0.00     0.025 A 
ATOM     19  C7  NON d   1       5.054  -8.454   0.058  0.00  0.00     0.009 A 
ATOM     20  C8  NON d   1       3.714  -8.724   0.218  0.00  0.00     0.050 A 
ATOM     21  S1  NON d   1       2.783  -7.295   0.298  0.00  0.00    -0.097 SA
ENDBRANCH  14  17
ENDBRANCH   2  13
TORSDOF 5
