REMARK  8 active torsions:
REMARK  status: ('A' for Active; 'I' for Inactive)
REMARK    1  A    between atoms: C3_5  and  C4_6 
REMARK    2  A    between atoms: C4_6  and  C5_8 
REMARK    3  A    between atoms: C5_8  and  N2_9 
REMARK    4  A    between atoms: N2_9  and  C6_10 
REMARK    5  A    between atoms: C11_15  and  N3_16 
REMARK    6  A    between atoms: C17_22  and  N4_23 
REMARK    7  A    between atoms: N5_24  and  C18_25 
REMARK    8  A    between atoms: C18_25  and  C19_26 
ROOT
ATOM      1  C1  NON d   1       4.001  -0.770   0.000  0.00  0.00     0.164 C 
ATOM      2  N1  NON d   1       4.001  -2.310   0.000  0.00  0.00    -0.270 N 
ATOM      3  C2  NON d   1       5.158  -2.907  -0.428  0.00  0.00     0.268 C 
ATOM      4  O1  NON d   1       6.137  -2.251  -0.779  0.00  0.00    -0.267 OA
ATOM      5  C3  NON d   1       5.198  -4.388  -0.430  0.00  0.00     0.117 C 
ATOM      6  C17 NON d   1       4.038  -5.061  -0.214  0.00  0.00     0.103 C 
ATOM      7  N5  NON d   1       2.879  -4.351   0.159  0.00  0.00    -0.284 N 
ATOM      8  C25 NON d   1       2.970  -3.023   0.569  0.00  0.00     0.332 C 
ATOM      9  O3  NON d   1       2.181  -2.495   1.354  0.00  0.00    -0.246 OA
ENDROOT
BRANCH   5  10
ATOM     10  C4  NON d   1       6.512  -5.115  -0.652  0.00  0.00     0.181 C 
ATOM     11  O2  NON d   1       6.520  -6.300  -1.009  0.00  0.00    -0.291 OA
BRANCH  10  12
ATOM     12  C5  NON d   1       7.818  -4.355  -0.360  0.00  0.00     0.176 C 
BRANCH  12  13
ATOM     13  N2  NON d   1       8.982  -5.263  -0.266  0.00  0.00    -0.284 NA
ATOM     14  H6  NON d   1       9.018  -5.847  -1.104  0.00  0.00     0.128 HD
BRANCH  13  15
ATOM     15  C6  NON d   1      10.283  -4.716  -0.097  0.00  0.00     0.030 C 
ATOM     16  C7  NON d   1      10.405  -3.338   0.233  0.00  0.00     0.025 C 
ATOM     17  C8  NON d   1      11.631  -2.686   0.313  0.00  0.00     0.002 C 
ATOM     18  C9  NON d   1      12.781  -3.398   0.065  0.00  0.00     0.002 C 
ATOM     19  C10 NON d   1      12.698  -4.769  -0.195  0.00  0.00     0.025 C 
ATOM     20  C11 NON d   1      11.479  -5.510  -0.211  0.00  0.00     0.032 C 
BRANCH  20  21
ATOM     21  N3  NON d   1      11.544  -6.949  -0.389  0.00  0.00    -0.282 NA
ATOM     22  C12 NON d   1      12.851  -7.533   0.038  0.00  0.00     0.096 C 
ATOM     23  C13 NON d   1      12.964  -9.042  -0.149  0.00  0.00     0.015 C 
ATOM     24  C14 NON d   1      11.798  -9.770   0.481  0.00  0.00     0.002 C 
ATOM     25  C15 NON d   1      10.528  -9.239  -0.145  0.00  0.00     0.015 C 
ATOM     26  C16 NON d   1      10.370  -7.730   0.068  0.00  0.00     0.096 C 
ENDBRANCH  20  21
ENDBRANCH  13  15
ENDBRANCH  12  13
ENDBRANCH  10  12
ENDBRANCH   5  10
BRANCH   6  27
ATOM     27  N4  NON d   1       3.977  -6.448  -0.305  0.00  0.00    -0.287 NA
ATOM     28  H21 NON d   1       3.636  -6.879   0.550  0.00  0.00     0.125 HD
ATOM     29  H22 NON d   1       4.882  -6.871  -0.558  0.00  0.00     0.125 HD
ENDBRANCH   6  27
BRANCH   7  30
ATOM     30  C18 NON d   1       1.636  -5.087   0.477  0.00  0.00     0.173 C 
BRANCH  30  31
ATOM     31  C19 NON d   1       0.269  -4.545   0.064  0.00  0.00    -0.040 A 
ATOM     32  C20 NON d   1      -0.843  -5.372   0.334  0.00  0.00     0.009 A 
ATOM     33  C21 NON d   1      -2.151  -4.946   0.090  0.00  0.00     0.001 A 
ATOM     34  C22 NON d   1      -2.380  -3.674  -0.420  0.00  0.00     0.000 A 
ATOM     35  C23 NON d   1      -1.299  -2.850  -0.720  0.00  0.00     0.001 A 
ATOM     36  C24 NON d   1       0.014  -3.291  -0.503  0.00  0.00     0.009 A 
ENDBRANCH  30  31
ENDBRANCH   7  30
TORSDOF 8
