@<TRIPOS>MOLECULE
*****
 35 37 0 0 0
SMALL
USER_CHARGES

@<TRIPOS>ATOM
      1 O1          1.3377   -6.8491    0.0006 O.2     1  NONAME1    -0.2683
      2 C1          0.2395   -7.3944    0.0004 C.2     1  NONAME1     0.2645
      3 N1         -0.9696   -6.7194   -0.0000 N.am    1  NONAME1    -0.2802
      4 C2         -1.1906   -5.3242   -0.0002 C.ar    1  NONAME1     0.0372
      5 C3         -2.5218   -4.9042   -0.0017 C.ar    1  NONAME1    -0.0402
      6 C4         -2.8298   -3.5470   -0.0027 C.ar    1  NONAME1    -0.0565
      7 C5         -1.8122   -2.5874   -0.0021 C.ar    1  NONAME1    -0.0192
      8 C6         -0.4790   -2.9714    0.0004 C.ar    1  NONAME1     0.1302
      9 O2          0.6565   -2.2070    0.0022 O.3     1  NONAME1    -0.4560
     10 C7          0.8159   -0.8482    0.0013 C.ar    1  NONAME1     0.1284
     11 C8         -0.1237    0.1747    0.0028 C.ar    1  NONAME1    -0.0193
     12 C9          0.2777    1.5200    0.0017 C.ar    1  NONAME1    -0.0583
     13 C10         1.6262    1.8597   -0.0002 C.ar    1  NONAME1    -0.0615
     14 C11         2.5809    0.8526   -0.0010 C.ar    1  NONAME1    -0.0583
     15 C12         2.1746   -0.4843   -0.0005 C.ar    1  NONAME1    -0.0193
     16 C13        -0.1853   -4.3528    0.0011 C.ar    1  NONAME1     0.0019
     17 C14         0.1238   -8.8520    0.0002 C.ar    1  NONAME1     0.1021
     18 C15         1.1746   -9.7619   -0.0002 C.ar    1  NONAME1    -0.0319
     19 C16         0.6435  -11.0720   -0.0001 C.ar    1  NONAME1    -0.0437
     20 C17        -0.7239  -10.9496    0.0002 C.ar    1  NONAME1     0.0023
     21 N2         -1.0285   -9.6131    0.0005 N.ar    1  NONAME1    -0.3571
     22 H1         -1.8081   -7.2720   -0.0011 H       1  NONAME1     0.1552
     23 H2         -3.3390   -5.6198   -0.0024 H       1  NONAME1     0.0636
     24 H3         -3.8695   -3.2282   -0.0041 H       1  NONAME1     0.0619
     25 H4         -2.1409   -1.5647   -0.0037 H       1  NONAME1     0.0654
     26 H5         -1.1861    0.0134    0.0054 H       1  NONAME1     0.0654
     27 H6         -0.4758    2.3051    0.0025 H       1  NONAME1     0.0619
     28 H7          1.9282    2.9030   -0.0008 H       1  NONAME1     0.0618
     29 H8          3.6389    1.1002   -0.0020 H       1  NONAME1     0.0619
     30 H9          2.9352   -1.2636   -0.0009 H       1  NONAME1     0.0654
     31 H10         0.8637   -4.6384    0.0026 H       1  NONAME1     0.0673
     32 H11         2.2240   -9.4899   -0.0004 H       1  NONAME1     0.0640
     33 H12         1.1998  -12.0004   -0.0003 H       1  NONAME1     0.0633
     34 H13        -1.5070  -11.6965    0.0004 H       1  NONAME1     0.0807
     35 H14        -1.9736   -9.2600    0.0010 H       1  NONAME1     0.1655
@<TRIPOS>BOND
     1     1     2    2
     2     2     3   am
     3     3     4    1
     4     4     5   ar
     5     5     6   ar
     6     6     7   ar
     7     7     8   ar
     8     8     9    1
     9     9    10    1
    10    10    11   ar
    11    11    12   ar
    12    12    13   ar
    13    13    14   ar
    14    14    15   ar
    15    10    15   ar
    16     8    16   ar
    17     4    16   ar
    18     2    17    1
    19    17    18   ar
    20    18    19   ar
    21    19    20   ar
    22    20    21   ar
    23    17    21   ar
    24     3    22    1
    25     5    23    1
    26     6    24    1
    27     7    25    1
    28    11    26    1
    29    12    27    1
    30    13    28    1
    31    14    29    1
    32    15    30    1
    33    16    31    1
    34    18    32    1
    35    19    33    1
    36    20    34    1
    37    21    35    1
