@<TRIPOS>MOLECULE
*****
 35 35 0 0 0
SMALL
USER_CHARGES

@<TRIPOS>ATOM
      1 C1         10.5612   -6.1781   -0.8595 C.3     1  NONAME1    -0.0627
      2 C2         11.3665   -4.9061   -1.1457 C.3     1  NONAME1    -0.0463
      3 C3         12.3808   -5.1232   -2.2840 C.3     1  NONAME1    -0.0627
      4 C4         12.0118   -4.4093    0.1739 C.3     1  NONAME1    -0.0424
      5 C5         13.2207   -3.4752    0.0435 C.3     1  NONAME1     0.0256
      6 C6         14.5445   -4.2201    0.0158 C.2     1  NONAME1     0.2291
      7 O1         14.6681   -5.4231    0.2401 O.2     1  NONAME1    -0.2743
      8 N1         15.6313   -3.4069   -0.2300 N.am    1  NONAME1    -0.2344
      9 N2         16.9071   -3.9508   -0.0379 N.am    1  NONAME1    -0.2342
     10 C7         17.9967   -3.0990   -0.0118 C.2     1  NONAME1     0.2322
     11 O2         17.8584   -1.8942   -0.2557 O.2     1  NONAME1    -0.2740
     12 C8         19.3452   -3.7718    0.3780 C.3     1  NONAME1     0.0370
     13 C9         20.5908   -3.4480   -0.5653 C.3     1  NONAME1    -0.0419
     14 C10        21.0311   -4.8870   -0.0957 C.3     1  NONAME1    -0.0517
     15 C11        19.5674   -5.2554    0.0652 C.3     1  NONAME1    -0.0419
     16 H1         10.0254   -6.5171   -1.7523 H       1  NONAME1     0.0232
     17 H2         11.2116   -6.9928   -0.5238 H       1  NONAME1     0.0232
     18 H3          9.8154   -5.9935   -0.0784 H       1  NONAME1     0.0232
     19 H4         10.6547   -4.1327   -1.4699 H       1  NONAME1     0.0296
     20 H5         12.5116   -4.0483   -2.5254 H       1  NONAME1     0.0232
     21 H6         13.3952   -5.3402   -3.4222 H       1  NONAME1     0.0232
     22 H7         11.6481   -5.5276   -3.0135 H       1  NONAME1     0.0232
     23 H8         11.2295   -3.8697    0.7259 H       1  NONAME1     0.0272
     24 H9         12.2726   -5.2663    0.8078 H       1  NONAME1     0.0272
     25 H10        13.2548   -2.8303    0.9311 H       1  NONAME1     0.0359
     26 H11        13.1370   -2.8169   -0.8267 H       1  NONAME1     0.0359
     27 H12        15.5770   -2.3895   -0.2830 H       1  NONAME1     0.1728
     28 H13        16.9430   -4.9276    0.2521 H       1  NONAME1     0.1728
     29 H14        19.5680   -3.5422    1.4345 H       1  NONAME1     0.0395
     30 H15        20.6129   -2.4084   -0.1543 H       1  NONAME1     0.0272
     31 H16        21.6674   -3.1640   -0.6272 H       1  NONAME1     0.0272
     32 H17        21.6151   -4.9030    0.8338 H       1  NONAME1     0.0266
     33 H18        21.5624   -5.4817   -0.8464 H       1  NONAME1     0.0266
     34 H19        19.3430   -5.9555    0.8732 H       1  NONAME1     0.0272
     35 H20        19.0949   -5.6095   -0.8601 H       1  NONAME1     0.0272
@<TRIPOS>BOND
     1     1     2    1
     2     2     3    1
     3     2     4    1
     4     4     5    1
     5     5     6    1
     6     6     7    2
     7     6     8   am
     8     8     9    1
     9     9    10   am
    10    10    11    2
    11    10    12    1
    12    12    13    1
    13    13    14    1
    14    14    15    1
    15    12    15    1
    16     1    16    1
    17     1    17    1
    18     1    18    1
    19     2    19    1
    20     3    20    1
    21     3    21    1
    22     3    22    1
    23     4    23    1
    24     4    24    1
    25     5    25    1
    26     5    26    1
    27     8    27    1
    28     9    28    1
    29    12    29    1
    30    13    30    1
    31    13    31    1
    32    14    32    1
    33    14    33    1
    34    15    34    1
    35    15    35    1
