@<TRIPOS>MOLECULE
*****
 38 40 0 0 0
SMALL
USER_CHARGES

@<TRIPOS>ATOM
      1 O1         -2.1905    1.3990    0.0173 O.3     1  NONAME1    -0.3903
      2 C1         -0.7733    1.3687    0.2140 C.3     1  NONAME1     0.0712
      3 C2         -0.2300   -0.0227    0.2156 C.ar    1  NONAME1     0.0045
      4 C3         -1.0003   -1.1640    0.4062 C.ar    1  NONAME1     0.0112
      5 N1         -0.2475   -2.2698    0.1477 N.ar    1  NONAME1    -0.3452
      6 C4         -0.6576   -3.6788    0.0654 C.3     1  NONAME1     0.0480
      7 C5         -2.1226   -4.0524   -0.0127 C.ar    1  NONAME1    -0.0278
      8 C6         -2.5051   -5.2951    0.5308 C.ar    1  NONAME1    -0.0569
      9 C7         -3.8187   -5.7594    0.4317 C.ar    1  NONAME1    -0.0614
     10 C8         -4.7787   -4.9863   -0.2112 C.ar    1  NONAME1    -0.0617
     11 C9         -4.4151   -3.7680   -0.7806 C.ar    1  NONAME1    -0.0614
     12 C10        -3.0908   -3.3206   -0.7099 C.ar    1  NONAME1    -0.0569
     13 C11         1.0634   -1.8596    0.0196 C.ar    1  NONAME1     0.0283
     14 C12         1.1257   -0.4655    0.0458 C.ar    1  NONAME1     0.0254
     15 C13         2.4402    0.1816   -0.1209 C.2     1  NONAME1     0.0890
     16 N2          2.7733    1.4288    0.0472 N.2     1  NONAME1    -0.0915
     17 O2          1.7740    2.2586    0.5286 O.2     1  NONAME1    -0.4090
     18 C14         3.5937   -0.7363   -0.5494 C.3     1  NONAME1    -0.0063
     19 C15         3.5250   -2.0790    0.1766 C.3     1  NONAME1    -0.0421
     20 C16         2.2179   -2.8010   -0.1497 C.3     1  NONAME1    -0.0113
     21 H1         -2.4392    2.3370    0.0269 H       1  NONAME1     0.2098
     22 H2         -0.5677    1.8555    1.1719 H       1  NONAME1     0.0608
     23 H3         -0.3349    1.9431   -0.6077 H       1  NONAME1     0.0608
     24 H4         -2.0559   -1.2306    0.6368 H       1  NONAME1     0.0813
     25 H5         -0.1676   -4.0861   -0.8275 H       1  NONAME1     0.0541
     26 H6         -0.2127   -4.1433    0.9540 H       1  NONAME1     0.0541
     27 H7         -1.7693   -5.9271    1.0262 H       1  NONAME1     0.0621
     28 H8         -4.0884   -6.7253    0.8516 H       1  NONAME1     0.0618
     29 H9         -5.8050   -5.3373   -0.2804 H       1  NONAME1     0.0618
     30 H10        -5.1618   -3.1652   -1.2916 H       1  NONAME1     0.0618
     31 H11        -2.8385   -2.3845   -1.2049 H       1  NONAME1     0.0621
     32 H12         2.2288    3.1201    0.5788 H       1  NONAME1     0.3278
     33 H13         4.5504   -0.2504   -0.3238 H       1  NONAME1     0.0330
     34 H14         3.5391   -0.8775   -1.6350 H       1  NONAME1     0.0330
     35 H15         3.5891   -1.9105    1.2600 H       1  NONAME1     0.0272
     36 H16         4.3764   -2.7083   -0.1045 H       1  NONAME1     0.0272
     37 H17         2.2397   -3.1598   -1.1854 H       1  NONAME1     0.0328
     38 H18         2.1174   -3.6729    0.5060 H       1  NONAME1     0.0328
@<TRIPOS>BOND
     1     1     2    1
     2     2     3    1
     3     3     4   ar
     4     4     5   ar
     5     5     6    1
     6     6     7    1
     7     7     8   ar
     8     8     9   ar
     9     9    10   ar
    10    10    11   ar
    11    11    12   ar
    12     7    12   ar
    13     5    13   ar
    14    13    14   ar
    15     3    14   ar
    16    14    15    1
    17    15    16    2
    18    16    17    1
    19    15    18    1
    20    18    19    1
    21    19    20    1
    22    13    20    1
    23     1    21    1
    24     2    22    1
    25     2    23    1
    26     4    24    1
    27     6    25    1
    28     6    26    1
    29     8    27    1
    30     9    28    1
    31    10    29    1
    32    11    30    1
    33    12    31    1
    34    17    32    1
    35    18    33    1
    36    18    34    1
    37    19    35    1
    38    19    36    1
    39    20    37    1
    40    20    38    1
