@<TRIPOS>MOLECULE
*****
 69 73 0 0 0
SMALL
USER_CHARGES

@<TRIPOS>ATOM
      1 C1          2.5432    0.5846    1.7907 C.3     1  NONAME1    -0.0548
      2 C2          2.5798    0.0143    0.3402 C.3     1  NONAME1     0.0206
      3 C3          2.5192    1.2502   -0.6289 C.3     1  NONAME1     0.0522
      4 O1          1.3387    2.0204   -0.4109 O.3     1  NONAME1    -0.3944
      5 C4          4.0010   -0.7700    0.0000 C.3     1  NONAME1    -0.0207
      6 C5          5.0882   -0.0886    0.8902 C.3     1  NONAME1    -0.0156
      7 C6          6.4130   -0.3588    0.3415 C.ar    1  NONAME1     0.0148
      8 S1          7.8035    0.5444    0.6527 S.2     1  NONAME1    -0.0568
      9 C7          8.7448   -0.5744   -0.2699 C.ar    1  NONAME1     0.1628
     10 N1         10.0997   -0.6340   -0.3398 N.pl3   1  NONAME1    -0.2936
     11 C8         11.1260    0.2985   -0.0921 C.ar    1  NONAME1     0.0362
     12 C9         10.9290    1.6291    0.2879 C.ar    1  NONAME1    -0.0403
     13 C10        12.0028    2.5121    0.4663 C.ar    1  NONAME1    -0.0566
     14 C11        13.3077    2.0788    0.2692 C.ar    1  NONAME1    -0.0201
     15 C12        13.5256    0.7535   -0.0758 C.ar    1  NONAME1     0.1186
     16 O2         14.7866    0.2759   -0.2804 O.3     1  NONAME1    -0.5067
     17 C13        12.4583   -0.1307   -0.2404 C.ar    1  NONAME1     0.0010
     18 N2          8.0052   -1.4910   -0.8706 N.ar    1  NONAME1    -0.2290
     19 C14         6.6781   -1.4120   -0.4651 C.ar    1  NONAME1     0.0578
     20 C15         5.7021   -2.5360   -0.7197 C.3     1  NONAME1     0.0161
     21 C16         6.5830   -3.8092   -0.2232 C.3     1  NONAME1     0.0327
     22 C17         6.6469   -4.9657   -1.1990 C.2     1  NONAME1     0.2140
     23 O3          6.2417   -6.0940   -0.9291 O.2     1  NONAME1    -0.2758
     24 N3          7.2365   -4.6410   -2.3866 N.am    1  NONAME1    -0.3082
     25 C18         7.4963   -5.6153   -3.4138 C.3     1  NONAME1     0.0697
     26 C19         8.1361   -4.9438   -4.5739 C.ar    1  NONAME1     0.1218
     27 C20         8.7923   -5.4176   -5.6917 C.ar    1  NONAME1    -0.0192
     28 C21         9.2001   -4.2785   -6.4310 C.ar    1  NONAME1    -0.0236
     29 C22         8.7676   -3.1847   -5.7220 C.ar    1  NONAME1     0.0921
     30 O4          8.1179   -3.5752   -4.5985 O.2     1  NONAME1    -0.4662
     31 C23         4.0010   -2.3100    0.0000 C.3     1  NONAME1    -0.0195
     32 C24         4.0010   -3.8500    0.0000 C.3     1  NONAME1    -0.0587
     33 C25         2.7986   -2.3632   -1.1232 C.3     1  NONAME1    -0.0444
     34 C26         1.5034   -2.2384   -0.3214 C.3     1  NONAME1    -0.0257
     35 C27         1.2699   -0.7955    0.0442 C.3     1  NONAME1     0.0630
     36 O5          0.3286   -0.7722    1.1182 O.3     1  NONAME1    -0.3912
     37 H1          3.2946    1.3649    1.9538 H       1  NONAME1     0.0237
     38 H2          2.7004   -0.2059    2.5300 H       1  NONAME1     0.0237
     39 H3          1.5984    1.0865    2.0232 H       1  NONAME1     0.0237
     40 H4          2.5048    0.9109   -1.6724 H       1  NONAME1     0.0563
     41 H5          3.3807    1.9120   -0.5025 H       1  NONAME1     0.0563
     42 H6          1.2914    2.6744   -1.1311 H       1  NONAME1     0.2094
     43 H7          4.2489   -0.4402   -1.0246 H       1  NONAME1     0.0316
     44 H8          4.9683    0.9994    0.8646 H       1  NONAME1     0.0322
     45 H9          5.0282   -0.4290    1.9285 H       1  NONAME1     0.0322
     46 H10        10.4365   -1.4912   -0.7613 H       1  NONAME1     0.1541
     47 H11         9.9411    2.0432    0.4353 H       1  NONAME1     0.0636
     48 H12        11.8055    3.5434    0.7452 H       1  NONAME1     0.0619
     49 H13        14.1264    2.7802    0.3869 H       1  NONAME1     0.0654
     50 H14        15.4135    1.0117   -0.1835 H       1  NONAME1     0.2921
     51 H15        12.6823   -1.1604   -0.5074 H       1  NONAME1     0.0673
     52 H16         5.5352   -2.5951   -1.8053 H       1  NONAME1     0.0374
     53 H17         7.6418   -3.5621   -0.0741 H       1  NONAME1     0.0365
     54 H18         6.3263   -4.1646    0.7827 H       1  NONAME1     0.0365
     55 H19         7.6711   -3.7290   -2.4867 H       1  NONAME1     0.1491
     56 H20         6.5510   -6.0843   -3.7034 H       1  NONAME1     0.0542
     57 H21         8.1553   -6.3867   -2.9991 H       1  NONAME1     0.0542
     58 H22         8.9603   -6.4573   -5.9381 H       1  NONAME1     0.0652
     59 H23         9.7453   -4.2588   -7.3624 H       1  NONAME1     0.0649
     60 H24         8.8391   -2.1171   -5.8730 H       1  NONAME1     0.1029
     61 H25         4.4913   -4.2363    0.8967 H       1  NONAME1     0.0235
     62 H26         3.0004   -4.2531    0.2262 H       1  NONAME1     0.0235
     63 H27         4.2732   -4.3810   -0.9176 H       1  NONAME1     0.0235
     64 H28         2.8669   -1.5911   -1.9007 H       1  NONAME1     0.0272
     65 H29         2.7503   -3.2853   -1.7203 H       1  NONAME1     0.0272
     66 H30         1.5191   -2.8454    0.5936 H       1  NONAME1     0.0290
     67 H31         0.6508   -2.6157   -0.8977 H       1  NONAME1     0.0290
     68 H32         0.7408   -0.3599   -0.8123 H       1  NONAME1     0.0599
     69 H33        -0.0182    0.1382    1.1590 H       1  NONAME1     0.2098
@<TRIPOS>BOND
     1     2     1    1
     2     2     3    1
     3     3     4    1
     4     2     5    1
     5     5     6    1
     6     6     7    1
     7     7     8   ar
     8     8     9   ar
     9     9    10    1
    10    10    11    1
    11    11    12   ar
    12    12    13   ar
    13    13    14   ar
    14    14    15   ar
    15    15    16    1
    16    15    17   ar
    17    11    17   ar
    18     9    18   ar
    19    18    19   ar
    20     7    19   ar
    21    20    19    1
    22    20    21    1
    23    21    22    1
    24    22    23    2
    25    22    24   am
    26    24    25    1
    27    25    26    1
    28    26    27   ar
    29    27    28   ar
    30    28    29   ar
    31    29    30   ar
    32    26    30   ar
    33    31    20    1
    34     5    31    1
    35    31    32    1
    36    31    33    1
    37    33    34    1
    38    35    34    1
    39     2    35    1
    40    35    36    1
    41     1    37    1
    42     1    38    1
    43     1    39    1
    44     3    40    1
    45     3    41    1
    46     4    42    1
    47     5    43    1
    48     6    44    1
    49     6    45    1
    50    10    46    1
    51    12    47    1
    52    13    48    1
    53    14    49    1
    54    16    50    1
    55    17    51    1
    56    20    52    1
    57    21    53    1
    58    21    54    1
    59    24    55    1
    60    25    56    1
    61    25    57    1
    62    27    58    1
    63    28    59    1
    64    29    60    1
    65    32    61    1
    66    32    62    1
    67    32    63    1
    68    33    64    1
    69    33    65    1
    70    34    66    1
    71    34    67    1
    72    35    68    1
    73    36    69    1
