@<TRIPOS>MOLECULE
*****
 55 56 0 0 0
SMALL
USER_CHARGES

@<TRIPOS>ATOM
      1 C1         -3.8461   -6.8996    1.6198 C.3     1  NONAME1     0.0366
      2 O1         -4.0939   -6.2875    0.3612 O.3     1  NONAME1    -0.3796
      3 C2         -3.0397   -5.4104   -0.0606 C.3     1  NONAME1     0.0813
      4 C3         -1.7902   -6.1690   -0.5148 C.3     1  NONAME1     0.1128
      5 O2         -0.9779   -6.4534    0.6400 O.3     1  NONAME1    -0.4889
      6 C4          0.1484   -7.1509    0.2882 C.ar    1  NONAME1     0.1327
      7 C5          0.0433   -8.5423    0.2071 C.ar    1  NONAME1    -0.0192
      8 C6          1.1738   -9.3126   -0.0569 C.ar    1  NONAME1    -0.0583
      9 C7          2.4121   -8.6952   -0.2274 C.ar    1  NONAME1    -0.0608
     10 C8          2.5256   -7.3041   -0.1316 C.ar    1  NONAME1    -0.0461
     11 C9          1.3944   -6.5195    0.1435 C.ar    1  NONAME1     0.0786
     12 C10         1.5025   -5.0388    0.2359 C.2     1  NONAME1     0.2531
     13 O3          0.5711   -4.3173   -0.1212 O.2     1  NONAME1    -0.2697
     14 N1          2.6773   -4.5250    0.7739 N.am    1  NONAME1    -0.2635
     15 C11         3.0046   -3.1887    0.9705 C.2     1  NONAME1     0.1411
     16 S1          4.3583   -2.8744    1.8972 S.2     1  NONAME1    -0.0182
     17 N2          2.0944   -2.3007    0.4480 N.am    1  NONAME1    -0.2960
     18 C12         2.0897   -0.8932    0.3580 C.ar    1  NONAME1     0.0448
     19 C13         0.8322   -0.3008    0.5766 C.ar    1  NONAME1    -0.0398
     20 C14         0.6632    1.0844    0.5406 C.ar    1  NONAME1    -0.0600
     21 C15         1.7478    1.9044    0.2560 C.ar    1  NONAME1    -0.0609
     22 C16         2.9925    1.3344   -0.0154 C.ar    1  NONAME1    -0.0478
     23 C17         3.1711   -0.0631    0.0242 C.ar    1  NONAME1     0.0578
     24 C18         4.4553   -0.5823   -0.5148 C.2     1  NONAME1     0.2459
     25 O4          4.4650   -1.4299   -1.3987 O.2     1  NONAME1    -0.2701
     26 N3          5.5931   -0.0165    0.0358 N.am    1  NONAME1    -0.3112
     27 C19         6.8902   -0.6251   -0.1930 C.3     1  NONAME1     0.0140
     28 C20         8.0143    0.4010   -0.1111 C.3     1  NONAME1    -0.0141
     29 C21         9.3756   -0.2569   -0.2914 C.3     1  NONAME1     0.0456
     30 O5          9.6405   -1.1228    0.8038 O.3     1  NONAME1    -0.3950
     31 H1         -4.7525   -7.4314    1.9216 H       1  NONAME1     0.0524
     32 H2         -3.6132   -6.1494    2.3812 H       1  NONAME1     0.0524
     33 H3         -3.0392   -7.6324    1.5437 H       1  NONAME1     0.0524
     34 H4         -2.8162   -4.6908    0.7358 H       1  NONAME1     0.0593
     35 H5         -3.4412   -4.8537   -0.9136 H       1  NONAME1     0.0593
     36 H6         -1.2277   -5.5400   -1.2134 H       1  NONAME1     0.0720
     37 H7         -2.0781   -7.0991   -1.0185 H       1  NONAME1     0.0720
     38 H8         -0.9193   -9.0242    0.3575 H       1  NONAME1     0.0654
     39 H9          1.0880  -10.3943   -0.1263 H       1  NONAME1     0.0619
     40 H10         3.2912   -9.2999   -0.4399 H       1  NONAME1     0.0618
     41 H11         3.4997   -6.8521   -0.2999 H       1  NONAME1     0.0626
     42 H12         3.3552   -5.1649    1.1665 H       1  NONAME1     0.1568
     43 H13         1.1897   -2.7385    0.2640 H       1  NONAME1     0.1539
     44 H14        -0.0320   -0.9217    0.8074 H       1  NONAME1     0.0636
     45 H15        -0.3176    1.5150    0.7284 H       1  NONAME1     0.0618
     46 H16         1.6170    2.9822    0.2065 H       1  NONAME1     0.0618
     47 H17         3.8113    1.9837   -0.3197 H       1  NONAME1     0.0626
     48 H18         5.4694    0.4688    0.9155 H       1  NONAME1     0.1490
     49 H19         7.0153   -1.3988    0.5713 H       1  NONAME1     0.0463
     50 H20         6.8987   -1.1198   -1.1704 H       1  NONAME1     0.0463
     51 H21         7.8709    1.1653   -0.8839 H       1  NONAME1     0.0302
     52 H22         7.9737    0.9071    0.8613 H       1  NONAME1     0.0302
     53 H23         9.4123   -0.8386   -1.2181 H       1  NONAME1     0.0557
     54 H24        10.1608    0.5044   -0.3221 H       1  NONAME1     0.0557
     55 H25        10.5023   -1.5428    0.6378 H       1  NONAME1     0.2094
@<TRIPOS>BOND
     1     1     2    1
     2     2     3    1
     3     3     4    1
     4     4     5    1
     5     5     6    1
     6     6     7   ar
     7     7     8   ar
     8     8     9   ar
     9     9    10   ar
    10    10    11   ar
    11     6    11   ar
    12    11    12    1
    13    12    13    2
    14    12    14   am
    15    14    15    1
    16    15    16    2
    17    15    17    1
    18    17    18    1
    19    18    19   ar
    20    19    20   ar
    21    20    21   ar
    22    21    22   ar
    23    22    23   ar
    24    18    23   ar
    25    23    24    1
    26    24    25    2
    27    24    26   am
    28    26    27    1
    29    27    28    1
    30    28    29    1
    31    29    30    1
    32     1    31    1
    33     1    32    1
    34     1    33    1
    35     3    34    1
    36     3    35    1
    37     4    36    1
    38     4    37    1
    39     7    38    1
    40     8    39    1
    41     9    40    1
    42    10    41    1
    43    14    42    1
    44    17    43    1
    45    19    44    1
    46    20    45    1
    47    21    46    1
    48    22    47    1
    49    26    48    1
    50    27    49    1
    51    27    50    1
    52    28    51    1
    53    28    52    1
    54    29    53    1
    55    29    54    1
    56    30    55    1
