@<TRIPOS>MOLECULE
*****
 47 47 0 0 0
SMALL
USER_CHARGES

@<TRIPOS>ATOM
      1 C1         -6.6684   11.5500    0.0000 C.3     1  NONAME1    -0.0494
      2 C2         -5.3347   10.7800    0.0000 C.3     1  NONAME1     0.0093
      3 N1         -4.0249   11.5475   -0.0360 N.pl3   1  NONAME1    -0.3304
      4 C3         -4.1975   12.9872    0.2932 C.3     1  NONAME1     0.0093
      5 C4         -3.1324   13.9944   -0.1071 C.3     1  NONAME1    -0.0494
      6 C5         -2.8043   10.8215    0.0453 C.ar    1  NONAME1     0.0297
      7 C6         -1.5396   11.4027    0.2149 C.ar    1  NONAME1    -0.0401
      8 C7         -0.2919   10.7028    0.1555 C.ar    1  NONAME1    -0.0528
      9 C8         -0.1938    9.3235   -0.0480 C.ar    1  NONAME1    -0.0235
     10 C9          1.1878    8.7515   -0.2772 C.2     1  NONAME1    -0.0302
     11 C10         1.8089    7.5825    0.0067 C.2     1  NONAME1     0.1360
     12 C11         1.1439    6.4688    0.6129 C.1     1  NONAME1     0.1063
     13 N2          0.5878    5.5536    1.0629 N.1     1  NONAME1    -0.1906
     14 C12         3.2072    7.3327   -0.5411 C.2     1  NONAME1     0.3499
     15 O1          3.4033    7.1724   -1.7422 O.2     1  NONAME1    -0.2442
     16 O2          4.1926    7.1264    0.4187 O.3     1  NONAME1    -0.4554
     17 C13         5.3347    6.1600    0.0000 C.3     1  NONAME1     0.1238
     18 C14         5.3347    4.6200    0.0000 C.3     1  NONAME1    -0.0255
     19 C15         6.6684    6.9300    0.0000 C.3     1  NONAME1     0.0840
     20 O3          6.8939    7.5426    1.2727 O.3     1  NONAME1    -0.3793
     21 C16         6.3557    8.8552    1.3891 C.3     1  NONAME1     0.0366
     22 C17        -1.4362    8.6839   -0.1552 C.ar    1  NONAME1    -0.0528
     23 C18        -2.6931    9.4158   -0.1110 C.ar    1  NONAME1    -0.0401
     24 H1         -6.5979   11.8760   -1.0591 H       1  NONAME1     0.0245
     25 H2         -8.0021   12.3200    0.0000 H       1  NONAME1     0.0245
     26 H3         -7.3062   10.6426    0.0419 H       1  NONAME1     0.0245
     27 H4         -5.3150   10.1809    0.9200 H       1  NONAME1     0.0461
     28 H5         -5.3359   10.0957   -0.8588 H       1  NONAME1     0.0461
     29 H6         -4.4319   13.0919    1.3557 H       1  NONAME1     0.0461
     30 H7         -5.0764   13.3391   -0.2560 H       1  NONAME1     0.0461
     31 H8         -2.6354   13.7406   -1.0445 H       1  NONAME1     0.0245
     32 H9         -2.3954   14.1215    0.6968 H       1  NONAME1     0.0245
     33 H10        -3.5839   14.9837   -0.2261 H       1  NONAME1     0.0245
     34 H11        -1.4169   12.4600    0.3794 H       1  NONAME1     0.0636
     35 H12         0.6141   11.2999    0.2505 H       1  NONAME1     0.0624
     36 H13         1.8142    9.4913   -0.8032 H       1  NONAME1     0.0638
     37 H14         4.0010    5.3900    0.0000 H       1  NONAME1     0.0754
     38 H15         5.6946    4.5258    1.0467 H       1  NONAME1     0.0266
     39 H16         5.3347    3.0800    0.0000 H       1  NONAME1     0.0266
     40 H17         6.1808    4.5118   -0.7071 H       1  NONAME1     0.0266
     41 H18         6.6871    7.6775   -0.8016 H       1  NONAME1     0.0596
     42 H19         7.5029    6.2460   -0.1835 H       1  NONAME1     0.0596
     43 H20         6.0510    9.0096    2.4282 H       1  NONAME1     0.0524
     44 H21         7.1278    9.5863    1.1380 H       1  NONAME1     0.0524
     45 H22         5.4900    9.0331    0.7459 H       1  NONAME1     0.0524
     46 H23        -1.4896    7.6098   -0.3221 H       1  NONAME1     0.0624
     47 H24        -3.5919    8.8144   -0.2354 H       1  NONAME1     0.0636
@<TRIPOS>BOND
     1     1     2    1
     2     2     3    1
     3     3     4    1
     4     4     5    1
     5     3     6    1
     6     6     7   ar
     7     7     8   ar
     8     8     9   ar
     9     9    10    1
    10    10    11    2
    11    11    12    1
    12    12    13    3
    13    11    14    1
    14    14    15    2
    15    14    16    1
    16    17    16    1
    17    17    18    1
    18    17    19    1
    19    19    20    1
    20    20    21    1
    21     9    22   ar
    22    22    23   ar
    23     6    23   ar
    24     1    24    1
    25     1    25    1
    26     1    26    1
    27     2    27    1
    28     2    28    1
    29     4    29    1
    30     4    30    1
    31     5    31    1
    32     5    32    1
    33     5    33    1
    34     7    34    1
    35     8    35    1
    36    10    36    1
    37    17    37    1
    38    18    38    1
    39    18    39    1
    40    18    40    1
    41    19    41    1
    42    19    42    1
    43    21    43    1
    44    21    44    1
    45    21    45    1
    46    22    46    1
    47    23    47    1
