MODEL 1
REMARK VINA RESULT:    -8.398      0.000      0.000
REMARK INTER + INTRA:         -12.397
REMARK INTER:                 -11.083
REMARK INTRA:                  -1.315
REMARK CONF_INDEPENDENT:        2.685
REMARK UNBOUND:                -1.315
REMARK  9 active torsions:
REMARK  status: ('A' for Active; 'I' for Inactive)
REMARK    1  A    between atoms: C4_4  and  N1_7 
REMARK       I    between atoms: N1_7  and  C7_8 
REMARK    2  A    between atoms: C7_8  and  C8_10 
REMARK    3  A    between atoms: C8_10  and  C9_11 
REMARK    4  A    between atoms: C9_11  and  C10_12 
REMARK    5  A    between atoms: C10_12  and  C11_13 
REMARK    6  A    between atoms: C11_13  and  C12_14 
REMARK    7  A    between atoms: C12_14  and  C13_15 
REMARK    8  A    between atoms: C13_15  and  C14_16 
REMARK       I    between atoms: C14_16  and  N2_18 
REMARK    9  A    between atoms: N2_18  and  O3_19 
ROOT
ATOM      1  C8  NON d   1      23.213 -18.048  -1.114  0.00  0.00     0.103 C 
ENDROOT
BRANCH   1   2
ATOM      2  C7  NON d   1      21.756 -18.227  -0.702  0.00  0.00     0.222 C 
ATOM      3  N1  NON d   1      21.574 -19.407   0.005  0.00  0.00    -0.327 N 
ATOM      4  H6  NON d   1      22.400 -19.960   0.192  0.00  0.00     0.169 HD
ATOM      5  O1  NON d   1      20.896 -17.403  -0.975  0.00  0.00    -0.273 OA
BRANCH   3   6
ATOM      6  C4  NON d   1      20.367 -19.907   0.541  0.00  0.00     0.034 A 
ATOM      7  C3  NON d   1      20.244 -19.922   1.938  0.00  0.00     0.029 A 
ATOM      8  C2  NON d   1      19.080 -20.400   2.547  0.00  0.00     0.002 A 
ATOM      9  C1  NON d   1      18.030 -20.873   1.766  0.00  0.00     0.000 A 
ATOM     10  C6  NON d   1      18.146 -20.867   0.378  0.00  0.00     0.002 A 
ATOM     11  C5  NON d   1      19.309 -20.386  -0.231  0.00  0.00     0.029 A 
ENDBRANCH   3   6
ENDBRANCH   1   2
BRANCH   1  12
ATOM     12  C9  NON d   1      24.214 -18.498  -0.047  0.00  0.00     0.009 C 
BRANCH  12  13
ATOM     13  C10 NON d   1      25.345 -17.482   0.166  0.00  0.00     0.000 C 
BRANCH  13  14
ATOM     14  C11 NON d   1      25.302 -16.285  -0.794  0.00  0.00     0.000 C 
BRANCH  14  15
ATOM     15  C12 NON d   1      26.460 -16.193  -1.800  0.00  0.00     0.009 C 
BRANCH  15  16
ATOM     16  C13 NON d   1      26.557 -14.845  -2.505  0.00  0.00     0.105 C 
BRANCH  16  17
ATOM     17  C14 NON d   1      26.237 -14.898  -3.992  0.00  0.00     0.240 C 
ATOM     18  O2  NON d   1      25.125 -14.701  -4.461  0.00  0.00    -0.271 OA
ATOM     19  N2  NON d   1      27.354 -15.271  -4.726  0.00  0.00    -0.237 N 
ATOM     20  H19 NON d   1      28.276 -15.048  -4.364  0.00  0.00     0.197 HD
BRANCH  19  21
ATOM     21  O3  NON d   1      27.227 -15.149  -6.127  0.00  0.00    -0.287 OA
ATOM     22  H20 NON d   1      26.278 -14.946  -6.230  0.00  0.00     0.244 HD
ENDBRANCH  19  21
ENDBRANCH  16  17
ENDBRANCH  15  16
ENDBRANCH  14  15
ENDBRANCH  13  14
ENDBRANCH  12  13
ENDBRANCH   1  12
TORSDOF 9
ENDMDL
MODEL 2
REMARK VINA RESULT:    -7.924      1.417      1.841
REMARK INTER + INTRA:         -11.825
REMARK INTER:                 -10.609
REMARK INTRA:                  -1.216
REMARK CONF_INDEPENDENT:        2.685
REMARK UNBOUND:                -1.216
REMARK  9 active torsions:
REMARK  status: ('A' for Active; 'I' for Inactive)
REMARK    1  A    between atoms: C4_4  and  N1_7 
REMARK       I    between atoms: N1_7  and  C7_8 
REMARK    2  A    between atoms: C7_8  and  C8_10 
REMARK    3  A    between atoms: C8_10  and  C9_11 
REMARK    4  A    between atoms: C9_11  and  C10_12 
REMARK    5  A    between atoms: C10_12  and  C11_13 
REMARK    6  A    between atoms: C11_13  and  C12_14 
REMARK    7  A    between atoms: C12_14  and  C13_15 
REMARK    8  A    between atoms: C13_15  and  C14_16 
REMARK       I    between atoms: C14_16  and  N2_18 
REMARK    9  A    between atoms: N2_18  and  O3_19 
ROOT
ATOM      1  C8  NON d   1      23.385 -17.452  -0.429  0.00  0.00     0.103 C 
ENDROOT
BRANCH   1   2
ATOM      2  C7  NON d   1      22.264 -18.469  -0.604  0.00  0.00     0.222 C 
ATOM      3  N1  NON d   1      21.462 -18.534   0.527  0.00  0.00    -0.327 N 
ATOM      4  H6  NON d   1      21.682 -17.896   1.280  0.00  0.00     0.169 HD
ATOM      5  O1  NON d   1      22.123 -19.114  -1.633  0.00  0.00    -0.273 OA
BRANCH   3   6
ATOM      6  C4  NON d   1      20.336 -19.361   0.732  0.00  0.00     0.034 A 
ATOM      7  C3  NON d   1      19.508 -19.603  -0.374  0.00  0.00     0.029 A 
ATOM      8  C2  NON d   1      18.375 -20.412  -0.255  0.00  0.00     0.002 A 
ATOM      9  C1  NON d   1      18.054 -20.983   0.973  0.00  0.00     0.000 A 
ATOM     10  C6  NON d   1      18.867 -20.743   2.079  0.00  0.00     0.002 A 
ATOM     11  C5  NON d   1      20.002 -19.937   1.958  0.00  0.00     0.029 A 
ENDBRANCH   3   6
ENDBRANCH   1   2
BRANCH   1  12
ATOM     12  C9  NON d   1      24.461 -17.527  -1.516  0.00  0.00     0.009 C 
BRANCH  12  13
ATOM     13  C10 NON d   1      25.881 -17.393  -0.950  0.00  0.00     0.000 C 
BRANCH  13  14
ATOM     14  C11 NON d   1      26.531 -16.026  -1.204  0.00  0.00     0.000 C 
BRANCH  14  15
ATOM     15  C12 NON d   1      25.706 -15.040  -2.046  0.00  0.00     0.009 C 
BRANCH  15  16
ATOM     16  C13 NON d   1      26.317 -14.733  -3.408  0.00  0.00     0.105 C 
BRANCH  16  17
ATOM     17  C14 NON d   1      25.492 -13.775  -4.256  0.00  0.00     0.240 C 
ATOM     18  O2  NON d   1      24.273 -13.818  -4.349  0.00  0.00    -0.271 OA
ATOM     19  N2  NON d   1      26.313 -12.906  -4.960  0.00  0.00    -0.237 N 
ATOM     20  H19 NON d   1      27.219 -12.665  -4.573  0.00  0.00     0.197 HD
BRANCH  19  21
ATOM     21  O3  NON d   1      25.651 -11.844  -5.615  0.00  0.00    -0.287 OA
ATOM     22  H20 NON d   1      24.756 -11.893  -5.231  0.00  0.00     0.244 HD
ENDBRANCH  19  21
ENDBRANCH  16  17
ENDBRANCH  15  16
ENDBRANCH  14  15
ENDBRANCH  13  14
ENDBRANCH  12  13
ENDBRANCH   1  12
TORSDOF 9
ENDMDL
MODEL 3
REMARK VINA RESULT:    -7.670      2.550      2.762
REMARK INTER + INTRA:         -10.927
REMARK INTER:                 -10.355
REMARK INTRA:                  -0.572
REMARK CONF_INDEPENDENT:        2.685
REMARK UNBOUND:                -0.572
REMARK  9 active torsions:
REMARK  status: ('A' for Active; 'I' for Inactive)
REMARK    1  A    between atoms: C4_4  and  N1_7 
REMARK       I    between atoms: N1_7  and  C7_8 
REMARK    2  A    between atoms: C7_8  and  C8_10 
REMARK    3  A    between atoms: C8_10  and  C9_11 
REMARK    4  A    between atoms: C9_11  and  C10_12 
REMARK    5  A    between atoms: C10_12  and  C11_13 
REMARK    6  A    between atoms: C11_13  and  C12_14 
REMARK    7  A    between atoms: C12_14  and  C13_15 
REMARK    8  A    between atoms: C13_15  and  C14_16 
REMARK       I    between atoms: C14_16  and  N2_18 
REMARK    9  A    between atoms: N2_18  and  O3_19 
ROOT
ATOM      1  C8  NON d   1      23.265 -18.357  -1.252  0.00  0.00     0.103 C 
ENDROOT
BRANCH   1   2
ATOM      2  C7  NON d   1      21.801 -18.466  -0.843  0.00  0.00     0.222 C 
ATOM      3  N1  NON d   1      21.587 -19.571  -0.031  0.00  0.00    -0.327 N 
ATOM      4  H6  NON d   1      22.398 -20.122   0.215  0.00  0.00     0.169 HD
ATOM      5  O1  NON d   1      20.962 -17.652  -1.200  0.00  0.00    -0.273 OA
BRANCH   3   6
ATOM      6  C4  NON d   1      20.364 -19.993   0.535  0.00  0.00     0.034 A 
ATOM      7  C3  NON d   1      20.266 -19.978   1.934  0.00  0.00     0.029 A 
ATOM      8  C2  NON d   1      19.090 -20.380   2.572  0.00  0.00     0.002 A 
ATOM      9  C1  NON d   1      18.000 -20.806   1.818  0.00  0.00     0.000 A 
ATOM     10  C6  NON d   1      18.089 -20.830   0.428  0.00  0.00     0.002 A 
ATOM     11  C5  NON d   1      19.266 -20.425  -0.210  0.00  0.00     0.029 A 
ENDBRANCH   3   6
ENDBRANCH   1   2
BRANCH   1  12
ATOM     12  C9  NON d   1      24.064 -17.347  -0.424  0.00  0.00     0.009 C 
BRANCH  12  13
ATOM     13  C10 NON d   1      25.211 -18.001   0.358  0.00  0.00     0.000 C 
BRANCH  13  14
ATOM     14  C11 NON d   1      26.610 -17.577  -0.108  0.00  0.00     0.000 C 
BRANCH  14  15
ATOM     15  C12 NON d   1      26.907 -16.070  -0.046  0.00  0.00     0.009 C 
BRANCH  15  16
ATOM     16  C13 NON d   1      28.290 -15.693  -0.563  0.00  0.00     0.105 C 
BRANCH  16  17
ATOM     17  C14 NON d   1      29.048 -16.845  -1.208  0.00  0.00     0.240 C 
ATOM     18  O2  NON d   1      29.159 -17.001  -2.416  0.00  0.00    -0.271 OA
ATOM     19  N2  NON d   1      29.525 -17.724  -0.246  0.00  0.00    -0.237 N 
ATOM     20  H19 NON d   1      29.738 -17.369   0.680  0.00  0.00     0.197 HD
BRANCH  19  21
ATOM     21  O3  NON d   1      30.416 -18.712  -0.718  0.00  0.00    -0.287 OA
ATOM     22  H20 NON d   1      30.856 -19.001   0.103  0.00  0.00     0.244 HD
ENDBRANCH  19  21
ENDBRANCH  16  17
ENDBRANCH  15  16
ENDBRANCH  14  15
ENDBRANCH  13  14
ENDBRANCH  12  13
ENDBRANCH   1  12
TORSDOF 9
ENDMDL
MODEL 4
REMARK VINA RESULT:    -7.089      1.001      1.814
REMARK INTER + INTRA:         -10.646
REMARK INTER:                  -9.774
REMARK INTRA:                  -0.872
REMARK CONF_INDEPENDENT:        2.685
REMARK UNBOUND:                -0.872
REMARK  9 active torsions:
REMARK  status: ('A' for Active; 'I' for Inactive)
REMARK    1  A    between atoms: C4_4  and  N1_7 
REMARK       I    between atoms: N1_7  and  C7_8 
REMARK    2  A    between atoms: C7_8  and  C8_10 
REMARK    3  A    between atoms: C8_10  and  C9_11 
REMARK    4  A    between atoms: C9_11  and  C10_12 
REMARK    5  A    between atoms: C10_12  and  C11_13 
REMARK    6  A    between atoms: C11_13  and  C12_14 
REMARK    7  A    between atoms: C12_14  and  C13_15 
REMARK    8  A    between atoms: C13_15  and  C14_16 
REMARK       I    between atoms: C14_16  and  N2_18 
REMARK    9  A    between atoms: N2_18  and  O3_19 
ROOT
ATOM      1  C8  NON d   1      24.185 -17.549  -0.480  0.00  0.00     0.103 C 
ENDROOT
BRANCH   1   2
ATOM      2  C7  NON d   1      22.670 -17.695  -0.407  0.00  0.00     0.222 C 
ATOM      3  N1  NON d   1      22.307 -18.908   0.160  0.00  0.00    -0.327 N 
ATOM      4  H6  NON d   1      23.058 -19.505   0.482  0.00  0.00     0.169 HD
ATOM      5  O1  NON d   1      21.911 -16.821  -0.801  0.00  0.00    -0.273 OA
BRANCH   3   6
ATOM      6  C4  NON d   1      21.000 -19.392   0.385  0.00  0.00     0.034 A 
ATOM      7  C3  NON d   1      20.183 -19.579  -0.740  0.00  0.00     0.029 A 
ATOM      8  C2  NON d   1      18.877 -20.057  -0.603  0.00  0.00     0.002 A 
ATOM      9  C1  NON d   1      18.372 -20.348   0.661  0.00  0.00     0.000 A 
ATOM     10  C6  NON d   1      19.174 -20.160   1.785  0.00  0.00     0.002 A 
ATOM     11  C5  NON d   1      20.481 -19.685   1.647  0.00  0.00     0.029 A 
ENDBRANCH   3   6
ENDBRANCH   1   2
BRANCH   1  12
ATOM     12  C9  NON d   1      24.656 -16.514  -1.506  0.00  0.00     0.009 C 
BRANCH  12  13
ATOM     13  C10 NON d   1      26.179 -16.526  -1.698  0.00  0.00     0.000 C 
BRANCH  13  14
ATOM     14  C11 NON d   1      26.857 -15.180  -1.409  0.00  0.00     0.000 C 
BRANCH  14  15
ATOM     15  C12 NON d   1      27.098 -14.277  -2.630  0.00  0.00     0.009 C 
BRANCH  15  16
ATOM     16  C13 NON d   1      26.060 -14.444  -3.733  0.00  0.00     0.105 C 
BRANCH  16  17
ATOM     17  C14 NON d   1      26.578 -15.166  -4.969  0.00  0.00     0.240 C 
ATOM     18  O2  NON d   1      25.870 -15.800  -5.739  0.00  0.00    -0.271 OA
ATOM     19  N2  NON d   1      27.959 -15.068  -5.057  0.00  0.00    -0.237 N 
ATOM     20  H19 NON d   1      28.421 -14.261  -4.652  0.00  0.00     0.197 HD
BRANCH  19  21
ATOM     21  O3  NON d   1      28.522 -15.522  -6.270  0.00  0.00    -0.287 OA
ATOM     22  H20 NON d   1      28.001 -15.033  -6.933  0.00  0.00     0.244 HD
ENDBRANCH  19  21
ENDBRANCH  16  17
ENDBRANCH  15  16
ENDBRANCH  14  15
ENDBRANCH  13  14
ENDBRANCH  12  13
ENDBRANCH   1  12
TORSDOF 9
ENDMDL
MODEL 5
REMARK VINA RESULT:    -7.018      3.282      3.877
REMARK INTER + INTRA:         -10.968
REMARK INTER:                  -9.702
REMARK INTRA:                  -1.266
REMARK CONF_INDEPENDENT:        2.685
REMARK UNBOUND:                -1.266
REMARK  9 active torsions:
REMARK  status: ('A' for Active; 'I' for Inactive)
REMARK    1  A    between atoms: C4_4  and  N1_7 
REMARK       I    between atoms: N1_7  and  C7_8 
REMARK    2  A    between atoms: C7_8  and  C8_10 
REMARK    3  A    between atoms: C8_10  and  C9_11 
REMARK    4  A    between atoms: C9_11  and  C10_12 
REMARK    5  A    between atoms: C10_12  and  C11_13 
REMARK    6  A    between atoms: C11_13  and  C12_14 
REMARK    7  A    between atoms: C12_14  and  C13_15 
REMARK    8  A    between atoms: C13_15  and  C14_16 
REMARK       I    between atoms: C14_16  and  N2_18 
REMARK    9  A    between atoms: N2_18  and  O3_19 
ROOT
ATOM      1  C8  NON d   1      23.613 -17.786  -0.618  0.00  0.00     0.103 C 
ENDROOT
BRANCH   1   2
ATOM      2  C7  NON d   1      22.113 -18.023  -0.483  0.00  0.00     0.222 C 
ATOM      3  N1  NON d   1      21.849 -19.164   0.261  0.00  0.00    -0.327 N 
ATOM      4  H6  NON d   1      22.647 -19.656   0.643  0.00  0.00     0.169 HD
ATOM      5  O1  NON d   1      21.287 -17.269  -0.975  0.00  0.00    -0.273 OA
BRANCH   3   6
ATOM      6  C4  NON d   1      20.584 -19.699   0.589  0.00  0.00     0.034 A 
ATOM      7  C3  NON d   1      19.687 -19.916  -0.467  0.00  0.00     0.029 A 
ATOM      8  C2  NON d   1      18.416 -20.445  -0.227  0.00  0.00     0.002 A 
ATOM      9  C1  NON d   1      18.026 -20.757   1.072  0.00  0.00     0.000 A 
ATOM     10  C6  NON d   1      18.908 -20.540   2.128  0.00  0.00     0.002 A 
ATOM     11  C5  NON d   1      20.181 -20.014   1.887  0.00  0.00     0.029 A 
ENDBRANCH   3   6
ENDBRANCH   1   2
BRANCH   1  12
ATOM     12  C9  NON d   1      23.981 -16.333  -0.934  0.00  0.00     0.009 C 
BRANCH  12  13
ATOM     13  C10 NON d   1      25.000 -16.218  -2.075  0.00  0.00     0.000 C 
BRANCH  13  14
ATOM     14  C11 NON d   1      26.452 -16.055  -1.606  0.00  0.00     0.000 C 
BRANCH  14  15
ATOM     15  C12 NON d   1      26.680 -16.157  -0.090  0.00  0.00     0.009 C 
BRANCH  15  16
ATOM     16  C13 NON d   1      27.781 -15.240   0.431  0.00  0.00     0.105 C 
BRANCH  16  17
ATOM     17  C14 NON d   1      27.370 -14.393   1.626  0.00  0.00     0.240 C 
ATOM     18  O2  NON d   1      26.586 -13.456   1.565  0.00  0.00    -0.271 OA
ATOM     19  N2  NON d   1      28.059 -14.779   2.767  0.00  0.00    -0.237 N 
ATOM     20  H19 NON d   1      28.371 -15.741   2.850  0.00  0.00     0.197 HD
BRANCH  19  21
ATOM     21  O3  NON d   1      27.606 -14.201   3.973  0.00  0.00    -0.287 OA
ATOM     22  H20 NON d   1      26.972 -13.532   3.654  0.00  0.00     0.244 HD
ENDBRANCH  19  21
ENDBRANCH  16  17
ENDBRANCH  15  16
ENDBRANCH  14  15
ENDBRANCH  13  14
ENDBRANCH  12  13
ENDBRANCH   1  12
TORSDOF 9
ENDMDL
MODEL 6
REMARK VINA RESULT:    -6.954      2.782      9.197
REMARK INTER + INTRA:         -10.804
REMARK INTER:                  -9.639
REMARK INTRA:                  -1.166
REMARK CONF_INDEPENDENT:        2.685
REMARK UNBOUND:                -1.166
REMARK  9 active torsions:
REMARK  status: ('A' for Active; 'I' for Inactive)
REMARK    1  A    between atoms: C4_4  and  N1_7 
REMARK       I    between atoms: N1_7  and  C7_8 
REMARK    2  A    between atoms: C7_8  and  C8_10 
REMARK    3  A    between atoms: C8_10  and  C9_11 
REMARK    4  A    between atoms: C9_11  and  C10_12 
REMARK    5  A    between atoms: C10_12  and  C11_13 
REMARK    6  A    between atoms: C11_13  and  C12_14 
REMARK    7  A    between atoms: C12_14  and  C13_15 
REMARK    8  A    between atoms: C13_15  and  C14_16 
REMARK       I    between atoms: C14_16  and  N2_18 
REMARK    9  A    between atoms: N2_18  and  O3_19 
ROOT
ATOM      1  C8  NON d   1      26.219 -15.492  -2.651  0.00  0.00     0.103 C 
ENDROOT
BRANCH   1   2
ATOM      2  C7  NON d   1      25.746 -14.429  -3.635  0.00  0.00     0.222 C 
ATOM      3  N1  NON d   1      26.221 -13.173  -3.285  0.00  0.00    -0.327 N 
ATOM      4  H6  NON d   1      26.831 -13.123  -2.480  0.00  0.00     0.169 HD
ATOM      5  O1  NON d   1      25.048 -14.700  -4.601  0.00  0.00    -0.273 OA
BRANCH   3   6
ATOM      6  C4  NON d   1      25.987 -11.952  -3.955  0.00  0.00     0.034 A 
ATOM      7  C3  NON d   1      25.859 -12.001  -5.351  0.00  0.00     0.029 A 
ATOM      8  C2  NON d   1      25.625 -10.837  -6.088  0.00  0.00     0.002 A 
ATOM      9  C1  NON d   1      25.521  -9.611  -5.437  0.00  0.00     0.000 A 
ATOM     10  C6  NON d   1      25.652  -9.551  -4.051  0.00  0.00     0.002 A 
ATOM     11  C5  NON d   1      25.884 -10.717  -3.315  0.00  0.00     0.029 A 
ENDBRANCH   3   6
ENDBRANCH   1   2
BRANCH   1  12
ATOM     12  C9  NON d   1      25.078 -16.256  -1.973  0.00  0.00     0.009 C 
BRANCH  12  13
ATOM     13  C10 NON d   1      25.503 -16.893  -0.643  0.00  0.00     0.000 C 
BRANCH  13  14
ATOM     14  C11 NON d   1      24.561 -17.999  -0.147  0.00  0.00     0.000 C 
BRANCH  14  15
ATOM     15  C12 NON d   1      23.066 -17.777  -0.426  0.00  0.00     0.009 C 
BRANCH  15  16
ATOM     16  C13 NON d   1      22.278 -19.066  -0.626  0.00  0.00     0.105 C 
BRANCH  16  17
ATOM     17  C14 NON d   1      20.783 -18.858  -0.820  0.00  0.00     0.240 C 
ATOM     18  O2  NON d   1      20.267 -17.774  -1.054  0.00  0.00    -0.271 OA
ATOM     19  N2  NON d   1      20.089 -20.042  -0.620  0.00  0.00    -0.237 N 
ATOM     20  H19 NON d   1      20.555 -20.923  -0.810  0.00  0.00     0.197 HD
BRANCH  19  21
ATOM     21  O3  NON d   1      18.723 -20.010  -0.977  0.00  0.00    -0.287 OA
ATOM     22  H20 NON d   1      18.656 -19.165  -1.458  0.00  0.00     0.244 HD
ENDBRANCH  19  21
ENDBRANCH  16  17
ENDBRANCH  15  16
ENDBRANCH  14  15
ENDBRANCH  13  14
ENDBRANCH  12  13
ENDBRANCH   1  12
TORSDOF 9
ENDMDL
MODEL 7
REMARK VINA RESULT:    -6.786      4.438      8.698
REMARK INTER + INTRA:         -10.737
REMARK INTER:                  -9.471
REMARK INTRA:                  -1.266
REMARK CONF_INDEPENDENT:        2.685
REMARK UNBOUND:                -1.266
REMARK  9 active torsions:
REMARK  status: ('A' for Active; 'I' for Inactive)
REMARK    1  A    between atoms: C4_4  and  N1_7 
REMARK       I    between atoms: N1_7  and  C7_8 
REMARK    2  A    between atoms: C7_8  and  C8_10 
REMARK    3  A    between atoms: C8_10  and  C9_11 
REMARK    4  A    between atoms: C9_11  and  C10_12 
REMARK    5  A    between atoms: C10_12  and  C11_13 
REMARK    6  A    between atoms: C11_13  and  C12_14 
REMARK    7  A    between atoms: C12_14  and  C13_15 
REMARK    8  A    between atoms: C13_15  and  C14_16 
REMARK       I    between atoms: C14_16  and  N2_18 
REMARK    9  A    between atoms: N2_18  and  O3_19 
ROOT
ATOM      1  C8  NON d   1      27.606 -15.948  -0.102  0.00  0.00     0.103 C 
ENDROOT
BRANCH   1   2
ATOM      2  C7  NON d   1      27.287 -14.948   1.003  0.00  0.00     0.222 C 
ATOM      3  N1  NON d   1      28.128 -15.118   2.094  0.00  0.00    -0.327 N 
ATOM      4  H6  NON d   1      28.848 -15.824   2.011  0.00  0.00     0.169 HD
ATOM      5  O1  NON d   1      26.400 -14.114   0.891  0.00  0.00    -0.273 OA
BRANCH   3   6
ATOM      6  C4  NON d   1      28.128 -14.382   3.299  0.00  0.00     0.034 A 
ATOM      7  C3  NON d   1      28.153 -12.983   3.195  0.00  0.00     0.029 A 
ATOM      8  C2  NON d   1      28.152 -12.182   4.340  0.00  0.00     0.002 A 
ATOM      9  C1  NON d   1      28.131 -12.771   5.601  0.00  0.00     0.000 A 
ATOM     10  C6  NON d   1      28.113 -14.159   5.714  0.00  0.00     0.002 A 
ATOM     11  C5  NON d   1      28.110 -14.960   4.568  0.00  0.00     0.029 A 
ENDBRANCH   3   6
ENDBRANCH   1   2
BRANCH   1  12
ATOM     12  C9  NON d   1      26.736 -17.207  -0.065  0.00  0.00     0.009 C 
BRANCH  12  13
ATOM     13  C10 NON d   1      25.246 -16.900  -0.267  0.00  0.00     0.000 C 
BRANCH  13  14
ATOM     14  C11 NON d   1      24.309 -18.050   0.128  0.00  0.00     0.000 C 
BRANCH  14  15
ATOM     15  C12 NON d   1      22.826 -17.854  -0.224  0.00  0.00     0.009 C 
BRANCH  15  16
ATOM     16  C13 NON d   1      22.282 -18.891  -1.199  0.00  0.00     0.105 C 
BRANCH  16  17
ATOM     17  C14 NON d   1      20.900 -19.418  -0.838  0.00  0.00     0.240 C 
ATOM     18  O2  NON d   1      20.021 -19.651  -1.656  0.00  0.00    -0.271 OA
ATOM     19  N2  NON d   1      20.754 -19.523   0.538  0.00  0.00    -0.237 N 
ATOM     20  H19 NON d   1      21.577 -19.688   1.107  0.00  0.00     0.197 HD
BRANCH  19  21
ATOM     21  O3  NON d   1      19.590 -20.195   0.973  0.00  0.00    -0.287 OA
ATOM     22  H20 NON d   1      19.276 -20.614   0.151  0.00  0.00     0.244 HD
ENDBRANCH  19  21
ENDBRANCH  16  17
ENDBRANCH  15  16
ENDBRANCH  14  15
ENDBRANCH  13  14
ENDBRANCH  12  13
ENDBRANCH   1  12
TORSDOF 9
ENDMDL
MODEL 8
REMARK VINA RESULT:    -6.684      2.284      9.212
REMARK INTER + INTRA:         -10.625
REMARK INTER:                  -9.369
REMARK INTRA:                  -1.256
REMARK CONF_INDEPENDENT:        2.685
REMARK UNBOUND:                -1.256
REMARK  9 active torsions:
REMARK  status: ('A' for Active; 'I' for Inactive)
REMARK    1  A    between atoms: C4_4  and  N1_7 
REMARK       I    between atoms: N1_7  and  C7_8 
REMARK    2  A    between atoms: C7_8  and  C8_10 
REMARK    3  A    between atoms: C8_10  and  C9_11 
REMARK    4  A    between atoms: C9_11  and  C10_12 
REMARK    5  A    between atoms: C10_12  and  C11_13 
REMARK    6  A    between atoms: C11_13  and  C12_14 
REMARK    7  A    between atoms: C12_14  and  C13_15 
REMARK    8  A    between atoms: C13_15  and  C14_16 
REMARK       I    between atoms: C14_16  and  N2_18 
REMARK    9  A    between atoms: N2_18  and  O3_19 
ROOT
ATOM      1  C8  NON d   1      25.585 -15.314  -1.745  0.00  0.00     0.103 C 
ENDROOT
BRANCH   1   2
ATOM      2  C7  NON d   1      25.810 -14.948  -3.208  0.00  0.00     0.222 C 
ATOM      3  N1  NON d   1      27.163 -14.891  -3.510  0.00  0.00    -0.327 N 
ATOM      4  H6  NON d   1      27.807 -15.129  -2.768  0.00  0.00     0.169 HD
ATOM      5  O1  NON d   1      24.883 -14.752  -3.980  0.00  0.00    -0.273 OA
BRANCH   3   6
ATOM      6  C4  NON d   1      27.750 -14.580  -4.756  0.00  0.00     0.034 A 
ATOM      7  C3  NON d   1      28.645 -15.518  -5.294  0.00  0.00     0.029 A 
ATOM      8  C2  NON d   1      29.267 -15.287  -6.524  0.00  0.00     0.002 A 
ATOM      9  C1  NON d   1      29.005 -14.114  -7.227  0.00  0.00     0.000 A 
ATOM     10  C6  NON d   1      28.123 -13.175  -6.698  0.00  0.00     0.002 A 
ATOM     11  C5  NON d   1      27.498 -13.408  -5.469  0.00  0.00     0.029 A 
ENDBRANCH   3   6
ENDBRANCH   1   2
BRANCH   1  12
ATOM     12  C9  NON d   1      24.524 -16.398  -1.537  0.00  0.00     0.009 C 
BRANCH  12  13
ATOM     13  C10 NON d   1      25.106 -17.685  -0.938  0.00  0.00     0.000 C 
BRANCH  13  14
ATOM     14  C11 NON d   1      24.053 -18.636  -0.351  0.00  0.00     0.000 C 
BRANCH  14  15
ATOM     15  C12 NON d   1      22.744 -17.978   0.113  0.00  0.00     0.009 C 
BRANCH  15  16
ATOM     16  C13 NON d   1      21.649 -17.972  -0.947  0.00  0.00     0.105 C 
BRANCH  16  17
ATOM     17  C14 NON d   1      20.773 -19.217  -0.944  0.00  0.00     0.240 C 
ATOM     18  O2  NON d   1      20.223 -19.670  -1.937  0.00  0.00    -0.271 OA
ATOM     19  N2  NON d   1      20.627 -19.715   0.343  0.00  0.00    -0.237 N 
ATOM     20  H19 NON d   1      21.368 -19.555   1.018  0.00  0.00     0.197 HD
BRANCH  19  21
ATOM     21  O3  NON d   1      20.009 -20.982   0.435  0.00  0.00    -0.287 OA
ATOM     22  H20 NON d   1      19.994 -21.271  -0.496  0.00  0.00     0.244 HD
ENDBRANCH  19  21
ENDBRANCH  16  17
ENDBRANCH  15  16
ENDBRANCH  14  15
ENDBRANCH  13  14
ENDBRANCH  12  13
ENDBRANCH   1  12
TORSDOF 9
ENDMDL
MODEL 9
REMARK VINA RESULT:    -6.388     10.709     12.828
REMARK INTER + INTRA:         -10.508
REMARK INTER:                  -9.073
REMARK INTRA:                  -1.435
REMARK CONF_INDEPENDENT:        2.685
REMARK UNBOUND:                -1.435
REMARK  9 active torsions:
REMARK  status: ('A' for Active; 'I' for Inactive)
REMARK    1  A    between atoms: C4_4  and  N1_7 
REMARK       I    between atoms: N1_7  and  C7_8 
REMARK    2  A    between atoms: C7_8  and  C8_10 
REMARK    3  A    between atoms: C8_10  and  C9_11 
REMARK    4  A    between atoms: C9_11  and  C10_12 
REMARK    5  A    between atoms: C10_12  and  C11_13 
REMARK    6  A    between atoms: C11_13  and  C12_14 
REMARK    7  A    between atoms: C12_14  and  C13_15 
REMARK    8  A    between atoms: C13_15  and  C14_16 
REMARK       I    between atoms: C14_16  and  N2_18 
REMARK    9  A    between atoms: N2_18  and  O3_19 
ROOT
ATOM      1  C8  NON d   1      30.929 -21.361   4.358  0.00  0.00     0.103 C 
ENDROOT
BRANCH   1   2
ATOM      2  C7  NON d   1      31.577 -21.454   5.734  0.00  0.00     0.222 C 
ATOM      3  N1  NON d   1      32.888 -21.900   5.644  0.00  0.00    -0.327 N 
ATOM      4  H6  NON d   1      33.253 -22.061   4.715  0.00  0.00     0.169 HD
ATOM      5  O1  NON d   1      30.980 -21.152   6.757  0.00  0.00    -0.273 OA
BRANCH   3   6
ATOM      6  C4  NON d   1      33.795 -22.112   6.705  0.00  0.00     0.034 A 
ATOM      7  C3  NON d   1      34.137 -23.440   7.000  0.00  0.00     0.029 A 
ATOM      8  C2  NON d   1      35.030 -23.735   8.034  0.00  0.00     0.002 A 
ATOM      9  C1  NON d   1      35.587 -22.705   8.788  0.00  0.00     0.000 A 
ATOM     10  C6  NON d   1      35.249 -21.384   8.506  0.00  0.00     0.002 A 
ATOM     11  C5  NON d   1      34.358 -21.089   7.470  0.00  0.00     0.029 A 
ENDBRANCH   3   6
ENDBRANCH   1   2
BRANCH   1  12
ATOM     12  C9  NON d   1      31.922 -21.486   3.199  0.00  0.00     0.009 C 
BRANCH  12  13
ATOM     13  C10 NON d   1      32.624 -20.160   2.879  0.00  0.00     0.000 C 
BRANCH  13  14
ATOM     14  C11 NON d   1      33.022 -20.000   1.405  0.00  0.00     0.000 C 
BRANCH  14  15
ATOM     15  C12 NON d   1      31.873 -20.094   0.389  0.00  0.00     0.009 C 
BRANCH  15  16
ATOM     16  C13 NON d   1      31.770 -21.450  -0.300  0.00  0.00     0.105 C 
BRANCH  16  17
ATOM     17  C14 NON d   1      30.802 -22.415   0.369  0.00  0.00     0.240 C 
ATOM     18  O2  NON d   1      30.932 -23.631   0.361  0.00  0.00    -0.271 OA
ATOM     19  N2  NON d   1      29.724 -21.734   0.916  0.00  0.00    -0.237 N 
ATOM     20  H19 NON d   1      29.854 -20.776   1.223  0.00  0.00     0.197 HD
BRANCH  19  21
ATOM     21  O3  NON d   1      28.875 -22.507   1.738  0.00  0.00    -0.287 OA
ATOM     22  H20 NON d   1      29.285 -23.390   1.685  0.00  0.00     0.244 HD
ENDBRANCH  19  21
ENDBRANCH  16  17
ENDBRANCH  15  16
ENDBRANCH  14  15
ENDBRANCH  13  14
ENDBRANCH  12  13
ENDBRANCH   1  12
TORSDOF 9
ENDMDL