MODEL 1
REMARK VINA RESULT:    -9.172      0.000      0.000
REMARK INTER + INTRA:          -9.455
REMARK INTER:                  -9.470
REMARK INTRA:                   0.015
REMARK CONF_INDEPENDENT:        0.298
REMARK UNBOUND:                 0.015
REMARK  1 active torsions:
REMARK  status: ('A' for Active; 'I' for Inactive)
REMARK    1  A    between atoms: O1_2  and  C2_3 
ROOT
HETATM    1  C1  SUB     1     -47.541  16.184  -3.602  0.00  0.00     0.125 C 
HETATM    2  C2  SUB     1     -47.107  16.177  -5.349  0.00  0.00     0.135 C 
HETATM    3  O3  SUB     1     -46.689  15.005  -6.185  0.00  0.00    -0.650 OA
ENDROOT
BRANCH   2   4
HETATM    4  O1  SUB     1     -47.123  17.423  -6.185  0.00  0.00    -0.777 OA
HETATM    5  H1  SUB     1     -46.710  17.218  -7.128  0.00  0.00     0.167 HD
ENDBRANCH   2   4
TORSDOF 1
ENDMDL