MODEL 1
REMARK VINA RESULT:   -33.460      0.000      0.000
REMARK INTER + INTRA:         -35.896
REMARK INTER:                 -34.952
REMARK INTRA:                  -0.945
REMARK CONF_INDEPENDENT:        1.492
REMARK UNBOUND:                -0.945
REMARK  5 active torsions:
REMARK  status: ('A' for Active; 'I' for Inactive)
REMARK    1  A    between atoms: N3_3  and  C1_4 
REMARK    2  A    between atoms: C4_7  and  C5_8 
REMARK       I    between atoms: C5_8  and  N4_10 
REMARK    3  A    between atoms: N4_10  and  C6_11 
REMARK    4  A    between atoms: C8_13  and  C9_14 
REMARK    5  A    between atoms: C17_22  and  N5_23 
ROOT
ATOM      1  N1  NON d   1      18.964 -20.482  -0.187  0.00  0.00     0.068 N 
ATOM      2  N2  NON d   1      19.420 -19.569  -0.699  0.00  0.00    -0.162 NA
ATOM      3  N3  NON d   1      19.905 -18.575  -1.270  0.00  0.00    -0.073 NA
ENDROOT
BRANCH   3   4
ATOM      4  C1  NON d   1      21.247 -18.284  -0.963  0.00  0.00     0.093 A 
ATOM      5  C2  NON d   1      22.092 -19.365  -0.669  0.00  0.00     0.035 A 
ATOM      6  C3  NON d   1      23.441 -19.178  -0.327  0.00  0.00     0.019 A 
ATOM      7  C4  NON d   1      23.969 -17.886  -0.263  0.00  0.00     0.032 A 
ATOM      8  C18 NON d   1      23.127 -16.800  -0.552  0.00  0.00     0.019 A 
ATOM      9  C19 NON d   1      21.783 -16.994  -0.890  0.00  0.00     0.035 A 
BRANCH   7  10
ATOM     10  C5  NON d   1      25.396 -17.575   0.056  0.00  0.00     0.256 C 
ATOM     11  O1  NON d   1      26.089 -18.510   0.448  0.00  0.00    -0.267 OA
ATOM     12  N4  NON d   1      25.826 -16.268  -0.104  0.00  0.00    -0.321 N 
ATOM     13  H3  NON d   1      25.126 -15.562  -0.274  0.00  0.00     0.169 HD
BRANCH  12  14
ATOM     14  C6  NON d   1      27.161 -15.772   0.033  0.00  0.00     0.057 A 
ATOM     15  C7  NON d   1      27.455 -15.119   1.259  0.00  0.00     0.043 A 
ATOM     16  C8  NON d   1      28.723 -14.568   1.568  0.00  0.00    -0.024 A 
ATOM     17  C15 NON d   1      29.687 -14.678   0.554  0.00  0.00     0.014 A 
ATOM     18  C16 NON d   1      29.409 -15.282  -0.675  0.00  0.00     0.026 A 
ATOM     19  C17 NON d   1      28.169 -15.865  -0.945  0.00  0.00     0.033 A 
BRANCH  16  20
ATOM     20  C9  NON d   1      29.035 -13.896   2.877  0.00  0.00    -0.026 A 
ATOM     21  C10 NON d   1      30.265 -13.258   3.130  0.00  0.00     0.012 A 
ATOM     22  C11 NON d   1      30.551 -12.639   4.358  0.00  0.00     0.001 A 
ATOM     23  C12 NON d   1      29.610 -12.637   5.380  0.00  0.00     0.000 A 
ATOM     24  C13 NON d   1      28.384 -13.251   5.172  0.00  0.00     0.001 A 
ATOM     25  C14 NON d   1      28.106 -13.865   3.943  0.00  0.00     0.012 A 
ENDBRANCH  16  20
BRANCH  19  26
ATOM     26  N5  NON d   1      27.934 -16.242  -2.284  0.00  0.00    -0.301 NA
ATOM     27  H12 NON d   1      26.926 -16.282  -2.469  0.00  0.00     0.124 HD
ATOM     28  H13 NON d   1      28.354 -17.133  -2.523  0.00  0.00     0.124 HD
ENDBRANCH  19  26
ENDBRANCH  12  14
ENDBRANCH   7  10
ENDBRANCH   3   4
TORSDOF 5
ENDMDL
MODEL 2
REMARK VINA RESULT:   -33.401      2.506      5.104
REMARK INTER + INTRA:         -36.424
REMARK INTER:                 -34.892
REMARK INTRA:                  -1.532
REMARK CONF_INDEPENDENT:        1.492
REMARK UNBOUND:                -1.532
REMARK  5 active torsions:
REMARK  status: ('A' for Active; 'I' for Inactive)
REMARK    1  A    between atoms: N3_3  and  C1_4 
REMARK    2  A    between atoms: C4_7  and  C5_8 
REMARK       I    between atoms: C5_8  and  N4_10 
REMARK    3  A    between atoms: N4_10  and  C6_11 
REMARK    4  A    between atoms: C8_13  and  C9_14 
REMARK    5  A    between atoms: C17_22  and  N5_23 
ROOT
ATOM      1  N1  NON d   1      19.029 -20.502  -0.167  0.00  0.00     0.068 N 
ATOM      2  N2  NON d   1      19.454 -19.580  -0.688  0.00  0.00    -0.162 NA
ATOM      3  N3  NON d   1      19.905 -18.575  -1.270  0.00  0.00    -0.073 NA
ENDROOT
BRANCH   3   4
ATOM      4  C1  NON d   1      21.259 -18.280  -1.026  0.00  0.00     0.093 A 
ATOM      5  C2  NON d   1      22.136 -19.362  -0.855  0.00  0.00     0.035 A 
ATOM      6  C3  NON d   1      23.501 -19.173  -0.583  0.00  0.00     0.019 A 
ATOM      7  C4  NON d   1      24.013 -17.879  -0.467  0.00  0.00     0.032 A 
ATOM      8  C18 NON d   1      23.140 -16.791  -0.633  0.00  0.00     0.019 A 
ATOM      9  C19 NON d   1      21.780 -16.988  -0.901  0.00  0.00     0.035 A 
BRANCH   7  10
ATOM     10  C5  NON d   1      25.452 -17.563  -0.215  0.00  0.00     0.256 C 
ATOM     11  O1  NON d   1      26.013 -18.215   0.661  0.00  0.00    -0.267 OA
ATOM     12  N4  NON d   1      26.039 -16.563  -0.974  0.00  0.00    -0.321 N 
ATOM     13  H3  NON d   1      25.435 -15.992  -1.544  0.00  0.00     0.169 HD
BRANCH  12  14
ATOM     14  C6  NON d   1      27.416 -16.177  -0.981  0.00  0.00     0.057 A 
ATOM     15  C7  NON d   1      28.093 -16.324  -2.220  0.00  0.00     0.043 A 
ATOM     16  C8  NON d   1      29.456 -15.990  -2.413  0.00  0.00    -0.024 A 
ATOM     17  C15 NON d   1      30.126 -15.526  -1.271  0.00  0.00     0.014 A 
ATOM     18  C16 NON d   1      29.491 -15.409  -0.031  0.00  0.00     0.026 A 
ATOM     19  C17 NON d   1      28.134 -15.694   0.130  0.00  0.00     0.033 A 
BRANCH  16  20
ATOM     20  C9  NON d   1      30.162 -16.128  -3.735  0.00  0.00    -0.026 A 
ATOM     21  C10 NON d   1      31.529 -16.451  -3.836  0.00  0.00     0.012 A 
ATOM     22  C11 NON d   1      32.182 -16.570  -5.074  0.00  0.00     0.001 A 
ATOM     23  C12 NON d   1      31.485 -16.370  -6.259  0.00  0.00     0.000 A 
ATOM     24  C13 NON d   1      30.136 -16.055  -6.204  0.00  0.00     0.001 A 
ATOM     25  C14 NON d   1      29.492 -15.938  -4.965  0.00  0.00     0.012 A 
ENDBRANCH  16  20
BRANCH  19  26
ATOM     26  N5  NON d   1      27.662 -15.755   1.458  0.00  0.00    -0.301 NA
ATOM     27  H12 NON d   1      28.425 -16.015   2.093  0.00  0.00     0.124 HD
ATOM     28  H13 NON d   1      26.893 -16.405   1.575  0.00  0.00     0.124 HD
ENDBRANCH  19  26
ENDBRANCH  12  14
ENDBRANCH   7  10
ENDBRANCH   3   4
TORSDOF 5
ENDMDL
