MODEL 1
REMARK VINA RESULT:   -26.320      0.000      0.000
REMARK INTER + INTRA:         -30.390
REMARK INTER:                 -29.601
REMARK INTRA:                  -0.789
REMARK CONF_INDEPENDENT:        3.281
REMARK UNBOUND:                -0.789
REMARK  11 active torsions:
REMARK  status: ('A' for Active; 'I' for Inactive)
REMARK    1  A    between atoms: O1_2  and  C2_3 
REMARK    2  A    between atoms: C10_12  and  C11_13 
REMARK    3  A    between atoms: C14_17  and  C13_16 
REMARK    4  A    between atoms: C14_17  and  C15_18 
REMARK    5  A    between atoms: C14_17  and  N3_26 
REMARK    6  A    between atoms: C15_18  and  C16_19 
REMARK    7  A    between atoms: C16_19  and  C17_20 
REMARK    8  A    between atoms: C17_20  and  C18_21 
REMARK    9  A    between atoms: C18_21  and  C19_22 
REMARK   10  A    between atoms: C19_22  and  C20_23 
REMARK       I    between atoms: N3_26  and  C22_27 
REMARK   11  A    between atoms: C22_27  and  C23_29 
ROOT
ATOM      1  C14 NON d   1      26.132 -15.529  -0.657  0.00  0.00     0.154 C 
ENDROOT
BRANCH   1   2
ATOM      2  C13 NON d   1      25.183 -16.831  -0.491  0.00  0.00     0.127 C 
ATOM      3  N2  NON d   1      25.375 -17.772   0.512  0.00  0.00    -0.350 N 
ATOM      4  C12 NON d   1      24.259 -18.573   0.612  0.00  0.00     0.122 C 
ATOM      5  H10 NON d   1      26.155 -17.805   1.152  0.00  0.00     0.166 HD
ATOM      6  C11 NON d   1      23.411 -18.203  -0.411  0.00  0.00     0.088 C 
ATOM      7  N5  NON d   1      24.095 -17.223  -1.179  0.00  0.00    -0.231 NA
BRANCH   6   8
ATOM      8  C10 NON d   1      21.982 -18.699  -0.531  0.00  0.00     0.048 A 
ATOM      9  C9  NON d   1      21.672 -19.910   0.133  0.00  0.00     0.032 A 
ATOM     10  C8  NON d   1      20.348 -20.416   0.208  0.00  0.00    -0.006 A 
ATOM     11  C7  NON d   1      19.993 -21.575   0.934  0.00  0.00     0.014 A 
ATOM     12  C3  NON d   1      19.340 -19.709  -0.458  0.00  0.00     0.070 A 
ATOM     13  C6  NON d   1      18.663 -22.012   0.980  0.00  0.00     0.001 A 
ATOM     14  C5  NON d   1      17.679 -21.311   0.292  0.00  0.00     0.002 A 
ATOM     15  C4  NON d   1      18.030 -20.167  -0.422  0.00  0.00     0.032 A 
ATOM     16  N1  NON d   1      19.589 -18.575  -1.104  0.00  0.00    -0.223 NA
ATOM     17  C2  NON d   1      20.842 -18.050  -1.108  0.00  0.00     0.177 A 
BRANCH  17  18
ATOM     18  O1  NON d   1      20.723 -16.783  -1.637  0.00  0.00    -0.339 OA
ATOM     19  C1  NON d   1      21.816 -15.981  -0.907  0.00  0.00     0.211 C 
ENDBRANCH  17  18
ENDBRANCH   6   8
ENDBRANCH   1   2
BRANCH   1  20
ATOM     20  C15 NON d   1      27.411 -15.943  -1.464  0.00  0.00     0.033 C 
BRANCH  20  21
ATOM     21  C16 NON d   1      28.514 -14.888  -1.649  0.00  0.00     0.002 C 
BRANCH  21  22
ATOM     22  C17 NON d   1      28.510 -14.133  -2.996  0.00  0.00     0.000 C 
BRANCH  22  23
ATOM     23  C18 NON d   1      27.683 -12.843  -3.027  0.00  0.00     0.007 C 
BRANCH  23  24
ATOM     24  C19 NON d   1      26.545 -12.839  -4.054  0.00  0.00     0.077 C 
BRANCH  24  25
ATOM     25  C20 NON d   1      25.892 -14.201  -4.205  0.00  0.00     0.123 C 
ATOM     26  C21 NON d   1      26.627 -15.228  -5.027  0.00  0.00     0.091 C 
ATOM     27  O2  NON d   1      24.785 -14.456  -3.728  0.00  0.00    -0.298 OA
ENDBRANCH  24  25
ENDBRANCH  23  24
ENDBRANCH  22  23
ENDBRANCH  21  22
ENDBRANCH  20  21
ENDBRANCH   1  20
BRANCH   1  28
ATOM     28  N3  NON d   1      26.580 -14.905   0.656  0.00  0.00    -0.349 N 
ATOM     29  C22 NON d   1      26.987 -13.555   0.829  0.00  0.00     0.225 C 
ATOM     30  O3  NON d   1      26.762 -12.710  -0.037  0.00  0.00    -0.273 OA
ATOM     31  H25 NON d   1      26.867 -15.571   1.358  0.00  0.00     0.163 HD
BRANCH  29  32
ATOM     32  C23 NON d   1      27.701 -13.183   2.203  0.00  0.00     0.129 C 
ATOM     33  C24 NON d   1      27.795 -14.165   3.486  0.00  0.00     0.250 C 
ATOM     34  N4  NON d   1      29.180 -13.530   3.702  0.00  0.00    -0.073 N 
ATOM     35  C25 NON d   1      29.926 -14.816   4.192  0.00  0.00     0.269 C 
ATOM     36  C26 NON d   1      29.218 -13.454   2.175  0.00  0.00     0.250 C 
ATOM     37  H29 NON d   1      30.566 -12.894   3.919  0.00  0.00     0.279 HD
ENDBRANCH  29  32
ENDBRANCH   1  28
TORSDOF 11
ENDMDL
MODEL 2
REMARK VINA RESULT:   -25.184      1.492      2.132
REMARK INTER + INTRA:         -30.404
REMARK INTER:                 -28.465
REMARK INTRA:                  -1.939
REMARK CONF_INDEPENDENT:        3.281
REMARK UNBOUND:                -1.939
REMARK  11 active torsions:
REMARK  status: ('A' for Active; 'I' for Inactive)
REMARK    1  A    between atoms: O1_2  and  C2_3 
REMARK    2  A    between atoms: C10_12  and  C11_13 
REMARK    3  A    between atoms: C14_17  and  C13_16 
REMARK    4  A    between atoms: C14_17  and  C15_18 
REMARK    5  A    between atoms: C14_17  and  N3_26 
REMARK    6  A    between atoms: C15_18  and  C16_19 
REMARK    7  A    between atoms: C16_19  and  C17_20 
REMARK    8  A    between atoms: C17_20  and  C18_21 
REMARK    9  A    between atoms: C18_21  and  C19_22 
REMARK   10  A    between atoms: C19_22  and  C20_23 
REMARK       I    between atoms: N3_26  and  C22_27 
REMARK   11  A    between atoms: C22_27  and  C23_29 
ROOT
ATOM      1  C14 NON d   1      26.272 -15.774  -1.068  0.00  0.00     0.154 C 
ENDROOT
BRANCH   1   2
ATOM      2  C13 NON d   1      25.264 -16.981  -0.684  0.00  0.00     0.127 C 
ATOM      3  N2  NON d   1      25.353 -17.676   0.515  0.00  0.00    -0.350 N 
ATOM      4  C12 NON d   1      24.202 -18.407   0.712  0.00  0.00     0.122 C 
ATOM      5  H10 NON d   1      26.090 -17.584   1.201  0.00  0.00     0.166 HD
ATOM      6  C11 NON d   1      23.437 -18.257  -0.426  0.00  0.00     0.088 C 
ATOM      7  N5  NON d   1      24.207 -17.492  -1.342  0.00  0.00    -0.231 NA
BRANCH   6   8
ATOM      8  C10 NON d   1      22.001 -18.732  -0.534  0.00  0.00     0.048 A 
ATOM      9  C9  NON d   1      21.678 -19.937   0.137  0.00  0.00     0.032 A 
ATOM     10  C8  NON d   1      20.348 -20.423   0.224  0.00  0.00    -0.006 A 
ATOM     11  C7  NON d   1      19.981 -21.575   0.955  0.00  0.00     0.014 A 
ATOM     12  C3  NON d   1      19.345 -19.704  -0.437  0.00  0.00     0.070 A 
ATOM     13  C6  NON d   1      18.646 -21.992   1.013  0.00  0.00     0.001 A 
ATOM     14  C5  NON d   1      17.667 -21.279   0.330  0.00  0.00     0.002 A 
ATOM     15  C4  NON d   1      18.029 -20.143  -0.390  0.00  0.00     0.032 A 
ATOM     16  N1  NON d   1      19.605 -18.576  -1.089  0.00  0.00    -0.223 NA
ATOM     17  C2  NON d   1      20.866 -18.069  -1.104  0.00  0.00     0.177 A 
BRANCH  17  18
ATOM     18  O1  NON d   1      20.761 -16.802  -1.636  0.00  0.00    -0.339 OA
ATOM     19  C1  NON d   1      21.858 -16.008  -0.903  0.00  0.00     0.211 C 
ENDBRANCH  17  18
ENDBRANCH   6   8
ENDBRANCH   1   2
BRANCH   1  20
ATOM     20  C15 NON d   1      26.717 -15.950  -2.560  0.00  0.00     0.033 C 
BRANCH  20  21
ATOM     21  C16 NON d   1      26.542 -14.751  -3.506  0.00  0.00     0.002 C 
BRANCH  21  22
ATOM     22  C17 NON d   1      27.840 -14.034  -3.939  0.00  0.00     0.000 C 
BRANCH  22  23
ATOM     23  C18 NON d   1      28.928 -14.939  -4.527  0.00  0.00     0.007 C 
BRANCH  23  24
ATOM     24  C19 NON d   1      30.219 -15.003  -3.703  0.00  0.00     0.077 C 
BRANCH  24  25
ATOM     25  C20 NON d   1      30.226 -16.158  -2.719  0.00  0.00     0.123 C 
ATOM     26  C21 NON d   1      30.599 -17.516  -3.256  0.00  0.00     0.091 C 
ATOM     27  O2  NON d   1      29.895 -16.020  -1.540  0.00  0.00    -0.298 OA
ENDBRANCH  24  25
ENDBRANCH  23  24
ENDBRANCH  22  23
ENDBRANCH  21  22
ENDBRANCH  20  21
ENDBRANCH   1  20
BRANCH   1  28
ATOM     28  N3  NON d   1      27.523 -15.701  -0.205  0.00  0.00    -0.349 N 
ATOM     29  C22 NON d   1      27.805 -14.688   0.751  0.00  0.00     0.225 C 
ATOM     30  O3  NON d   1      26.925 -13.919   1.137  0.00  0.00    -0.273 OA
ATOM     31  H25 NON d   1      28.301 -16.245  -0.550  0.00  0.00     0.163 HD
BRANCH  29  32
ATOM     32  C23 NON d   1      29.290 -14.625   1.325  0.00  0.00     0.129 C 
ATOM     33  C24 NON d   1      30.192 -13.283   1.393  0.00  0.00     0.250 C 
ATOM     34  N4  NON d   1      30.737 -13.878   2.704  0.00  0.00    -0.073 N 
ATOM     35  C25 NON d   1      30.859 -12.540   3.506  0.00  0.00     0.269 C 
ATOM     36  C26 NON d   1      29.327 -14.450   2.856  0.00  0.00     0.250 C 
ATOM     37  H29 NON d   1      31.283 -14.474   4.015  0.00  0.00     0.279 HD
ENDBRANCH  29  32
ENDBRANCH   1  28
TORSDOF 11
ENDMDL
MODEL 3
REMARK VINA RESULT:   -24.962      2.390      3.059
REMARK INTER + INTRA:         -30.550
REMARK INTER:                 -28.243
REMARK INTRA:                  -2.307
REMARK CONF_INDEPENDENT:        3.281
REMARK UNBOUND:                -2.307
REMARK  11 active torsions:
REMARK  status: ('A' for Active; 'I' for Inactive)
REMARK    1  A    between atoms: O1_2  and  C2_3 
REMARK    2  A    between atoms: C10_12  and  C11_13 
REMARK    3  A    between atoms: C14_17  and  C13_16 
REMARK    4  A    between atoms: C14_17  and  C15_18 
REMARK    5  A    between atoms: C14_17  and  N3_26 
REMARK    6  A    between atoms: C15_18  and  C16_19 
REMARK    7  A    between atoms: C16_19  and  C17_20 
REMARK    8  A    between atoms: C17_20  and  C18_21 
REMARK    9  A    between atoms: C18_21  and  C19_22 
REMARK   10  A    between atoms: C19_22  and  C20_23 
REMARK       I    between atoms: N3_26  and  C22_27 
REMARK   11  A    between atoms: C22_27  and  C23_29 
ROOT
ATOM      1  C14 NON d   1      26.238 -15.706  -0.969  0.00  0.00     0.154 C 
ENDROOT
BRANCH   1   2
ATOM      2  C13 NON d   1      25.233 -16.919  -0.592  0.00  0.00     0.127 C 
ATOM      3  N2  NON d   1      25.300 -17.596   0.618  0.00  0.00    -0.350 N 
ATOM      4  C12 NON d   1      24.153 -18.337   0.797  0.00  0.00     0.122 C 
ATOM      5  H10 NON d   1      26.019 -17.486   1.320  0.00  0.00     0.166 HD
ATOM      6  C11 NON d   1      23.414 -18.211  -0.361  0.00  0.00     0.088 C 
ATOM      7  N5  NON d   1      24.198 -17.451  -1.269  0.00  0.00    -0.231 NA
BRANCH   6   8
ATOM      8  C10 NON d   1      21.986 -18.704  -0.497  0.00  0.00     0.048 A 
ATOM      9  C9  NON d   1      21.666 -19.915   0.164  0.00  0.00     0.032 A 
ATOM     10  C8  NON d   1      20.340 -20.417   0.224  0.00  0.00    -0.006 A 
ATOM     11  C7  NON d   1      19.974 -21.575   0.946  0.00  0.00     0.014 A 
ATOM     12  C3  NON d   1      19.341 -19.709  -0.453  0.00  0.00     0.070 A 
ATOM     13  C6  NON d   1      18.643 -22.010   0.977  0.00  0.00     0.001 A 
ATOM     14  C5  NON d   1      17.668 -21.307   0.278  0.00  0.00     0.002 A 
ATOM     15  C4  NON d   1      18.030 -20.164  -0.432  0.00  0.00     0.032 A 
ATOM     16  N1  NON d   1      19.599 -18.575  -1.097  0.00  0.00    -0.223 NA
ATOM     17  C2  NON d   1      20.854 -18.053  -1.087  0.00  0.00     0.177 A 
BRANCH  17  18
ATOM     18  O1  NON d   1      20.743 -16.785  -1.617  0.00  0.00    -0.339 OA
ATOM     19  C1  NON d   1      21.860 -15.997  -0.909  0.00  0.00     0.211 C 
ENDBRANCH  17  18
ENDBRANCH   6   8
ENDBRANCH   1   2
BRANCH   1  20
ATOM     20  C15 NON d   1      25.703 -14.996  -2.259  0.00  0.00     0.033 C 
BRANCH  20  21
ATOM     21  C16 NON d   1      25.656 -15.813  -3.560  0.00  0.00     0.002 C 
BRANCH  21  22
ATOM     22  C17 NON d   1      25.723 -15.002  -4.873  0.00  0.00     0.000 C 
BRANCH  22  23
ATOM     23  C18 NON d   1      27.005 -14.188  -5.079  0.00  0.00     0.007 C 
BRANCH  23  24
ATOM     24  C19 NON d   1      28.301 -14.997  -4.960  0.00  0.00     0.077 C 
BRANCH  24  25
ATOM     25  C20 NON d   1      29.416 -14.217  -4.286  0.00  0.00     0.123 C 
ATOM     26  C21 NON d   1      30.179 -13.235  -5.137  0.00  0.00     0.091 C 
ATOM     27  O2  NON d   1      29.730 -14.403  -3.109  0.00  0.00    -0.298 OA
ENDBRANCH  24  25
ENDBRANCH  23  24
ENDBRANCH  22  23
ENDBRANCH  21  22
ENDBRANCH  20  21
ENDBRANCH   1  20
BRANCH   1  28
ATOM     28  N3  NON d   1      27.675 -16.136  -1.224  0.00  0.00    -0.349 N 
ATOM     29  C22 NON d   1      28.352 -17.187  -0.549  0.00  0.00     0.225 C 
ATOM     30  O3  NON d   1      27.732 -18.007   0.129  0.00  0.00    -0.273 OA
ATOM     31  H25 NON d   1      28.240 -15.444  -1.693  0.00  0.00     0.163 HD
BRANCH  29  32
ATOM     32  C23 NON d   1      29.930 -17.278  -0.746  0.00  0.00     0.129 C 
ATOM     33  C24 NON d   1      30.730 -16.705  -2.030  0.00  0.00     0.250 C 
ATOM     34  N4  NON d   1      31.841 -16.368  -1.019  0.00  0.00    -0.073 N 
ATOM     35  C25 NON d   1      32.300 -15.014  -1.655  0.00  0.00     0.269 C 
ATOM     36  C26 NON d   1      30.681 -16.124  -0.053  0.00  0.00     0.250 C 
ATOM     37  H29 NON d   1      32.953 -16.032  -0.007  0.00  0.00     0.279 HD
ENDBRANCH  29  32
ENDBRANCH   1  28
TORSDOF 11
ENDMDL
