MODEL 1
REMARK VINA RESULT:   -17.792      0.000      0.000
REMARK INTER + INTRA:         -20.830
REMARK INTER:                 -19.284
REMARK INTRA:                  -1.546
REMARK CONF_INDEPENDENT:        1.492
REMARK UNBOUND:                -1.546
REMARK  5 active torsions:
REMARK  status: ('A' for Active; 'I' for Inactive)
REMARK    1  A    between atoms: N1_1  and  C1_2 
REMARK    2  A    between atoms: C4_5  and  C5_6 
REMARK    3  A    between atoms: C10_12  and  N2_13 
REMARK       I    between atoms: N2_13  and  C11_14 
REMARK    4  A    between atoms: C11_14  and  C12_16 
REMARK    5  A    between atoms: C15_19  and  N3_20 
ROOT
ATOM      1  C12 NON d   1      23.499 -17.550  -0.300  0.00  0.00     0.050 A 
ATOM      2  C13 NON d   1      24.507 -18.178   0.426  0.00  0.00     0.022 A 
ATOM      3  C14 NON d   1      25.831 -17.769   0.279  0.00  0.00     0.051 A 
ATOM      4  C15 NON d   1      26.150 -16.710  -0.574  0.00  0.00     0.125 A 
ATOM      5  N5  NON d   1      25.184 -16.121  -1.317  0.00  0.00    -0.242 NA
ATOM      6  C24 NON d   1      23.893 -16.542  -1.162  0.00  0.00     0.136 A 
ENDROOT
BRANCH   1   7
ATOM      7  C11 NON d   1      22.092 -17.957  -0.041  0.00  0.00     0.257 C 
ATOM      8  N2  NON d   1      21.861 -18.896   0.948  0.00  0.00    -0.321 N 
ATOM      9  H9  NON d   1      22.631 -19.256   1.498  0.00  0.00     0.169 HD
ATOM     10  O1  NON d   1      21.231 -17.432  -0.740  0.00  0.00    -0.267 OA
BRANCH   8  11
ATOM     11  C10 NON d   1      20.595 -19.343   1.416  0.00  0.00     0.057 A 
ATOM     12  C9  NON d   1      20.310 -19.598   2.766  0.00  0.00     0.044 A 
ATOM     13  C4  NON d   1      19.083 -20.150   3.183  0.00  0.00    -0.017 A 
ATOM     14  C3  NON d   1      18.145 -20.448   2.183  0.00  0.00     0.014 A 
ATOM     15  C2  NON d   1      18.405 -20.184   0.833  0.00  0.00     0.026 A 
ATOM     16  C1  NON d   1      19.605 -19.586   0.444  0.00  0.00     0.033 A 
BRANCH  13  17
ATOM     17  C5  NON d   1      18.778 -20.433   4.611  0.00  0.00     0.015 A 
ATOM     18  C6  NON d   1      19.529 -21.133   5.545  0.00  0.00     0.020 A 
ATOM     19  C7  NON d   1      18.917 -21.204   6.834  0.00  0.00     0.008 A 
ATOM     20  C8  NON d   1      17.707 -20.557   6.860  0.00  0.00     0.050 A 
ATOM     21  S1  NON d   1      17.323 -19.868   5.351  0.00  0.00    -0.101 SA
ENDBRANCH  13  17
BRANCH  16  22
ATOM     22  N1  NON d   1      19.855 -19.325  -0.924  0.00  0.00    -0.301 NA
ATOM     23  H1  NON d   1      19.617 -18.371  -1.182  0.00  0.00     0.124 HD
ATOM     24  H2  NON d   1      20.831 -19.507  -1.147  0.00  0.00     0.124 HD
ENDBRANCH  16  22
ENDBRANCH   8  11
ENDBRANCH   1   7
BRANCH   4  25
ATOM     25  N3  NON d   1      27.477 -16.251  -0.653  0.00  0.00    -0.366 N 
ATOM     26  C16 NON d   1      28.115 -16.451  -1.958  0.00  0.00     0.125 C 
ATOM     27  C17 NON d   1      29.566 -16.905  -1.807  0.00  0.00     0.031 C 
ATOM     28  C18 NON d   1      30.375 -15.978  -0.889  0.00  0.00    -0.012 C 
ATOM     29  C19 NON d   1      30.789 -14.682  -1.613  0.00  0.00     0.039 C 
ATOM     30  C21 NON d   1      31.746 -16.592  -0.594  0.00  0.00     0.241 C 
ATOM     31  C22 NON d   1      29.591 -15.666   0.419  0.00  0.00     0.031 C 
ATOM     32  C20 NON d   1      32.063 -14.210  -0.929  0.00  0.00     0.233 C 
ATOM     33  N4  NON d   1      32.594 -15.419  -0.221  0.00  0.00    -0.074 N 
ATOM     34  H20 NON d   1      33.584 -15.587  -0.450  0.00  0.00     0.277 HD
ATOM     35  H21 NON d   1      32.556 -15.266   0.797  0.00  0.00     0.277 HD
ATOM     36  C23 NON d   1      28.283 -16.464   0.546  0.00  0.00     0.125 C 
ENDBRANCH   4  25
TORSDOF 5
ENDMDL
MODEL 2
REMARK VINA RESULT:   -17.069      1.180      1.752
REMARK INTER + INTRA:         -19.955
REMARK INTER:                 -18.561
REMARK INTRA:                  -1.395
REMARK CONF_INDEPENDENT:        1.492
REMARK UNBOUND:                -1.395
REMARK  5 active torsions:
REMARK  status: ('A' for Active; 'I' for Inactive)
REMARK    1  A    between atoms: N1_1  and  C1_2 
REMARK    2  A    between atoms: C4_5  and  C5_6 
REMARK    3  A    between atoms: C10_12  and  N2_13 
REMARK       I    between atoms: N2_13  and  C11_14 
REMARK    4  A    between atoms: C11_14  and  C12_16 
REMARK    5  A    between atoms: C15_19  and  N3_20 
ROOT
ATOM      1  C12 NON d   1      23.352 -17.511  -0.538  0.00  0.00     0.050 A 
ATOM      2  C13 NON d   1      23.582 -16.200  -0.946  0.00  0.00     0.022 A 
ATOM      3  C14 NON d   1      24.866 -15.799  -1.315  0.00  0.00     0.051 A 
ATOM      4  C15 NON d   1      25.919 -16.715  -1.302  0.00  0.00     0.125 A 
ATOM      5  N5  NON d   1      25.716 -17.980  -0.865  0.00  0.00    -0.242 NA
ATOM      6  C24 NON d   1      24.451 -18.351  -0.504  0.00  0.00     0.136 A 
ENDROOT
BRANCH   1   7
ATOM      7  C11 NON d   1      21.951 -17.917  -0.245  0.00  0.00     0.257 C 
ATOM      8  N2  NON d   1      21.747 -18.883   0.724  0.00  0.00    -0.321 N 
ATOM      9  H9  NON d   1      22.532 -19.263   1.237  0.00  0.00     0.169 HD
ATOM     10  O1  NON d   1      21.071 -17.367  -0.900  0.00  0.00    -0.267 OA
BRANCH   8  11
ATOM     11  C10 NON d   1      20.494 -19.336   1.220  0.00  0.00     0.057 A 
ATOM     12  C9  NON d   1      20.240 -19.591   2.576  0.00  0.00     0.044 A 
ATOM     13  C4  NON d   1      19.025 -20.148   3.021  0.00  0.00    -0.017 A 
ATOM     14  C3  NON d   1      18.067 -20.452   2.042  0.00  0.00     0.014 A 
ATOM     15  C2  NON d   1      18.296 -20.188   0.687  0.00  0.00     0.026 A 
ATOM     16  C1  NON d   1      19.484 -19.585   0.271  0.00  0.00     0.033 A 
BRANCH  13  17
ATOM     17  C5  NON d   1      18.754 -20.431   4.455  0.00  0.00     0.015 A 
ATOM     18  C6  NON d   1      19.530 -21.127   5.374  0.00  0.00     0.020 A 
ATOM     19  C7  NON d   1      18.947 -21.199   6.676  0.00  0.00     0.008 A 
ATOM     20  C8  NON d   1      17.734 -20.558   6.728  0.00  0.00     0.050 A 
ATOM     21  S1  NON d   1      17.312 -19.874   5.227  0.00  0.00    -0.101 SA
ENDBRANCH  13  17
BRANCH  16  22
ATOM     22  N1  NON d   1      19.701 -19.323  -1.103  0.00  0.00    -0.301 NA
ATOM     23  H1  NON d   1      19.690 -18.328  -1.311  0.00  0.00     0.124 HD
ATOM     24  H2  NON d   1      20.586 -19.726  -1.404  0.00  0.00     0.124 HD
ENDBRANCH  16  22
ENDBRANCH   8  11
ENDBRANCH   1   7
BRANCH   4  25
ATOM     25  N3  NON d   1      27.193 -16.322  -1.752  0.00  0.00    -0.366 N 
ATOM     26  C16 NON d   1      28.284 -16.593  -0.811  0.00  0.00     0.125 C 
ATOM     27  C17 NON d   1      29.283 -15.439  -0.766  0.00  0.00     0.031 C 
ATOM     28  C18 NON d   1      29.789 -15.049  -2.162  0.00  0.00    -0.012 C 
ATOM     29  C19 NON d   1      30.856 -16.037  -2.674  0.00  0.00     0.039 C 
ATOM     30  C21 NON d   1      30.606 -13.757  -2.087  0.00  0.00     0.241 C 
ATOM     31  C22 NON d   1      28.608 -14.926  -3.169  0.00  0.00     0.031 C 
ATOM     32  C20 NON d   1      31.726 -15.247  -3.641  0.00  0.00     0.233 C 
ATOM     33  N4  NON d   1      31.476 -13.810  -3.302  0.00  0.00    -0.074 N 
ATOM     34  H20 NON d   1      32.357 -13.298  -3.151  0.00  0.00     0.277 HD
ATOM     35  H21 NON d   1      31.006 -13.346  -4.093  0.00  0.00     0.277 HD
ATOM     36  C23 NON d   1      27.228 -15.071  -2.505  0.00  0.00     0.125 C 
ENDBRANCH   4  25
TORSDOF 5
ENDMDL
MODEL 3
REMARK VINA RESULT:   -16.687      1.969      2.305
REMARK INTER + INTRA:         -19.529
REMARK INTER:                 -18.179
REMARK INTRA:                  -1.350
REMARK CONF_INDEPENDENT:        1.492
REMARK UNBOUND:                -1.350
REMARK  5 active torsions:
REMARK  status: ('A' for Active; 'I' for Inactive)
REMARK    1  A    between atoms: N1_1  and  C1_2 
REMARK    2  A    between atoms: C4_5  and  C5_6 
REMARK    3  A    between atoms: C10_12  and  N2_13 
REMARK       I    between atoms: N2_13  and  C11_14 
REMARK    4  A    between atoms: C11_14  and  C12_16 
REMARK    5  A    between atoms: C15_19  and  N3_20 
ROOT
ATOM      1  C12 NON d   1      23.372 -17.730  -0.858  0.00  0.00     0.050 A 
ATOM      2  C13 NON d   1      24.710 -18.111  -0.807  0.00  0.00     0.022 A 
ATOM      3  C14 NON d   1      25.708 -17.197  -1.141  0.00  0.00     0.051 A 
ATOM      4  C15 NON d   1      25.374 -15.891  -1.502  0.00  0.00     0.125 A 
ATOM      5  N5  NON d   1      24.075 -15.522  -1.597  0.00  0.00    -0.242 NA
ATOM      6  C24 NON d   1      23.112 -16.435  -1.270  0.00  0.00     0.136 A 
ENDROOT
BRANCH   1   7
ATOM      7  C11 NON d   1      22.347 -18.708  -0.403  0.00  0.00     0.257 C 
ATOM      8  N2  NON d   1      21.670 -18.437   0.773  0.00  0.00    -0.321 N 
ATOM      9  H9  NON d   1      21.848 -17.576   1.276  0.00  0.00     0.169 HD
ATOM     10  O1  NON d   1      22.185 -19.700  -1.107  0.00  0.00    -0.267 OA
BRANCH   8  11
ATOM     11  C10 NON d   1      20.594 -19.185   1.324  0.00  0.00     0.057 A 
ATOM     12  C9  NON d   1      20.518 -19.557   2.675  0.00  0.00     0.044 A 
ATOM     13  C4  NON d   1      19.498 -20.396   3.166  0.00  0.00    -0.017 A 
ATOM     14  C3  NON d   1      18.554 -20.862   2.239  0.00  0.00     0.014 A 
ATOM     15  C2  NON d   1      18.604 -20.487   0.891  0.00  0.00     0.026 A 
ATOM     16  C1  NON d   1      19.590 -19.610   0.434  0.00  0.00     0.033 A 
BRANCH  13  17
ATOM     17  C5  NON d   1      19.417 -20.803   4.594  0.00  0.00     0.015 A 
ATOM     18  C6  NON d   1      18.970 -20.075   5.689  0.00  0.00     0.020 A 
ATOM     19  C7  NON d   1      19.034 -20.796   6.920  0.00  0.00     0.008 A 
ATOM     20  C8  NON d   1      19.530 -22.064   6.743  0.00  0.00     0.050 A 
ATOM     21  S1  NON d   1      19.905 -22.377   5.112  0.00  0.00    -0.101 SA
ENDBRANCH  13  17
BRANCH  16  22
ATOM     22  N1  NON d   1      19.629 -19.240  -0.931  0.00  0.00    -0.301 NA
ATOM     23  H1  NON d   1      20.413 -19.662  -1.421  0.00  0.00     0.124 HD
ATOM     24  H2  NON d   1      18.759 -19.496  -1.393  0.00  0.00     0.124 HD
ENDBRANCH  16  22
ENDBRANCH   8  11
ENDBRANCH   1   7
BRANCH   4  25
ATOM     25  N3  NON d   1      26.392 -14.954  -1.758  0.00  0.00    -0.366 N 
ATOM     26  C16 NON d   1      26.184 -14.140  -2.960  0.00  0.00     0.125 C 
ATOM     27  C17 NON d   1      27.485 -13.946  -3.735  0.00  0.00     0.031 C 
ATOM     28  C18 NON d   1      28.619 -13.413  -2.848  0.00  0.00    -0.012 C 
ATOM     29  C19 NON d   1      28.474 -11.900  -2.590  0.00  0.00     0.039 C 
ATOM     30  C21 NON d   1      29.946 -13.447  -3.611  0.00  0.00     0.241 C 
ATOM     31  C22 NON d   1      28.703 -14.206  -1.512  0.00  0.00     0.031 C 
ATOM     32  C20 NON d   1      29.882 -11.382  -2.337  0.00  0.00     0.233 C 
ATOM     33  N4  NON d   1      30.788 -12.425  -2.915  0.00  0.00    -0.074 N 
ATOM     34  H20 NON d   1      31.479 -12.012  -3.558  0.00  0.00     0.277 HD
ATOM     35  H21 NON d   1      31.328 -12.869  -2.159  0.00  0.00     0.277 HD
ATOM     36  C23 NON d   1      27.747 -15.410  -1.462  0.00  0.00     0.125 C 
ENDBRANCH   4  25
TORSDOF 5
ENDMDL
