MODEL 1
REMARK VINA RESULT:    -9.528      0.000      0.000
REMARK INTER + INTRA:         -12.123
REMARK INTER:                 -10.721
REMARK INTRA:                  -1.402
REMARK CONF_INDEPENDENT:        1.193
REMARK UNBOUND:                -1.402
REMARK  4 active torsions:
REMARK  status: ('A' for Active; 'I' for Inactive)
REMARK    1  A    between atoms: N2_13  and  C12_14 
REMARK    2  A    between atoms: C12_14  and  C13_15 
REMARK    3  A    between atoms: C16_18  and  C17_19 
REMARK       I    between atoms: C17_19  and  N3_21 
REMARK    4  A    between atoms: N3_21  and  O2_22 
ROOT
ATOM      1  C1  NON d   1      31.893 -17.759  -1.883  0.00  0.00     0.310 C 
ATOM      2  N1  NON d   1      30.441 -17.592  -1.808  0.00  0.00     0.088 N 
ATOM      3  C2  NON d   1      29.999 -17.489  -0.402  0.00  0.00     0.278 C 
ATOM      4  C3  NON d   1      28.452 -17.407  -0.225  0.00  0.00     0.088 C 
ATOM      5  C4  NON d   1      27.847 -16.532  -1.273  0.00  0.00     0.023 A 
ATOM      6  C5  NON d   1      28.581 -16.123  -2.380  0.00  0.00     0.005 A 
ATOM      7  C6  NON d   1      27.709 -15.438  -3.260  0.00  0.00     0.001 A 
ATOM      8  C7  NON d   1      27.872 -14.841  -4.528  0.00  0.00     0.014 A 
ATOM      9  C8  NON d   1      26.775 -14.258  -5.168  0.00  0.00     0.001 A 
ATOM     10  C9  NON d   1      25.529 -14.254  -4.558  0.00  0.00     0.002 A 
ATOM     11  C10 NON d   1      25.347 -14.822  -3.293  0.00  0.00     0.030 A 
ATOM     12  C11 NON d   1      26.454 -15.420  -2.655  0.00  0.00     0.045 A 
ATOM     13  N2  NON d   1      26.559 -16.063  -1.406  0.00  0.00    -0.345 N 
ATOM     14  C20 NON d   1      30.042 -16.392  -2.573  0.00  0.00     0.313 C 
ENDROOT
BRANCH  13  15
ATOM     15  C12 NON d   1      25.372 -16.076  -0.531  0.00  0.00     0.167 C 
BRANCH  15  16
ATOM     16  C13 NON d   1      24.211 -17.020  -0.701  0.00  0.00    -0.040 A 
ATOM     17  C14 NON d   1      22.928 -16.475  -0.924  0.00  0.00     0.010 A 
ATOM     18  C15 NON d   1      21.780 -17.272  -0.886  0.00  0.00     0.017 A 
ATOM     19  C16 NON d   1      21.897 -18.642  -0.667  0.00  0.00     0.034 A 
ATOM     20  C18 NON d   1      23.155 -19.205  -0.430  0.00  0.00     0.017 A 
ATOM     21  C19 NON d   1      24.293 -18.387  -0.403  0.00  0.00     0.010 A 
BRANCH  19  22
ATOM     22  C17 NON d   1      20.665 -19.465  -0.629  0.00  0.00     0.275 C 
ATOM     23  O1  NON d   1      20.015 -19.701  -1.643  0.00  0.00    -0.265 OA
ATOM     24  N3  NON d   1      20.340 -19.988   0.602  0.00  0.00    -0.233 N 
ATOM     25  H16 NON d   1      21.044 -20.120   1.322  0.00  0.00     0.197 HD
BRANCH  24  26
ATOM     26  O2  NON d   1      19.282 -20.930   0.588  0.00  0.00    -0.287 OA
ATOM     27  H17 NON d   1      19.309 -21.264  -0.337  0.00  0.00     0.244 HD
ENDBRANCH  24  26
ENDBRANCH  19  22
ENDBRANCH  15  16
ENDBRANCH  13  15
TORSDOF 4
ENDMDL
MODEL 2
REMARK VINA RESULT:    -8.837      2.475      3.276
REMARK INTER + INTRA:         -11.460
REMARK INTER:                 -10.031
REMARK INTRA:                  -1.429
REMARK CONF_INDEPENDENT:        1.193
REMARK UNBOUND:                -1.429
REMARK  4 active torsions:
REMARK  status: ('A' for Active; 'I' for Inactive)
REMARK    1  A    between atoms: N2_13  and  C12_14 
REMARK    2  A    between atoms: C12_14  and  C13_15 
REMARK    3  A    between atoms: C16_18  and  C17_19 
REMARK       I    between atoms: C17_19  and  N3_21 
REMARK    4  A    between atoms: N3_21  and  O2_22 
ROOT
ATOM      1  C1  NON d   1      28.538 -10.908   1.898  0.00  0.00     0.310 C 
ATOM      2  N1  NON d   1      28.240 -12.143   1.171  0.00  0.00     0.088 N 
ATOM      3  C2  NON d   1      27.765 -13.193   2.096  0.00  0.00     0.278 C 
ATOM      4  C3  NON d   1      27.517 -14.574   1.419  0.00  0.00     0.088 C 
ATOM      5  C4  NON d   1      26.875 -14.399   0.081  0.00  0.00     0.023 A 
ATOM      6  C5  NON d   1      26.807 -13.150  -0.525  0.00  0.00     0.005 A 
ATOM      7  C6  NON d   1      26.287 -13.321  -1.831  0.00  0.00     0.001 A 
ATOM      8  C7  NON d   1      26.031 -12.440  -2.903  0.00  0.00     0.014 A 
ATOM      9  C8  NON d   1      25.533 -12.939  -4.109  0.00  0.00     0.001 A 
ATOM     10  C9  NON d   1      25.280 -14.297  -4.254  0.00  0.00     0.002 A 
ATOM     11  C10 NON d   1      25.508 -15.186  -3.200  0.00  0.00     0.030 A 
ATOM     12  C11 NON d   1      26.021 -14.680  -1.988  0.00  0.00     0.045 A 
ATOM     13  N2  NON d   1      26.350 -15.333  -0.783  0.00  0.00    -0.345 N 
ATOM     14  C20 NON d   1      27.233 -11.869   0.125  0.00  0.00     0.313 C 
ENDROOT
BRANCH  13  15
ATOM     15  C12 NON d   1      26.054 -16.773  -0.673  0.00  0.00     0.167 C 
BRANCH  15  16
ATOM     16  C13 NON d   1      24.667 -17.339  -0.515  0.00  0.00    -0.040 A 
ATOM     17  C14 NON d   1      24.531 -18.710  -0.206  0.00  0.00     0.010 A 
ATOM     18  C15 NON d   1      23.287 -19.348  -0.247  0.00  0.00     0.017 A 
ATOM     19  C16 NON d   1      22.145 -18.614  -0.554  0.00  0.00     0.034 A 
ATOM     20  C18 NON d   1      22.253 -17.257  -0.877  0.00  0.00     0.017 A 
ATOM     21  C19 NON d   1      23.513 -16.643  -0.899  0.00  0.00     0.010 A 
BRANCH  19  22
ATOM     22  C17 NON d   1      20.838 -19.313  -0.592  0.00  0.00     0.275 C 
ATOM     23  O1  NON d   1      20.233 -19.490  -1.645  0.00  0.00    -0.265 OA
ATOM     24  N3  NON d   1      20.388 -19.795   0.616  0.00  0.00    -0.233 N 
ATOM     25  H16 NON d   1      21.030 -19.991   1.378  0.00  0.00     0.197 HD
BRANCH  24  26
ATOM     26  O2  NON d   1      19.246 -20.629   0.535  0.00  0.00    -0.287 OA
ATOM     27  H17 NON d   1      19.288 -20.955  -0.392  0.00  0.00     0.244 HD
ENDBRANCH  24  26
ENDBRANCH  19  22
ENDBRANCH  15  16
ENDBRANCH  13  15
TORSDOF 4
ENDMDL
MODEL 3
REMARK VINA RESULT:    -8.816      2.376      4.172
REMARK INTER + INTRA:         -11.413
REMARK INTER:                 -10.009
REMARK INTRA:                  -1.404
REMARK CONF_INDEPENDENT:        1.193
REMARK UNBOUND:                -1.404
REMARK  4 active torsions:
REMARK  status: ('A' for Active; 'I' for Inactive)
REMARK    1  A    between atoms: N2_13  and  C12_14 
REMARK    2  A    between atoms: C12_14  and  C13_15 
REMARK    3  A    between atoms: C16_18  and  C17_19 
REMARK       I    between atoms: C17_19  and  N3_21 
REMARK    4  A    between atoms: N3_21  and  O2_22 
ROOT
ATOM      1  C1  NON d   1      25.900 -11.924  -5.508  0.00  0.00     0.310 C 
ATOM      2  N1  NON d   1      25.691 -12.708  -4.289  0.00  0.00     0.088 N 
ATOM      3  C2  NON d   1      25.820 -14.153  -4.568  0.00  0.00     0.278 C 
ATOM      4  C3  NON d   1      25.516 -15.068  -3.344  0.00  0.00     0.088 C 
ATOM      5  C4  NON d   1      26.090 -14.486  -2.094  0.00  0.00     0.023 A 
ATOM      6  C5  NON d   1      26.559 -13.178  -2.060  0.00  0.00     0.005 A 
ATOM      7  C6  NON d   1      26.899 -12.865  -0.721  0.00  0.00     0.001 A 
ATOM      8  C7  NON d   1      27.383 -11.704  -0.083  0.00  0.00     0.014 A 
ATOM      9  C8  NON d   1      27.592 -11.707   1.299  0.00  0.00     0.001 A 
ATOM     10  C9  NON d   1      27.335 -12.850   2.044  0.00  0.00     0.002 A 
ATOM     11  C10 NON d   1      26.873 -14.018   1.430  0.00  0.00     0.030 A 
ATOM     12  C11 NON d   1      26.653 -14.008   0.037  0.00  0.00     0.045 A 
ATOM     13  N2  NON d   1      26.192 -15.019  -0.829  0.00  0.00    -0.345 N 
ATOM     14  C20 NON d   1      26.660 -12.284  -3.258  0.00  0.00     0.313 C 
ENDROOT
BRANCH  13  15
ATOM     15  C12 NON d   1      25.962 -16.362  -0.265  0.00  0.00     0.167 C 
BRANCH  15  16
ATOM     16  C13 NON d   1      24.717 -17.175  -0.507  0.00  0.00    -0.040 A 
ATOM     17  C14 NON d   1      23.475 -16.505  -0.557  0.00  0.00     0.010 A 
ATOM     18  C15 NON d   1      22.267 -17.209  -0.572  0.00  0.00     0.017 A 
ATOM     19  C16 NON d   1      22.278 -18.601  -0.583  0.00  0.00     0.034 A 
ATOM     20  C18 NON d   1      23.494 -19.289  -0.520  0.00  0.00     0.017 A 
ATOM     21  C19 NON d   1      24.698 -18.575  -0.437  0.00  0.00     0.010 A 
BRANCH  19  22
ATOM     22  C17 NON d   1      20.984 -19.323  -0.596  0.00  0.00     0.275 C 
ATOM     23  O1  NON d   1      20.388 -19.559  -1.642  0.00  0.00    -0.265 OA
ATOM     24  N3  NON d   1      20.535 -19.758   0.631  0.00  0.00    -0.233 N 
ATOM     25  H16 NON d   1      21.176 -19.908   1.404  0.00  0.00     0.197 HD
BRANCH  24  26
ATOM     26  O2  NON d   1      19.409 -20.615   0.582  0.00  0.00    -0.287 OA
ATOM     27  H17 NON d   1      18.968 -20.338  -0.252  0.00  0.00     0.244 HD
ENDBRANCH  24  26
ENDBRANCH  19  22
ENDBRANCH  15  16
ENDBRANCH  13  15
TORSDOF 4
ENDMDL
MODEL 4
REMARK VINA RESULT:    -8.798      1.098      3.622
REMARK INTER + INTRA:         -11.374
REMARK INTER:                  -9.991
REMARK INTRA:                  -1.383
REMARK CONF_INDEPENDENT:        1.193
REMARK UNBOUND:                -1.383
REMARK  4 active torsions:
REMARK  status: ('A' for Active; 'I' for Inactive)
REMARK    1  A    between atoms: N2_13  and  C12_14 
REMARK    2  A    between atoms: C12_14  and  C13_15 
REMARK    3  A    between atoms: C16_18  and  C17_19 
REMARK       I    between atoms: C17_19  and  N3_21 
REMARK    4  A    between atoms: N3_21  and  O2_22 
ROOT
ATOM      1  C1  NON d   1      26.997 -12.350  -5.967  0.00  0.00     0.310 C 
ATOM      2  N1  NON d   1      26.860 -12.970  -4.649  0.00  0.00     0.088 N 
ATOM      3  C2  NON d   1      25.448 -13.310  -4.374  0.00  0.00     0.278 C 
ATOM      4  C3  NON d   1      25.198 -13.887  -2.948  0.00  0.00     0.088 C 
ATOM      5  C4  NON d   1      26.291 -14.828  -2.560  0.00  0.00     0.023 A 
ATOM      6  C5  NON d   1      27.469 -14.903  -3.293  0.00  0.00     0.005 A 
ATOM      7  C6  NON d   1      28.362 -15.761  -2.606  0.00  0.00     0.001 A 
ATOM      8  C7  NON d   1      29.689 -16.180  -2.842  0.00  0.00     0.014 A 
ATOM      9  C8  NON d   1      30.322 -17.029  -1.931  0.00  0.00     0.001 A 
ATOM     10  C9  NON d   1      29.648 -17.470  -0.800  0.00  0.00     0.002 A 
ATOM     11  C10 NON d   1      28.327 -17.083  -0.555  0.00  0.00     0.030 A 
ATOM     12  C11 NON d   1      27.695 -16.217  -1.471  0.00  0.00     0.045 A 
ATOM     13  N2  NON d   1      26.398 -15.667  -1.473  0.00  0.00    -0.345 N 
ATOM     14  C20 NON d   1      27.713 -14.175  -4.579  0.00  0.00     0.313 C 
ENDROOT
BRANCH  13  15
ATOM     15  C12 NON d   1      25.464 -16.092  -0.415  0.00  0.00     0.167 C 
BRANCH  15  16
ATOM     16  C13 NON d   1      24.311 -17.035  -0.638  0.00  0.00    -0.040 A 
ATOM     17  C14 NON d   1      23.034 -16.488  -0.890  0.00  0.00     0.010 A 
ATOM     18  C15 NON d   1      21.887 -17.288  -0.902  0.00  0.00     0.017 A 
ATOM     19  C16 NON d   1      22.000 -18.661  -0.707  0.00  0.00     0.034 A 
ATOM     20  C18 NON d   1      23.252 -19.227  -0.442  0.00  0.00     0.017 A 
ATOM     21  C19 NON d   1      24.387 -18.407  -0.365  0.00  0.00     0.010 A 
BRANCH  19  22
ATOM     22  C17 NON d   1      20.770 -19.487  -0.722  0.00  0.00     0.275 C 
ATOM     23  O1  NON d   1      20.106 -19.637  -1.743  0.00  0.00    -0.265 OA
ATOM     24  N3  NON d   1      20.463 -20.114   0.465  0.00  0.00    -0.233 N 
ATOM     25  H16 NON d   1      21.177 -20.306   1.160  0.00  0.00     0.197 HD
BRANCH  24  26
ATOM     26  O2  NON d   1      19.406 -21.054   0.384  0.00  0.00    -0.287 OA
ATOM     27  H17 NON d   1      18.861 -20.696  -0.353  0.00  0.00     0.244 HD
ENDBRANCH  24  26
ENDBRANCH  19  22
ENDBRANCH  15  16
ENDBRANCH  13  15
TORSDOF 4
ENDMDL
MODEL 5
REMARK VINA RESULT:    -8.053      1.381      2.032
REMARK INTER + INTRA:         -10.610
REMARK INTER:                  -9.246
REMARK INTRA:                  -1.364
REMARK CONF_INDEPENDENT:        1.193
REMARK UNBOUND:                -1.364
REMARK  4 active torsions:
REMARK  status: ('A' for Active; 'I' for Inactive)
REMARK    1  A    between atoms: N2_13  and  C12_14 
REMARK    2  A    between atoms: C12_14  and  C13_15 
REMARK    3  A    between atoms: C16_18  and  C17_19 
REMARK       I    between atoms: C17_19  and  N3_21 
REMARK    4  A    between atoms: N3_21  and  O2_22 
ROOT
ATOM      1  C1  NON d   1      31.498 -16.986  -5.577  0.00  0.00     0.310 C 
ATOM      2  N1  NON d   1      30.288 -16.871  -4.760  0.00  0.00     0.088 N 
ATOM      3  C2  NON d   1      30.590 -17.139  -3.338  0.00  0.00     0.278 C 
ATOM      4  C3  NON d   1      29.338 -17.134  -2.410  0.00  0.00     0.088 C 
ATOM      5  C4  NON d   1      28.403 -16.033  -2.790  0.00  0.00     0.023 A 
ATOM      6  C5  NON d   1      28.555 -15.341  -3.986  0.00  0.00     0.005 A 
ATOM      7  C6  NON d   1      27.448 -14.471  -4.137  0.00  0.00     0.001 A 
ATOM      8  C7  NON d   1      27.046 -13.569  -5.144  0.00  0.00     0.014 A 
ATOM      9  C8  NON d   1      25.847 -12.863  -5.007  0.00  0.00     0.001 A 
ATOM     10  C9  NON d   1      25.056 -13.039  -3.880  0.00  0.00     0.002 A 
ATOM     11  C10 NON d   1      25.444 -13.914  -2.860  0.00  0.00     0.030 A 
ATOM     12  C11 NON d   1      26.648 -14.632  -3.007  0.00  0.00     0.045 A 
ATOM     13  N2  NON d   1      27.269 -15.570  -2.160  0.00  0.00    -0.345 N 
ATOM     14  C20 NON d   1      29.705 -15.524  -4.929  0.00  0.00     0.313 C 
ENDROOT
BRANCH  13  15
ATOM     15  C12 NON d   1      26.655 -15.829  -0.844  0.00  0.00     0.167 C 
BRANCH  15  16
ATOM     16  C13 NON d   1      25.341 -16.540  -0.653  0.00  0.00    -0.040 A 
ATOM     17  C14 NON d   1      25.362 -17.899  -0.271  0.00  0.00     0.010 A 
ATOM     18  C15 NON d   1      24.199 -18.676  -0.274  0.00  0.00     0.017 A 
ATOM     19  C16 NON d   1      22.981 -18.095  -0.617  0.00  0.00     0.034 A 
ATOM     20  C18 NON d   1      22.936 -16.754  -1.012  0.00  0.00     0.017 A 
ATOM     21  C19 NON d   1      24.117 -16.002  -1.071  0.00  0.00     0.010 A 
BRANCH  19  22
ATOM     22  C17 NON d   1      21.763 -18.939  -0.616  0.00  0.00     0.275 C 
ATOM     23  O1  NON d   1      21.245 -19.325  -1.659  0.00  0.00    -0.265 OA
ATOM     24  N3  NON d   1      21.296 -19.303   0.627  0.00  0.00    -0.233 N 
ATOM     25  H16 NON d   1      21.909 -19.319   1.437  0.00  0.00     0.197 HD
BRANCH  24  26
ATOM     26  O2  NON d   1      20.259 -20.267   0.614  0.00  0.00    -0.287 OA
ATOM     27  H17 NON d   1      20.352 -20.666  -0.281  0.00  0.00     0.244 HD
ENDBRANCH  24  26
ENDBRANCH  19  22
ENDBRANCH  15  16
ENDBRANCH  13  15
TORSDOF 4
ENDMDL
MODEL 6
REMARK VINA RESULT:    -7.867      4.589      7.441
REMARK INTER + INTRA:         -10.490
REMARK INTER:                  -9.060
REMARK INTRA:                  -1.430
REMARK CONF_INDEPENDENT:        1.193
REMARK UNBOUND:                -1.430
REMARK  4 active torsions:
REMARK  status: ('A' for Active; 'I' for Inactive)
REMARK    1  A    between atoms: N2_13  and  C12_14 
REMARK    2  A    between atoms: C12_14  and  C13_15 
REMARK    3  A    between atoms: C16_18  and  C17_19 
REMARK       I    between atoms: C17_19  and  N3_21 
REMARK    4  A    between atoms: N3_21  and  O2_22 
ROOT
ATOM      1  C1  NON d   1      30.769 -17.050   0.229  0.00  0.00     0.310 C 
ATOM      2  N1  NON d   1      29.518 -16.448  -0.234  0.00  0.00     0.088 N 
ATOM      3  C2  NON d   1      29.667 -15.922  -1.607  0.00  0.00     0.278 C 
ATOM      4  C3  NON d   1      28.409 -15.176  -2.144  0.00  0.00     0.088 C 
ATOM      5  C4  NON d   1      27.160 -15.889  -1.740  0.00  0.00     0.023 A 
ATOM      6  C5  NON d   1      27.185 -16.897  -0.783  0.00  0.00     0.005 A 
ATOM      7  C6  NON d   1      25.849 -17.275  -0.504  0.00  0.00     0.001 A 
ATOM      8  C7  NON d   1      25.262 -18.200   0.384  0.00  0.00     0.014 A 
ATOM      9  C8  NON d   1      23.870 -18.316   0.447  0.00  0.00     0.001 A 
ATOM     10  C9  NON d   1      23.065 -17.532  -0.368  0.00  0.00     0.002 A 
ATOM     11  C10 NON d   1      23.625 -16.623  -1.270  0.00  0.00     0.030 A 
ATOM     12  C11 NON d   1      25.029 -16.501  -1.323  0.00  0.00     0.045 A 
ATOM     13  N2  NON d   1      25.852 -15.675  -2.114  0.00  0.00    -0.345 N 
ATOM     14  C20 NON d   1      28.435 -17.452  -0.171  0.00  0.00     0.313 C 
ENDROOT
BRANCH  13  15
ATOM     15  C12 NON d   1      25.208 -14.834  -3.139  0.00  0.00     0.167 C 
BRANCH  15  16
ATOM     16  C13 NON d   1      25.947 -14.175  -4.274  0.00  0.00    -0.040 A 
ATOM     17  C14 NON d   1      26.873 -14.945  -5.012  0.00  0.00     0.010 A 
ATOM     18  C15 NON d   1      27.739 -14.356  -5.937  0.00  0.00     0.017 A 
ATOM     19  C16 NON d   1      27.665 -12.987  -6.178  0.00  0.00     0.034 A 
ATOM     20  C18 NON d   1      26.766 -12.199  -5.451  0.00  0.00     0.017 A 
ATOM     21  C19 NON d   1      25.949 -12.789  -4.477  0.00  0.00     0.010 A 
BRANCH  19  22
ATOM     22  C17 NON d   1      28.596 -12.385  -7.162  0.00  0.00     0.275 C 
ATOM     23  O1  NON d   1      29.228 -11.363  -6.911  0.00  0.00    -0.265 OA
ATOM     24  N3  NON d   1      28.743 -13.080  -8.341  0.00  0.00    -0.233 N 
ATOM     25  H16 NON d   1      28.542 -14.074  -8.395  0.00  0.00     0.197 HD
BRANCH  24  26
ATOM     26  O2  NON d   1      29.777 -12.608  -9.184  0.00  0.00    -0.287 OA
ATOM     27  H17 NON d   1      30.203 -11.916  -8.630  0.00  0.00     0.244 HD
ENDBRANCH  24  26
ENDBRANCH  19  22
ENDBRANCH  15  16
ENDBRANCH  13  15
TORSDOF 4
ENDMDL
MODEL 7
REMARK VINA RESULT:    -7.776      2.819      3.899
REMARK INTER + INTRA:         -10.258
REMARK INTER:                  -8.969
REMARK INTRA:                  -1.289
REMARK CONF_INDEPENDENT:        1.193
REMARK UNBOUND:                -1.289
REMARK  4 active torsions:
REMARK  status: ('A' for Active; 'I' for Inactive)
REMARK    1  A    between atoms: N2_13  and  C12_14 
REMARK    2  A    between atoms: C12_14  and  C13_15 
REMARK    3  A    between atoms: C16_18  and  C17_19 
REMARK       I    between atoms: C17_19  and  N3_21 
REMARK    4  A    between atoms: N3_21  and  O2_22 
ROOT
ATOM      1  C1  NON d   1      33.511 -15.301   2.113  0.00  0.00     0.310 C 
ATOM      2  N1  NON d   1      32.288 -15.252   1.310  0.00  0.00     0.088 N 
ATOM      3  C2  NON d   1      31.971 -16.586   0.758  0.00  0.00     0.278 C 
ATOM      4  C3  NON d   1      30.736 -16.605  -0.191  0.00  0.00     0.088 C 
ATOM      5  C4  NON d   1      29.648 -15.730   0.340  0.00  0.00     0.023 A 
ATOM      6  C5  NON d   1      29.886 -14.837   1.378  0.00  0.00     0.005 A 
ATOM      7  C6  NON d   1      28.723 -14.050   1.559  0.00  0.00     0.001 A 
ATOM      8  C7  NON d   1      28.391 -12.982   2.420  0.00  0.00     0.014 A 
ATOM      9  C8  NON d   1      27.134 -12.379   2.325  0.00  0.00     0.001 A 
ATOM     10  C9  NON d   1      26.207 -12.832   1.397  0.00  0.00     0.002 A 
ATOM     11  C10 NON d   1      26.507 -13.902   0.547  0.00  0.00     0.030 A 
ATOM     12  C11 NON d   1      27.780 -14.501   0.637  0.00  0.00     0.045 A 
ATOM     13  N2  NON d   1      28.348 -15.569  -0.085  0.00  0.00    -0.345 N 
ATOM     14  C20 NON d   1      31.173 -14.749   2.140  0.00  0.00     0.313 C 
ENDROOT
BRANCH  13  15
ATOM     15  C12 NON d   1      27.495 -16.280  -1.055  0.00  0.00     0.167 C 
BRANCH  15  16
ATOM     16  C13 NON d   1      26.054 -16.639  -0.805  0.00  0.00    -0.040 A 
ATOM     17  C14 NON d   1      25.768 -17.858  -0.152  0.00  0.00     0.010 A 
ATOM     18  C15 NON d   1      24.462 -18.353  -0.070  0.00  0.00     0.017 A 
ATOM     19  C16 NON d   1      23.409 -17.613  -0.600  0.00  0.00     0.034 A 
ATOM     20  C18 NON d   1      23.666 -16.409  -1.264  0.00  0.00     0.017 A 
ATOM     21  C19 NON d   1      24.986 -15.955  -1.400  0.00  0.00     0.010 A 
BRANCH  19  22
ATOM     22  C17 NON d   1      22.035 -18.160  -0.503  0.00  0.00     0.275 C 
ATOM     23  O1  NON d   1      21.076 -17.592  -1.018  0.00  0.00    -0.265 OA
ATOM     24  N3  NON d   1      21.922 -19.367   0.150  0.00  0.00    -0.233 N 
ATOM     25  H16 NON d   1      22.711 -20.001   0.226  0.00  0.00     0.197 HD
BRANCH  24  26
ATOM     26  O2  NON d   1      20.645 -19.973   0.062  0.00  0.00    -0.287 OA
ATOM     27  H17 NON d   1      20.327 -19.671  -0.818  0.00  0.00     0.244 HD
ENDBRANCH  24  26
ENDBRANCH  19  22
ENDBRANCH  15  16
ENDBRANCH  13  15
TORSDOF 4
ENDMDL
MODEL 8
REMARK VINA RESULT:    -7.399      5.160      7.259
REMARK INTER + INTRA:         -10.007
REMARK INTER:                  -8.592
REMARK INTRA:                  -1.415
REMARK CONF_INDEPENDENT:        1.193
REMARK UNBOUND:                -1.415
REMARK  4 active torsions:
REMARK  status: ('A' for Active; 'I' for Inactive)
REMARK    1  A    between atoms: N2_13  and  C12_14 
REMARK    2  A    between atoms: C12_14  and  C13_15 
REMARK    3  A    between atoms: C16_18  and  C17_19 
REMARK       I    between atoms: C17_19  and  N3_21 
REMARK    4  A    between atoms: N3_21  and  O2_22 
ROOT
ATOM      1  C1  NON d   1      23.178 -18.956  -0.632  0.00  0.00     0.310 C 
ATOM      2  N1  NON d   1      24.087 -17.831  -0.409  0.00  0.00     0.088 N 
ATOM      3  C2  NON d   1      25.366 -18.297   0.167  0.00  0.00     0.278 C 
ATOM      4  C3  NON d   1      26.357 -17.151   0.527  0.00  0.00     0.088 C 
ATOM      5  C4  NON d   1      26.345 -16.091  -0.526  0.00  0.00     0.023 A 
ATOM      6  C5  NON d   1      25.358 -16.061  -1.503  0.00  0.00     0.005 A 
ATOM      7  C6  NON d   1      25.520 -14.874  -2.258  0.00  0.00     0.001 A 
ATOM      8  C7  NON d   1      24.812 -14.296  -3.333  0.00  0.00     0.014 A 
ATOM      9  C8  NON d   1      25.216 -13.062  -3.848  0.00  0.00     0.001 A 
ATOM     10  C9  NON d   1      26.319 -12.408  -3.315  0.00  0.00     0.002 A 
ATOM     11  C10 NON d   1      27.047 -12.970  -2.263  0.00  0.00     0.030 A 
ATOM     12  C11 NON d   1      26.629 -14.210  -1.738  0.00  0.00     0.045 A 
ATOM     13  N2  NON d   1      27.158 -14.993  -0.692  0.00  0.00    -0.345 N 
ATOM     14  C20 NON d   1      24.314 -17.120  -1.685  0.00  0.00     0.313 C 
ENDROOT
BRANCH  13  15
ATOM     15  C12 NON d   1      28.407 -14.540  -0.052  0.00  0.00     0.167 C 
BRANCH  15  16
ATOM     16  C13 NON d   1      28.572 -14.351   1.433  0.00  0.00    -0.040 A 
ATOM     17  C14 NON d   1      29.874 -14.411   1.978  0.00  0.00     0.010 A 
ATOM     18  C15 NON d   1      30.085 -14.450   3.360  0.00  0.00     0.017 A 
ATOM     19  C16 NON d   1      28.998 -14.386   4.227  0.00  0.00     0.034 A 
ATOM     20  C18 NON d   1      27.698 -14.339   3.713  0.00  0.00     0.017 A 
ATOM     21  C19 NON d   1      27.493 -14.368   2.326  0.00  0.00     0.010 A 
BRANCH  19  22
ATOM     22  C17 NON d   1      29.248 -14.432   5.687  0.00  0.00     0.275 C 
ATOM     23  O1  NON d   1      28.489 -15.018   6.453  0.00  0.00    -0.265 OA
ATOM     24  N3  NON d   1      30.410 -13.827   6.109  0.00  0.00    -0.233 N 
ATOM     25  H16 NON d   1      31.195 -13.695   5.478  0.00  0.00     0.197 HD
BRANCH  24  26
ATOM     26  O2  NON d   1      30.737 -14.050   7.469  0.00  0.00    -0.287 OA
ATOM     27  H17 NON d   1      30.176 -14.826   7.697  0.00  0.00     0.244 HD
ENDBRANCH  24  26
ENDBRANCH  19  22
ENDBRANCH  15  16
ENDBRANCH  13  15
TORSDOF 4
ENDMDL
MODEL 9
REMARK VINA RESULT:    -7.363      4.589      7.105
REMARK INTER + INTRA:          -9.978
REMARK INTER:                  -8.556
REMARK INTRA:                  -1.422
REMARK CONF_INDEPENDENT:        1.193
REMARK UNBOUND:                -1.422
REMARK  4 active torsions:
REMARK  status: ('A' for Active; 'I' for Inactive)
REMARK    1  A    between atoms: N2_13  and  C12_14 
REMARK    2  A    between atoms: C12_14  and  C13_15 
REMARK    3  A    between atoms: C16_18  and  C17_19 
REMARK       I    between atoms: C17_19  and  N3_21 
REMARK    4  A    between atoms: N3_21  and  O2_22 
ROOT
ATOM      1  C1  NON d   1      31.065 -16.989   0.232  0.00  0.00     0.310 C 
ATOM      2  N1  NON d   1      29.843 -16.428  -0.345  0.00  0.00     0.088 N 
ATOM      3  C2  NON d   1      30.063 -16.033  -1.753  0.00  0.00     0.278 C 
ATOM      4  C3  NON d   1      28.838 -15.333  -2.416  0.00  0.00     0.088 C 
ATOM      5  C4  NON d   1      27.565 -16.000  -2.009  0.00  0.00     0.023 A 
ATOM      6  C5  NON d   1      27.535 -16.915  -0.963  0.00  0.00     0.005 A 
ATOM      7  C6  NON d   1      26.184 -17.259  -0.715  0.00  0.00     0.001 A 
ATOM      8  C7  NON d   1      25.546 -18.094   0.226  0.00  0.00     0.014 A 
ATOM      9  C8  NON d   1      24.152 -18.197   0.232  0.00  0.00     0.001 A 
ATOM     10  C9  NON d   1      23.394 -17.490  -0.691  0.00  0.00     0.002 A 
ATOM     11  C10 NON d   1      24.005 -16.671  -1.645  0.00  0.00     0.030 A 
ATOM     12  C11 NON d   1      25.411 -16.560  -1.640  0.00  0.00     0.045 A 
ATOM     13  N2  NON d   1      26.278 -15.816  -2.464  0.00  0.00    -0.345 N 
ATOM     14  C20 NON d   1      28.749 -17.416  -0.242  0.00  0.00     0.313 C 
ENDROOT
BRANCH  13  15
ATOM     15  C12 NON d   1      25.692 -15.071  -3.593  0.00  0.00     0.167 C 
BRANCH  15  16
ATOM     16  C13 NON d   1      25.656 -13.568  -3.683  0.00  0.00    -0.040 A 
ATOM     17  C14 NON d   1      25.532 -12.973  -4.958  0.00  0.00     0.010 A 
ATOM     18  C15 NON d   1      25.698 -11.596  -5.139  0.00  0.00     0.017 A 
ATOM     19  C16 NON d   1      25.945 -10.779  -4.040  0.00  0.00     0.034 A 
ATOM     20  C18 NON d   1      26.085 -11.345  -2.768  0.00  0.00     0.017 A 
ATOM     21  C19 NON d   1      25.985 -12.734  -2.606  0.00  0.00     0.010 A 
BRANCH  19  22
ATOM     22  C17 NON d   1      26.119  -9.324  -4.258  0.00  0.00     0.275 C 
ATOM     23  O1  NON d   1      26.916  -8.886  -5.083  0.00  0.00    -0.265 OA
ATOM     24  N3  NON d   1      25.289  -8.510  -3.521  0.00  0.00    -0.233 N 
ATOM     25  H16 NON d   1      24.406  -8.852  -3.153  0.00  0.00     0.197 HD
BRANCH  24  26
ATOM     26  O2  NON d   1      25.323  -7.141  -3.882  0.00  0.00    -0.287 OA
ATOM     27  H17 NON d   1      26.134  -7.089  -4.436  0.00  0.00     0.244 HD
ENDBRANCH  24  26
ENDBRANCH  19  22
ENDBRANCH  15  16
ENDBRANCH  13  15
TORSDOF 4
ENDMDL
