MODEL 1
REMARK VINA RESULT:   -28.842      0.000      0.000
REMARK INTER + INTRA:         -32.396
REMARK INTER:                 -30.632
REMARK INTRA:                  -1.764
REMARK CONF_INDEPENDENT:        1.790
REMARK UNBOUND:                -1.764
REMARK  6 active torsions:
REMARK  status: ('A' for Active; 'I' for Inactive)
REMARK       I    between atoms: C1_2  and  N1_3 
REMARK    1  A    between atoms: C1_2  and  C2_5 
REMARK    2  A    between atoms: N1_3  and  O2_4 
REMARK    3  A    between atoms: C4_8  and  N3_9 
REMARK    4  A    between atoms: C9_14  and  N4_15 
REMARK    5  A    between atoms: N4_15  and  C10_16 
REMARK    6  A    between atoms: C10_16  and  C11_17 
ROOT
ATOM      1  N3  NON d   1      22.179 -18.045  -1.074  0.00  0.00    -0.213 N 
ATOM      2  C5  NON d   1      22.531 -16.964  -0.164  0.00  0.00     0.148 C 
ATOM      3  C6  NON d   1      23.987 -16.716  -0.455  0.00  0.00     0.043 A 
ATOM      4  C7  NON d   1      24.470 -17.800  -1.360  0.00  0.00     0.043 A 
ATOM      5  C8  NON d   1      23.327 -18.720  -1.661  0.00  0.00     0.148 C 
ATOM      6  C9  NON d   1      24.468 -16.374  -1.842  0.00  0.00     0.198 A 
ENDROOT
BRANCH   6   7
ATOM      7  N4  NON d   1      25.800 -15.726  -1.918  0.00  0.00    -0.065 N 
ATOM      8  H11 NON d   1      26.480 -16.432  -2.243  0.00  0.00     0.278 HD
ATOM      9  H12 NON d   1      26.094 -15.413  -0.988  0.00  0.00     0.278 HD
BRANCH   7  10
ATOM     10  C10 NON d   1      25.932 -14.602  -2.902  0.00  0.00     0.291 C 
BRANCH  10  11
ATOM     11  C11 NON d   1      26.993 -14.845  -3.953  0.00  0.00     0.060 A 
ATOM     12  C12 NON d   1      26.953 -14.148  -5.153  0.00  0.00     0.030 A 
ATOM     13  C13 NON d   1      27.949 -14.390  -6.091  0.00  0.00     0.016 A 
ATOM     14  C14 NON d   1      28.956 -15.320  -5.818  0.00  0.00    -0.004 A 
ATOM     15  C15 NON d   1      29.963 -15.599  -6.755  0.00  0.00     0.056 A 
ATOM     16  C19 NON d   1      28.934 -15.978  -4.566  0.00  0.00     0.067 A 
ATOM     17  C16 NON d   1      30.944 -16.534  -6.456  0.00  0.00     0.117 A 
ATOM     18  F1  NON d   1      31.900 -16.801  -7.353  0.00  0.00    -0.206 F 
ATOM     19  C17 NON d   1      30.940 -17.193  -5.236  0.00  0.00     0.044 A 
ATOM     20  C18 NON d   1      29.938 -16.904  -4.301  0.00  0.00     0.035 A 
ATOM     21  N5  NON d   1      27.978 -15.734  -3.643  0.00  0.00    -0.251 NA
ENDBRANCH  10  11
ENDBRANCH   7  10
ENDBRANCH   6   7
BRANCH   1  22
ATOM     22  C4  NON d   1      21.116 -18.848  -0.702  0.00  0.00     0.724 A 
ATOM     23  N2  NON d   1      19.898 -18.583  -1.200  0.00  0.00    -0.074 NA
ATOM     24  C3  NON d   1      18.869 -19.368  -0.795  0.00  0.00     0.155 A 
ATOM     25  C2  NON d   1      19.002 -20.413   0.091  0.00  0.00     0.070 A 
ATOM     26  C20 NON d   1      20.284 -20.614   0.539  0.00  0.00     0.155 A 
ATOM     27  N6  NON d   1      21.341 -19.858   0.156  0.00  0.00    -0.074 NA
BRANCH  25  28
ATOM     28  C1  NON d   1      17.823 -21.200   0.487  0.00  0.00     0.277 C 
ATOM     29  O1  NON d   1      17.270 -21.936  -0.327  0.00  0.00    -0.265 OA
ATOM     30  N1  NON d   1      17.364 -21.093   1.779  0.00  0.00    -0.233 N 
ATOM     31  H1  NON d   1      17.770 -20.573   2.548  0.00  0.00     0.197 HD
BRANCH  30  32
ATOM     32  O2  NON d   1      16.253 -21.905   2.105  0.00  0.00    -0.287 OA
ATOM     33  H2  NON d   1      16.039 -22.325   1.242  0.00  0.00     0.244 HD
ENDBRANCH  30  32
ENDBRANCH  25  28
ENDBRANCH   1  22
TORSDOF 6
ENDMDL
MODEL 2
REMARK VINA RESULT:   -28.553      1.600      2.271
REMARK INTER + INTRA:         -32.058
REMARK INTER:                 -30.343
REMARK INTRA:                  -1.715
REMARK CONF_INDEPENDENT:        1.790
REMARK UNBOUND:                -1.715
REMARK  6 active torsions:
REMARK  status: ('A' for Active; 'I' for Inactive)
REMARK       I    between atoms: C1_2  and  N1_3 
REMARK    1  A    between atoms: C1_2  and  C2_5 
REMARK    2  A    between atoms: N1_3  and  O2_4 
REMARK    3  A    between atoms: C4_8  and  N3_9 
REMARK    4  A    between atoms: C9_14  and  N4_15 
REMARK    5  A    between atoms: N4_15  and  C10_16 
REMARK    6  A    between atoms: C10_16  and  C11_17 
ROOT
ATOM      1  N3  NON d   1      22.207 -18.185  -1.082  0.00  0.00    -0.213 N 
ATOM      2  C5  NON d   1      22.327 -16.832  -0.557  0.00  0.00     0.148 C 
ATOM      3  C6  NON d   1      23.808 -16.567  -0.597  0.00  0.00     0.043 A 
ATOM      4  C7  NON d   1      24.498 -17.846  -0.937  0.00  0.00     0.043 A 
ATOM      5  C8  NON d   1      23.466 -18.913  -1.133  0.00  0.00     0.148 C 
ATOM      6  C9  NON d   1      24.596 -16.675  -1.878  0.00  0.00     0.198 A 
ENDROOT
BRANCH   6   7
ATOM      7  N4  NON d   1      25.903 -15.974  -1.889  0.00  0.00    -0.065 N 
ATOM      8  H11 NON d   1      26.375 -16.195  -2.780  0.00  0.00     0.278 HD
ATOM      9  H12 NON d   1      26.495 -16.321  -1.128  0.00  0.00     0.278 HD
BRANCH   7  10
ATOM     10  C10 NON d   1      25.849 -14.477  -1.856  0.00  0.00     0.291 C 
BRANCH  10  11
ATOM     11  C11 NON d   1      26.371 -13.829  -3.120  0.00  0.00     0.060 A 
ATOM     12  C12 NON d   1      26.076 -12.499  -3.391  0.00  0.00     0.030 A 
ATOM     13  C13 NON d   1      26.580 -11.935  -4.557  0.00  0.00     0.016 A 
ATOM     14  C14 NON d   1      27.360 -12.704  -5.425  0.00  0.00    -0.004 A 
ATOM     15  C15 NON d   1      27.865 -12.166  -6.620  0.00  0.00     0.056 A 
ATOM     16  C19 NON d   1      27.628 -14.046  -5.070  0.00  0.00     0.067 A 
ATOM     17  C16 NON d   1      28.629 -12.959  -7.464  0.00  0.00     0.117 A 
ATOM     18  F1  NON d   1      29.106 -12.444  -8.603  0.00  0.00    -0.206 F 
ATOM     19  C17 NON d   1      28.902 -14.278  -7.136  0.00  0.00     0.044 A 
ATOM     20  C18 NON d   1      28.403 -14.807  -5.940  0.00  0.00     0.035 A 
ATOM     21  N5  NON d   1      27.154 -14.596  -3.929  0.00  0.00    -0.251 NA
ENDBRANCH  10  11
ENDBRANCH   7  10
ENDBRANCH   6   7
BRANCH   1  22
ATOM     22  C4  NON d   1      21.093 -18.906  -0.689  0.00  0.00     0.724 A 
ATOM     23  N2  NON d   1      21.241 -19.882   0.220  0.00  0.00    -0.074 NA
ATOM     24  C3  NON d   1      20.139 -20.593   0.564  0.00  0.00     0.155 A 
ATOM     25  C2  NON d   1      18.886 -20.371   0.038  0.00  0.00     0.070 A 
ATOM     26  C20 NON d   1      18.831 -19.348  -0.875  0.00  0.00     0.155 A 
ATOM     27  N6  NON d   1      19.905 -18.610  -1.243  0.00  0.00    -0.074 NA
BRANCH  25  28
ATOM     28  C1  NON d   1      17.750 -21.206   0.460  0.00  0.00     0.277 C 
ATOM     29  O1  NON d   1      17.228 -21.986  -0.333  0.00  0.00    -0.265 OA
ATOM     30  N1  NON d   1      17.294 -21.092   1.753  0.00  0.00    -0.233 N 
ATOM     31  H1  NON d   1      17.679 -20.536   2.507  0.00  0.00     0.197 HD
BRANCH  30  32
ATOM     32  O2  NON d   1      16.227 -21.950   2.105  0.00  0.00    -0.287 OA
ATOM     33  H2  NON d   1      15.953 -22.314   1.233  0.00  0.00     0.244 HD
ENDBRANCH  30  32
ENDBRANCH  25  28
ENDBRANCH   1  22
TORSDOF 6
ENDMDL
MODEL 3
REMARK VINA RESULT:   -28.329      2.568      3.776
REMARK INTER + INTRA:         -31.868
REMARK INTER:                 -30.119
REMARK INTRA:                  -1.748
REMARK CONF_INDEPENDENT:        1.790
REMARK UNBOUND:                -1.748
REMARK  6 active torsions:
REMARK  status: ('A' for Active; 'I' for Inactive)
REMARK       I    between atoms: C1_2  and  N1_3 
REMARK    1  A    between atoms: C1_2  and  C2_5 
REMARK    2  A    between atoms: N1_3  and  O2_4 
REMARK    3  A    between atoms: C4_8  and  N3_9 
REMARK    4  A    between atoms: C9_14  and  N4_15 
REMARK    5  A    between atoms: N4_15  and  C10_16 
REMARK    6  A    between atoms: C10_16  and  C11_17 
ROOT
ATOM      1  N3  NON d   1      22.222 -18.229  -0.968  0.00  0.00    -0.213 N 
ATOM      2  C5  NON d   1      22.143 -16.781  -0.831  0.00  0.00     0.148 C 
ATOM      3  C6  NON d   1      23.581 -16.361  -0.684  0.00  0.00     0.043 A 
ATOM      4  C7  NON d   1      24.409 -17.592  -0.525  0.00  0.00     0.043 A 
ATOM      5  C8  NON d   1      23.511 -18.789  -0.592  0.00  0.00     0.148 C 
ATOM      6  C9  NON d   1      24.616 -16.706  -1.724  0.00  0.00     0.198 A 
ENDROOT
BRANCH   6   7
ATOM      7  N4  NON d   1      25.849 -15.882  -1.703  0.00  0.00    -0.065 N 
ATOM      8  H11 NON d   1      26.462 -16.246  -0.958  0.00  0.00     0.278 HD
ATOM      9  H12 NON d   1      25.619 -14.910  -1.472  0.00  0.00     0.278 HD
BRANCH   7  10
ATOM     10  C10 NON d   1      26.695 -15.929  -2.939  0.00  0.00     0.291 C 
BRANCH  10  11
ATOM     11  C11 NON d   1      26.698 -14.630  -3.715  0.00  0.00     0.060 A 
ATOM     12  C12 NON d   1      27.220 -14.591  -5.001  0.00  0.00     0.030 A 
ATOM     13  C13 NON d   1      27.198 -13.382  -5.687  0.00  0.00     0.016 A 
ATOM     14  C14 NON d   1      26.664 -12.243  -5.078  0.00  0.00    -0.004 A 
ATOM     15  C15 NON d   1      26.647 -11.004  -5.739  0.00  0.00     0.056 A 
ATOM     16  C19 NON d   1      26.138 -12.369  -3.771  0.00  0.00     0.067 A 
ATOM     17  C16 NON d   1      26.117  -9.890  -5.104  0.00  0.00     0.117 A 
ATOM     18  F1  NON d   1      26.106  -8.711  -5.735  0.00  0.00    -0.206 F 
ATOM     19  C17 NON d   1      25.599  -9.991  -3.822  0.00  0.00     0.044 A 
ATOM     20  C18 NON d   1      25.610 -11.231  -3.170  0.00  0.00     0.035 A 
ATOM     21  N5  NON d   1      26.142 -13.545  -3.106  0.00  0.00    -0.251 NA
ENDBRANCH  10  11
ENDBRANCH   7  10
ENDBRANCH   6   7
BRANCH   1  22
ATOM     22  C4  NON d   1      21.103 -18.950  -0.590  0.00  0.00     0.724 A 
ATOM     23  N2  NON d   1      21.255 -19.995   0.238  0.00  0.00    -0.074 NA
ATOM     24  C3  NON d   1      20.146 -20.702   0.567  0.00  0.00     0.155 A 
ATOM     25  C2  NON d   1      18.882 -20.409   0.106  0.00  0.00     0.070 A 
ATOM     26  C20 NON d   1      18.824 -19.319  -0.725  0.00  0.00     0.155 A 
ATOM     27  N6  NON d   1      19.905 -18.583  -1.076  0.00  0.00    -0.074 NA
BRANCH  25  28
ATOM     28  C1  NON d   1      17.738 -21.245   0.506  0.00  0.00     0.277 C 
ATOM     29  O1  NON d   1      17.263 -22.060  -0.282  0.00  0.00    -0.265 OA
ATOM     30  N1  NON d   1      17.222 -21.092   1.771  0.00  0.00    -0.233 N 
ATOM     31  H1  NON d   1      17.565 -20.504   2.521  0.00  0.00     0.197 HD
BRANCH  30  32
ATOM     32  O2  NON d   1      16.151 -21.952   2.105  0.00  0.00    -0.287 OA
ATOM     33  H2  NON d   1      15.871 -22.291   1.225  0.00  0.00     0.244 HD
ENDBRANCH  30  32
ENDBRANCH  25  28
ENDBRANCH   1  22
TORSDOF 6
ENDMDL
MODEL 4
REMARK VINA RESULT:   -28.077      4.029      5.264
REMARK INTER + INTRA:         -31.748
REMARK INTER:                 -29.867
REMARK INTRA:                  -1.882
REMARK CONF_INDEPENDENT:        1.790
REMARK UNBOUND:                -1.882
REMARK  6 active torsions:
REMARK  status: ('A' for Active; 'I' for Inactive)
REMARK       I    between atoms: C1_2  and  N1_3 
REMARK    1  A    between atoms: C1_2  and  C2_5 
REMARK    2  A    between atoms: N1_3  and  O2_4 
REMARK    3  A    between atoms: C4_8  and  N3_9 
REMARK    4  A    between atoms: C9_14  and  N4_15 
REMARK    5  A    between atoms: N4_15  and  C10_16 
REMARK    6  A    between atoms: C10_16  and  C11_17 
ROOT
ATOM      1  N3  NON d   1      22.164 -18.035  -1.080  0.00  0.00    -0.213 N 
ATOM      2  C5  NON d   1      22.177 -16.685  -0.535  0.00  0.00     0.148 C 
ATOM      3  C6  NON d   1      23.633 -16.306  -0.561  0.00  0.00     0.043 A 
ATOM      4  C7  NON d   1      24.422 -17.523  -0.915  0.00  0.00     0.043 A 
ATOM      5  C8  NON d   1      23.476 -18.663  -1.134  0.00  0.00     0.148 C 
ATOM      6  C9  NON d   1      24.434 -16.334  -1.838  0.00  0.00     0.198 A 
ENDROOT
BRANCH   6   7
ATOM      7  N4  NON d   1      25.683 -15.534  -1.830  0.00  0.00    -0.065 N 
ATOM      8  H11 NON d   1      25.531 -14.711  -1.227  0.00  0.00     0.278 HD
ATOM      9  H12 NON d   1      25.891 -15.195  -2.775  0.00  0.00     0.278 HD
BRANCH   7  10
ATOM     10  C10 NON d   1      26.892 -16.204  -1.250  0.00  0.00     0.291 C 
BRANCH  10  11
ATOM     11  C11 NON d   1      27.569 -15.390  -0.169  0.00  0.00     0.060 A 
ATOM     12  C12 NON d   1      28.838 -15.741   0.272  0.00  0.00     0.030 A 
ATOM     13  C13 NON d   1      29.433 -14.965   1.259  0.00  0.00     0.016 A 
ATOM     14  C14 NON d   1      28.753 -13.864   1.788  0.00  0.00    -0.004 A 
ATOM     15  C15 NON d   1      29.321 -13.074   2.800  0.00  0.00     0.056 A 
ATOM     16  C19 NON d   1      27.469 -13.564   1.275  0.00  0.00     0.067 A 
ATOM     17  C16 NON d   1      28.616 -11.993   3.309  0.00  0.00     0.117 A 
ATOM     18  F1  NON d   1      29.158 -11.245   4.277  0.00  0.00    -0.206 F 
ATOM     19  C17 NON d   1      27.355 -11.683   2.823  0.00  0.00     0.044 A 
ATOM     20  C18 NON d   1      26.797 -12.468   1.806  0.00  0.00     0.035 A 
ATOM     21  N5  NON d   1      26.893 -14.305   0.302  0.00  0.00    -0.251 NA
ENDBRANCH  10  11
ENDBRANCH   7  10
ENDBRANCH   6   7
BRANCH   1  22
ATOM     22  C4  NON d   1      21.108 -18.846  -0.705  0.00  0.00     0.724 A 
ATOM     23  N2  NON d   1      19.903 -18.638  -1.257  0.00  0.00    -0.074 NA
ATOM     24  C3  NON d   1      18.879 -19.427  -0.848  0.00  0.00     0.155 A 
ATOM     25  C2  NON d   1      19.005 -20.425   0.092  0.00  0.00     0.070 A 
ATOM     26  C20 NON d   1      20.275 -20.571   0.592  0.00  0.00     0.155 A 
ATOM     27  N6  NON d   1      21.327 -19.808   0.209  0.00  0.00    -0.074 NA
BRANCH  25  28
ATOM     28  C1  NON d   1      17.833 -21.222   0.486  0.00  0.00     0.277 C 
ATOM     29  O1  NON d   1      17.279 -21.953  -0.332  0.00  0.00    -0.265 OA
ATOM     30  N1  NON d   1      17.379 -21.129   1.781  0.00  0.00    -0.233 N 
ATOM     31  H1  NON d   1      17.786 -20.614   2.553  0.00  0.00     0.197 HD
BRANCH  30  32
ATOM     32  O2  NON d   1      16.275 -21.950   2.105  0.00  0.00    -0.287 OA
ATOM     33  H2  NON d   1      16.025 -22.322   1.230  0.00  0.00     0.244 HD
ENDBRANCH  30  32
ENDBRANCH  25  28
ENDBRANCH   1  22
TORSDOF 6
ENDMDL
MODEL 5
REMARK VINA RESULT:   -27.918      1.675      2.407
REMARK INTER + INTRA:         -31.450
REMARK INTER:                 -29.708
REMARK INTRA:                  -1.742
REMARK CONF_INDEPENDENT:        1.790
REMARK UNBOUND:                -1.742
REMARK  6 active torsions:
REMARK  status: ('A' for Active; 'I' for Inactive)
REMARK       I    between atoms: C1_2  and  N1_3 
REMARK    1  A    between atoms: C1_2  and  C2_5 
REMARK    2  A    between atoms: N1_3  and  O2_4 
REMARK    3  A    between atoms: C4_8  and  N3_9 
REMARK    4  A    between atoms: C9_14  and  N4_15 
REMARK    5  A    between atoms: N4_15  and  C10_16 
REMARK    6  A    between atoms: C10_16  and  C11_17 
ROOT
ATOM      1  N3  NON d   1      22.176 -18.054  -1.030  0.00  0.00    -0.213 N 
ATOM      2  C5  NON d   1      22.157 -16.684  -0.536  0.00  0.00     0.148 C 
ATOM      3  C6  NON d   1      23.611 -16.293  -0.520  0.00  0.00     0.043 A 
ATOM      4  C7  NON d   1      24.422 -17.515  -0.797  0.00  0.00     0.043 A 
ATOM      5  C8  NON d   1      23.494 -18.672  -1.008  0.00  0.00     0.148 C 
ATOM      6  C9  NON d   1      24.461 -16.362  -1.763  0.00  0.00     0.198 A 
ENDROOT
BRANCH   6   7
ATOM      7  N4  NON d   1      25.703 -15.551  -1.737  0.00  0.00    -0.065 N 
ATOM      8  H11 NON d   1      25.436 -14.564  -1.596  0.00  0.00     0.278 HD
ATOM      9  H12 NON d   1      26.187 -15.619  -2.638  0.00  0.00     0.278 HD
BRANCH   7  10
ATOM     10  C10 NON d   1      26.658 -15.842  -0.619  0.00  0.00     0.291 C 
BRANCH  10  11
ATOM     11  C11 NON d   1      28.021 -16.295  -1.095  0.00  0.00     0.060 A 
ATOM     12  C12 NON d   1      29.004 -16.626  -0.172  0.00  0.00     0.030 A 
ATOM     13  C13 NON d   1      30.241 -17.046  -0.646  0.00  0.00     0.016 A 
ATOM     14  C14 NON d   1      30.473 -17.121  -2.022  0.00  0.00    -0.004 A 
ATOM     15  C15 NON d   1      31.720 -17.522  -2.529  0.00  0.00     0.056 A 
ATOM     16  C19 NON d   1      29.416 -16.780  -2.897  0.00  0.00     0.067 A 
ATOM     17  C16 NON d   1      31.921 -17.578  -3.901  0.00  0.00     0.117 A 
ATOM     18  F1  NON d   1      33.110 -17.957  -4.381  0.00  0.00    -0.206 F 
ATOM     19  C17 NON d   1      30.898 -17.245  -4.776  0.00  0.00     0.044 A 
ATOM     20  C18 NON d   1      29.654 -16.854  -4.266  0.00  0.00     0.035 A 
ATOM     21  N5  NON d   1      28.205 -16.387  -2.442  0.00  0.00    -0.251 NA
ENDBRANCH  10  11
ENDBRANCH   7  10
ENDBRANCH   6   7
BRANCH   1  22
ATOM     22  C4  NON d   1      21.112 -18.860  -0.666  0.00  0.00     0.724 A 
ATOM     23  N2  NON d   1      19.905 -18.620  -1.200  0.00  0.00    -0.074 NA
ATOM     24  C3  NON d   1      18.874 -19.406  -0.802  0.00  0.00     0.155 A 
ATOM     25  C2  NON d   1      18.995 -20.429   0.111  0.00  0.00     0.070 A 
ATOM     26  C20 NON d   1      20.267 -20.605   0.595  0.00  0.00     0.155 A 
ATOM     27  N6  NON d   1      21.326 -19.847   0.221  0.00  0.00    -0.074 NA
BRANCH  25  28
ATOM     28  C1  NON d   1      17.815 -21.220   0.496  0.00  0.00     0.277 C 
ATOM     29  O1  NON d   1      17.257 -21.939  -0.330  0.00  0.00    -0.265 OA
ATOM     30  N1  NON d   1      17.360 -21.135   1.791  0.00  0.00    -0.233 N 
ATOM     31  H1  NON d   1      17.770 -20.631   2.568  0.00  0.00     0.197 HD
BRANCH  30  32
ATOM     32  O2  NON d   1      16.248 -21.950   2.105  0.00  0.00    -0.287 OA
ATOM     33  H2  NON d   1      15.944 -22.242   1.217  0.00  0.00     0.244 HD
ENDBRANCH  30  32
ENDBRANCH  25  28
ENDBRANCH   1  22
TORSDOF 6
ENDMDL
MODEL 6
REMARK VINA RESULT:   -27.780      1.092      2.042
REMARK INTER + INTRA:         -31.267
REMARK INTER:                 -29.570
REMARK INTRA:                  -1.697
REMARK CONF_INDEPENDENT:        1.790
REMARK UNBOUND:                -1.697
REMARK  6 active torsions:
REMARK  status: ('A' for Active; 'I' for Inactive)
REMARK       I    between atoms: C1_2  and  N1_3 
REMARK    1  A    between atoms: C1_2  and  C2_5 
REMARK    2  A    between atoms: N1_3  and  O2_4 
REMARK    3  A    between atoms: C4_8  and  N3_9 
REMARK    4  A    between atoms: C9_14  and  N4_15 
REMARK    5  A    between atoms: N4_15  and  C10_16 
REMARK    6  A    between atoms: C10_16  and  C11_17 
ROOT
ATOM      1  N3  NON d   1      22.206 -18.158  -1.007  0.00  0.00    -0.213 N 
ATOM      2  C5  NON d   1      22.128 -16.712  -0.855  0.00  0.00     0.148 C 
ATOM      3  C6  NON d   1      23.566 -16.292  -0.713  0.00  0.00     0.043 A 
ATOM      4  C7  NON d   1      24.396 -17.524  -0.573  0.00  0.00     0.043 A 
ATOM      5  C8  NON d   1      23.498 -18.721  -0.645  0.00  0.00     0.148 C 
ATOM      6  C9  NON d   1      24.594 -16.626  -1.764  0.00  0.00     0.198 A 
ENDROOT
BRANCH   6   7
ATOM      7  N4  NON d   1      25.826 -15.801  -1.743  0.00  0.00    -0.065 N 
ATOM      8  H11 NON d   1      25.820 -15.242  -0.876  0.00  0.00     0.278 HD
ATOM      9  H12 NON d   1      25.829 -15.151  -2.535  0.00  0.00     0.278 HD
BRANCH   7  10
ATOM     10  C10 NON d   1      27.122 -16.553  -1.692  0.00  0.00     0.291 C 
BRANCH  10  11
ATOM     11  C11 NON d   1      28.074 -16.187  -2.810  0.00  0.00     0.060 A 
ATOM     12  C12 NON d   1      29.348 -16.737  -2.845  0.00  0.00     0.030 A 
ATOM     13  C13 NON d   1      30.192 -16.385  -3.892  0.00  0.00     0.016 A 
ATOM     14  C14 NON d   1      29.752 -15.493  -4.874  0.00  0.00    -0.004 A 
ATOM     15  C15 NON d   1      30.589 -15.104  -5.932  0.00  0.00     0.056 A 
ATOM     16  C19 NON d   1      28.434 -14.988  -4.775  0.00  0.00     0.067 A 
ATOM     17  C16 NON d   1      30.125 -14.210  -6.886  0.00  0.00     0.117 A 
ATOM     18  F1  NON d   1      30.926 -13.838  -7.890  0.00  0.00    -0.206 F 
ATOM     19  C17 NON d   1      28.838 -13.701  -6.806  0.00  0.00     0.044 A 
ATOM     20  C18 NON d   1      28.003 -14.099  -5.755  0.00  0.00     0.035 A 
ATOM     21  N5  NON d   1      27.604 -15.340  -3.768  0.00  0.00    -0.251 NA
ENDBRANCH  10  11
ENDBRANCH   7  10
ENDBRANCH   6   7
BRANCH   1  22
ATOM     22  C4  NON d   1      21.090 -18.883  -0.628  0.00  0.00     0.724 A 
ATOM     23  N2  NON d   1      21.233 -19.869   0.271  0.00  0.00    -0.074 NA
ATOM     24  C3  NON d   1      20.128 -20.583   0.601  0.00  0.00     0.155 A 
ATOM     25  C2  NON d   1      18.878 -20.355   0.070  0.00  0.00     0.070 A 
ATOM     26  C20 NON d   1      18.829 -19.323  -0.832  0.00  0.00     0.155 A 
ATOM     27  N6  NON d   1      19.905 -18.581  -1.186  0.00  0.00    -0.074 NA
BRANCH  25  28
ATOM     28  C1  NON d   1      17.740 -21.194   0.476  0.00  0.00     0.277 C 
ATOM     29  O1  NON d   1      17.222 -21.965  -0.328  0.00  0.00    -0.265 OA
ATOM     30  N1  NON d   1      17.277 -21.095   1.768  0.00  0.00    -0.233 N 
ATOM     31  H1  NON d   1      17.658 -20.547   2.530  0.00  0.00     0.197 HD
BRANCH  30  32
ATOM     32  O2  NON d   1      16.207 -21.956   2.104  0.00  0.00    -0.287 OA
ATOM     33  H2  NON d   1      15.700 -22.000   1.264  0.00  0.00     0.244 HD
ENDBRANCH  30  32
ENDBRANCH  25  28
ENDBRANCH   1  22
TORSDOF 6
ENDMDL
MODEL 7
REMARK VINA RESULT:   -27.541      3.556      4.855
REMARK INTER + INTRA:         -31.131
REMARK INTER:                 -29.331
REMARK INTRA:                  -1.800
REMARK CONF_INDEPENDENT:        1.790
REMARK UNBOUND:                -1.800
REMARK  6 active torsions:
REMARK  status: ('A' for Active; 'I' for Inactive)
REMARK       I    between atoms: C1_2  and  N1_3 
REMARK    1  A    between atoms: C1_2  and  C2_5 
REMARK    2  A    between atoms: N1_3  and  O2_4 
REMARK    3  A    between atoms: C4_8  and  N3_9 
REMARK    4  A    between atoms: C9_14  and  N4_15 
REMARK    5  A    between atoms: N4_15  and  C10_16 
REMARK    6  A    between atoms: C10_16  and  C11_17 
ROOT
ATOM      1  N3  NON d   1      22.207 -18.192  -1.042  0.00  0.00    -0.213 N 
ATOM      2  C5  NON d   1      22.408 -16.901  -0.399  0.00  0.00     0.148 C 
ATOM      3  C6  NON d   1      23.894 -16.684  -0.497  0.00  0.00     0.043 A 
ATOM      4  C7  NON d   1      24.515 -17.946  -0.996  0.00  0.00     0.043 A 
ATOM      5  C8  NON d   1      23.433 -18.954  -1.233  0.00  0.00     0.148 C 
ATOM      6  C9  NON d   1      24.608 -16.694  -1.825  0.00  0.00     0.198 A 
ENDROOT
BRANCH   6   7
ATOM      7  N4  NON d   1      25.939 -16.040  -1.844  0.00  0.00    -0.065 N 
ATOM      8  H11 NON d   1      26.604 -16.683  -2.302  0.00  0.00     0.278 HD
ATOM      9  H12 NON d   1      26.267 -15.881  -0.886  0.00  0.00     0.278 HD
BRANCH   7  10
ATOM     10  C10 NON d   1      26.040 -14.772  -2.637  0.00  0.00     0.291 C 
BRANCH  10  11
ATOM     11  C11 NON d   1      26.541 -13.595  -1.829  0.00  0.00     0.060 A 
ATOM     12  C12 NON d   1      26.836 -12.394  -2.460  0.00  0.00     0.030 A 
ATOM     13  C13 NON d   1      27.286 -11.333  -1.685  0.00  0.00     0.016 A 
ATOM     14  C14 NON d   1      27.436 -11.490  -0.304  0.00  0.00    -0.004 A 
ATOM     15  C15 NON d   1      27.908 -10.441   0.501  0.00  0.00     0.056 A 
ATOM     16  C19 NON d   1      27.101 -12.741   0.265  0.00  0.00     0.067 A 
ATOM     17  C16 NON d   1      28.054 -10.633   1.868  0.00  0.00     0.117 A 
ATOM     18  F1  NON d   1      28.508  -9.633   2.632  0.00  0.00    -0.206 F 
ATOM     19  C17 NON d   1      27.734 -11.852   2.446  0.00  0.00     0.044 A 
ATOM     20  C18 NON d   1      27.255 -12.892   1.640  0.00  0.00     0.035 A 
ATOM     21  N5  NON d   1      26.647 -13.771  -0.482  0.00  0.00    -0.251 NA
ENDBRANCH  10  11
ENDBRANCH   7  10
ENDBRANCH   6   7
BRANCH   1  22
ATOM     22  C4  NON d   1      21.089 -18.910  -0.657  0.00  0.00     0.724 A 
ATOM     23  N2  NON d   1      21.229 -19.891   0.249  0.00  0.00    -0.074 NA
ATOM     24  C3  NON d   1      20.122 -20.598   0.585  0.00  0.00     0.155 A 
ATOM     25  C2  NON d   1      18.872 -20.369   0.055  0.00  0.00     0.070 A 
ATOM     26  C20 NON d   1      18.826 -19.342  -0.854  0.00  0.00     0.155 A 
ATOM     27  N6  NON d   1      19.905 -18.607  -1.214  0.00  0.00    -0.074 NA
BRANCH  25  28
ATOM     28  C1  NON d   1      17.731 -21.200   0.468  0.00  0.00     0.277 C 
ATOM     29  O1  NON d   1      17.205 -21.970  -0.332  0.00  0.00    -0.265 OA
ATOM     30  N1  NON d   1      17.275 -21.095   1.762  0.00  0.00    -0.233 N 
ATOM     31  H1  NON d   1      17.662 -20.549   2.521  0.00  0.00     0.197 HD
BRANCH  30  32
ATOM     32  O2  NON d   1      16.202 -21.950   2.105  0.00  0.00    -0.287 OA
ATOM     33  H2  NON d   1      15.858 -22.220   1.224  0.00  0.00     0.244 HD
ENDBRANCH  30  32
ENDBRANCH  25  28
ENDBRANCH   1  22
TORSDOF 6
ENDMDL
MODEL 8
REMARK VINA RESULT:   -27.380      3.129      3.763
REMARK INTER + INTRA:         -30.350
REMARK INTER:                 -29.170
REMARK INTRA:                  -1.180
REMARK CONF_INDEPENDENT:        1.790
REMARK UNBOUND:                -1.180
REMARK  6 active torsions:
REMARK  status: ('A' for Active; 'I' for Inactive)
REMARK       I    between atoms: C1_2  and  N1_3 
REMARK    1  A    between atoms: C1_2  and  C2_5 
REMARK    2  A    between atoms: N1_3  and  O2_4 
REMARK    3  A    between atoms: C4_8  and  N3_9 
REMARK    4  A    between atoms: C9_14  and  N4_15 
REMARK    5  A    between atoms: N4_15  and  C10_16 
REMARK    6  A    between atoms: C10_16  and  C11_17 
ROOT
ATOM      1  N3  NON d   1      22.206 -18.159  -0.998  0.00  0.00    -0.213 N 
ATOM      2  C5  NON d   1      22.244 -16.764  -0.583  0.00  0.00     0.148 C 
ATOM      3  C6  NON d   1      23.714 -16.443  -0.551  0.00  0.00     0.043 A 
ATOM      4  C7  NON d   1      24.470 -17.717  -0.736  0.00  0.00     0.043 A 
ATOM      5  C8  NON d   1      23.491 -18.838  -0.906  0.00  0.00     0.148 C 
ATOM      6  C9  NON d   1      24.590 -16.625  -1.765  0.00  0.00     0.198 A 
ENDROOT
BRANCH   6   7
ATOM      7  N4  NON d   1      25.869 -15.875  -1.752  0.00  0.00    -0.065 N 
ATOM      8  H11 NON d   1      25.821 -15.149  -2.484  0.00  0.00     0.278 HD
ATOM      9  H12 NON d   1      26.647 -16.501  -1.983  0.00  0.00     0.278 HD
BRANCH   7  10
ATOM     10  C10 NON d   1      26.178 -15.118  -0.496  0.00  0.00     0.291 C 
BRANCH  10  11
ATOM     11  C11 NON d   1      27.638 -15.170  -0.105  0.00  0.00     0.060 A 
ATOM     12  C12 NON d   1      28.113 -14.362   0.920  0.00  0.00     0.030 A 
ATOM     13  C13 NON d   1      29.458 -14.444   1.257  0.00  0.00     0.016 A 
ATOM     14  C14 NON d   1      30.300 -15.320   0.566  0.00  0.00    -0.004 A 
ATOM     15  C15 NON d   1      31.668 -15.409   0.871  0.00  0.00     0.056 A 
ATOM     16  C19 NON d   1      29.737 -16.120  -0.456  0.00  0.00     0.067 A 
ATOM     17  C16 NON d   1      32.478 -16.283   0.161  0.00  0.00     0.117 A 
ATOM     18  F1  NON d   1      33.781 -16.362   0.451  0.00  0.00    -0.206 F 
ATOM     19  C17 NON d   1      31.947 -17.074  -0.846  0.00  0.00     0.044 A 
ATOM     20  C18 NON d   1      30.581 -16.989  -1.141  0.00  0.00     0.035 A 
ATOM     21  N5  NON d   1      28.426 -16.057  -0.776  0.00  0.00    -0.251 NA
ENDBRANCH  10  11
ENDBRANCH   7  10
ENDBRANCH   6   7
BRANCH   1  22
ATOM     22  C4  NON d   1      21.095 -18.890  -0.617  0.00  0.00     0.724 A 
ATOM     23  N2  NON d   1      21.247 -19.885   0.271  0.00  0.00    -0.074 NA
ATOM     24  C3  NON d   1      20.147 -20.604   0.603  0.00  0.00     0.155 A 
ATOM     25  C2  NON d   1      18.892 -20.373   0.086  0.00  0.00     0.070 A 
ATOM     26  C20 NON d   1      18.833 -19.331  -0.805  0.00  0.00     0.155 A 
ATOM     27  N6  NON d   1      19.905 -18.584  -1.161  0.00  0.00    -0.074 NA
BRANCH  25  28
ATOM     28  C1  NON d   1      17.758 -21.218   0.493  0.00  0.00     0.277 C 
ATOM     29  O1  NON d   1      17.281 -22.033  -0.293  0.00  0.00    -0.265 OA
ATOM     30  N1  NON d   1      17.253 -21.074   1.765  0.00  0.00    -0.233 N 
ATOM     31  H1  NON d   1      17.600 -20.486   2.514  0.00  0.00     0.197 HD
BRANCH  30  32
ATOM     32  O2  NON d   1      16.191 -21.942   2.106  0.00  0.00    -0.287 OA
ATOM     33  H2  NON d   1      16.522 -22.813   1.791  0.00  0.00     0.244 HD
ENDBRANCH  30  32
ENDBRANCH  25  28
ENDBRANCH   1  22
TORSDOF 6
ENDMDL
MODEL 9
REMARK VINA RESULT:   -27.365      6.790     11.617
REMARK INTER + INTRA:         -29.470
REMARK INTER:                 -29.154
REMARK INTRA:                  -0.315
REMARK CONF_INDEPENDENT:        1.790
REMARK UNBOUND:                -0.315
REMARK  6 active torsions:
REMARK  status: ('A' for Active; 'I' for Inactive)
REMARK       I    between atoms: C1_2  and  N1_3 
REMARK    1  A    between atoms: C1_2  and  C2_5 
REMARK    2  A    between atoms: N1_3  and  O2_4 
REMARK    3  A    between atoms: C4_8  and  N3_9 
REMARK    4  A    between atoms: C9_14  and  N4_15 
REMARK    5  A    between atoms: N4_15  and  C10_16 
REMARK    6  A    between atoms: C10_16  and  C11_17 
ROOT
ATOM      1  N3  NON d   1      26.703 -16.110   0.393  0.00  0.00    -0.213 N 
ATOM      2  C5  NON d   1      26.124 -15.700  -0.878  0.00  0.00     0.148 C 
ATOM      3  C6  NON d   1      25.377 -16.922  -1.339  0.00  0.00     0.043 A 
ATOM      4  C7  NON d   1      25.730 -18.051  -0.428  0.00  0.00     0.043 A 
ATOM      5  C8  NON d   1      26.678 -17.548   0.617  0.00  0.00     0.148 C 
ATOM      6  C9  NON d   1      24.308 -17.562  -0.489  0.00  0.00     0.198 A 
ENDROOT
BRANCH   6   7
ATOM      7  N4  NON d   1      23.360 -18.447  -1.208  0.00  0.00    -0.065 N 
ATOM      8  H11 NON d   1      23.320 -19.346  -0.704  0.00  0.00     0.278 HD
ATOM      9  H12 NON d   1      23.702 -18.634  -2.156  0.00  0.00     0.278 HD
BRANCH   7  10
ATOM     10  C10 NON d   1      21.935 -17.984  -1.260  0.00  0.00     0.291 C 
BRANCH  10  11
ATOM     11  C11 NON d   1      21.011 -18.784  -0.369  0.00  0.00     0.060 A 
ATOM     12  C12 NON d   1      21.290 -18.911   0.986  0.00  0.00     0.030 A 
ATOM     13  C13 NON d   1      20.415 -19.646   1.775  0.00  0.00     0.016 A 
ATOM     14  C14 NON d   1      19.287 -20.241   1.201  0.00  0.00    -0.004 A 
ATOM     15  C15 NON d   1      18.396 -21.006   1.971  0.00  0.00     0.056 A 
ATOM     16  C19 NON d   1      19.065 -20.053  -0.183  0.00  0.00     0.067 A 
ATOM     17  C16 NON d   1      17.291 -21.590   1.369  0.00  0.00     0.117 A 
ATOM     18  F1  NON d   1      16.446 -22.321   2.104  0.00  0.00    -0.206 F 
ATOM     19  C17 NON d   1      17.056 -21.420   0.013  0.00  0.00     0.044 A 
ATOM     20  C18 NON d   1      17.943 -20.649  -0.748  0.00  0.00     0.035 A 
ATOM     21  N5  NON d   1      19.905 -19.325  -0.952  0.00  0.00    -0.251 NA
ENDBRANCH  10  11
ENDBRANCH   7  10
ENDBRANCH   6   7
BRANCH   1  22
ATOM     22  C4  NON d   1      27.846 -15.443   0.799  0.00  0.00     0.724 A 
ATOM     23  N2  NON d   1      28.912 -15.430  -0.015  0.00  0.00    -0.074 NA
ATOM     24  C3  NON d   1      30.028 -14.796   0.421  0.00  0.00     0.155 A 
ATOM     25  C2  NON d   1      30.128 -14.168   1.643  0.00  0.00     0.070 A 
ATOM     26  C20 NON d   1      28.986 -14.225   2.401  0.00  0.00     0.155 A 
ATOM     27  N6  NON d   1      27.848 -14.843   2.002  0.00  0.00    -0.074 NA
BRANCH  25  28
ATOM     28  C1  NON d   1      31.388 -13.518   2.038  0.00  0.00     0.277 C 
ATOM     29  O1  NON d   1      31.906 -12.677   1.308  0.00  0.00    -0.265 OA
ATOM     30  N1  NON d   1      31.962 -13.872   3.237  0.00  0.00    -0.233 N 
ATOM     31  H1  NON d   1      31.600 -14.500   3.944  0.00  0.00     0.197 HD
BRANCH  30  32
ATOM     32  O2  NON d   1      33.149 -13.183   3.576  0.00  0.00    -0.287 OA
ATOM     33  H2  NON d   1      33.086 -13.125   4.555  0.00  0.00     0.244 HD
ENDBRANCH  30  32
ENDBRANCH  25  28
ENDBRANCH   1  22
TORSDOF 6
ENDMDL
