MODEL 1
REMARK VINA RESULT:    -8.912      0.000      0.000
REMARK INTER + INTRA:         -10.939
REMARK INTER:                 -10.105
REMARK INTRA:                  -0.834
REMARK CONF_INDEPENDENT:        1.193
REMARK UNBOUND:                -0.834
REMARK  4 active torsions:
REMARK  status: ('A' for Active; 'I' for Inactive)
REMARK       I    between atoms: C1_2  and  N1_3 
REMARK    1  A    between atoms: C1_2  and  C14_17 
REMARK    2  A    between atoms: N1_3  and  C2_4 
REMARK    3  A    between atoms: C4_6  and  C5_7 
REMARK    4  A    between atoms: C13_15  and  O2_16 
ROOT
ATOM      1  C2  NON d   1      24.549 -17.550  -0.458  0.00  0.00     0.069 A 
ATOM      2  C3  NON d   1      24.622 -16.612  -1.509  0.00  0.00     0.044 A 
ATOM      3  C4  NON d   1      25.841 -16.048  -1.961  0.00  0.00    -0.024 A 
ATOM      4  C11 NON d   1      27.002 -16.494  -1.302  0.00  0.00     0.015 A 
ATOM      5  C12 NON d   1      26.946 -17.390  -0.226  0.00  0.00     0.040 A 
ATOM      6  C13 NON d   1      25.725 -17.886   0.207  0.00  0.00     0.092 A 
ENDROOT
BRANCH   1   7
ATOM      7  N1  NON d   1      23.258 -18.052  -0.157  0.00  0.00    -0.320 N 
ATOM      8  C1  NON d   1      22.489 -18.910  -0.928  0.00  0.00     0.256 C 
ATOM      9  O1  NON d   1      22.773 -19.325  -2.048  0.00  0.00    -0.267 OA
ATOM     10  H1  NON d   1      22.824 -17.644   0.656  0.00  0.00     0.169 HD
BRANCH   8  11
ATOM     11  C14 NON d   1      21.156 -19.301  -0.347  0.00  0.00     0.032 A 
ATOM     12  C15 NON d   1      21.030 -19.325   1.051  0.00  0.00     0.017 A 
ATOM     13  C16 NON d   1      19.827 -19.706   1.655  0.00  0.00     0.001 A 
ATOM     14  C17 NON d   1      18.739 -20.071   0.867  0.00  0.00     0.000 A 
ATOM     15  C18 NON d   1      18.850 -20.057  -0.521  0.00  0.00     0.001 A 
ATOM     16  C19 NON d   1      20.054 -19.681  -1.129  0.00  0.00     0.017 A 
ENDBRANCH   8  11
ENDBRANCH   1   7
BRANCH   6  17
ATOM     17  O2  NON d   1      25.736 -18.575   1.383  0.00  0.00    -0.358 OA
ATOM     18  H10 NON d   1      26.466 -18.203   1.909  0.00  0.00     0.217 HD
ENDBRANCH   6  17
BRANCH   3  19
ATOM     19  C5  NON d   1      25.896 -15.024  -3.061  0.00  0.00    -0.026 A 
ATOM     20  C6  NON d   1      25.005 -13.933  -3.128  0.00  0.00     0.012 A 
ATOM     21  C7  NON d   1      25.081 -12.963  -4.138  0.00  0.00     0.001 A 
ATOM     22  C8  NON d   1      26.053 -13.053  -5.126  0.00  0.00     0.000 A 
ATOM     23  C9  NON d   1      26.946 -14.111  -5.104  0.00  0.00     0.001 A 
ATOM     24  C10 NON d   1      26.864 -15.079  -4.093  0.00  0.00     0.012 A 
ENDBRANCH   3  19
TORSDOF 4
ENDMDL
MODEL 2
REMARK VINA RESULT:    -7.280      1.825      7.545
REMARK INTER + INTRA:          -9.862
REMARK INTER:                  -8.473
REMARK INTRA:                  -1.389
REMARK CONF_INDEPENDENT:        1.193
REMARK UNBOUND:                -1.389
REMARK  4 active torsions:
REMARK  status: ('A' for Active; 'I' for Inactive)
REMARK       I    between atoms: C1_2  and  N1_3 
REMARK    1  A    between atoms: C1_2  and  C14_17 
REMARK    2  A    between atoms: N1_3  and  C2_4 
REMARK    3  A    between atoms: C4_6  and  C5_7 
REMARK    4  A    between atoms: C13_15  and  O2_16 
ROOT
ATOM      1  C2  NON d   1      25.123 -16.437  -1.073  0.00  0.00     0.069 A 
ATOM      2  C3  NON d   1      23.808 -16.946  -1.005  0.00  0.00     0.044 A 
ATOM      3  C4  NON d   1      23.439 -18.030  -0.171  0.00  0.00    -0.024 A 
ATOM      4  C11 NON d   1      24.470 -18.575   0.617  0.00  0.00     0.015 A 
ATOM      5  C12 NON d   1      25.792 -18.114   0.530  0.00  0.00     0.040 A 
ATOM      6  C13 NON d   1      26.114 -17.075  -0.331  0.00  0.00     0.092 A 
ENDROOT
BRANCH   1   7
ATOM      7  N1  NON d   1      25.319 -15.321  -1.924  0.00  0.00    -0.320 N 
ATOM      8  C1  NON d   1      26.297 -15.165  -2.893  0.00  0.00     0.256 C 
ATOM      9  O1  NON d   1      27.212 -15.950  -3.129  0.00  0.00    -0.267 OA
ATOM     10  H1  NON d   1      24.745 -14.521  -1.711  0.00  0.00     0.169 HD
BRANCH   8  11
ATOM     11  C14 NON d   1      26.253 -13.877  -3.671  0.00  0.00     0.032 A 
ATOM     12  C15 NON d   1      25.628 -12.770  -3.076  0.00  0.00     0.017 A 
ATOM     13  C16 NON d   1      25.529 -11.552  -3.756  0.00  0.00     0.001 A 
ATOM     14  C17 NON d   1      26.052 -11.428  -5.041  0.00  0.00     0.000 A 
ATOM     15  C18 NON d   1      26.672 -12.518  -5.646  0.00  0.00     0.001 A 
ATOM     16  C19 NON d   1      26.768 -13.741  -4.971  0.00  0.00     0.017 A 
ENDBRANCH   8  11
ENDBRANCH   1   7
BRANCH   6  17
ATOM     17  O2  NON d   1      27.442 -16.833  -0.514  0.00  0.00    -0.358 OA
ATOM     18  H10 NON d   1      27.502 -15.974  -0.969  0.00  0.00     0.217 HD
ENDBRANCH   6  17
BRANCH   3  19
ATOM     19  C5  NON d   1      22.039 -18.579  -0.137  0.00  0.00    -0.026 A 
ATOM     20  C6  NON d   1      21.275 -18.781  -1.304  0.00  0.00     0.012 A 
ATOM     21  C7  NON d   1      19.982 -19.325  -1.270  0.00  0.00     0.001 A 
ATOM     22  C8  NON d   1      19.402 -19.682  -0.060  0.00  0.00     0.000 A 
ATOM     23  C9  NON d   1      20.113 -19.495   1.114  0.00  0.00     0.001 A 
ATOM     24  C10 NON d   1      21.405 -18.950   1.074  0.00  0.00     0.012 A 
ENDBRANCH   3  19
TORSDOF 4
ENDMDL
MODEL 3
REMARK VINA RESULT:    -7.050      2.676      7.888
REMARK INTER + INTRA:          -9.153
REMARK INTER:                  -8.244
REMARK INTRA:                  -0.910
REMARK CONF_INDEPENDENT:        1.193
REMARK UNBOUND:                -0.910
REMARK  4 active torsions:
REMARK  status: ('A' for Active; 'I' for Inactive)
REMARK       I    between atoms: C1_2  and  N1_3 
REMARK    1  A    between atoms: C1_2  and  C14_17 
REMARK    2  A    between atoms: N1_3  and  C2_4 
REMARK    3  A    between atoms: C4_6  and  C5_7 
REMARK    4  A    between atoms: C13_15  and  O2_16 
ROOT
ATOM      1  C2  NON d   1      27.462 -16.059  -2.101  0.00  0.00     0.069 A 
ATOM      2  C3  NON d   1      26.117 -16.457  -1.948  0.00  0.00     0.044 A 
ATOM      3  C4  NON d   1      25.634 -17.137  -0.803  0.00  0.00    -0.024 A 
ATOM      4  C11 NON d   1      26.585 -17.389   0.204  0.00  0.00     0.015 A 
ATOM      5  C12 NON d   1      27.935 -17.044   0.053  0.00  0.00     0.040 A 
ATOM      6  C13 NON d   1      28.369 -16.413  -1.105  0.00  0.00     0.092 A 
ENDROOT
BRANCH   1   7
ATOM      7  N1  NON d   1      27.774 -15.348  -3.286  0.00  0.00    -0.320 N 
ATOM      8  C1  NON d   1      26.890 -14.908  -4.258  0.00  0.00     0.256 C 
ATOM      9  O1  NON d   1      25.682 -15.126  -4.290  0.00  0.00    -0.267 OA
ATOM     10  H1  NON d   1      28.759 -15.259  -3.479  0.00  0.00     0.169 HD
BRANCH   8  11
ATOM     11  C14 NON d   1      27.500 -14.150  -5.408  0.00  0.00     0.032 A 
ATOM     12  C15 NON d   1      28.513 -14.780  -6.147  0.00  0.00     0.017 A 
ATOM     13  C16 NON d   1      29.140 -14.121  -7.209  0.00  0.00     0.001 A 
ATOM     14  C17 NON d   1      28.763 -12.822  -7.542  0.00  0.00     0.000 A 
ATOM     15  C18 NON d   1      27.762 -12.182  -6.815  0.00  0.00     0.001 A 
ATOM     16  C19 NON d   1      27.136 -12.836  -5.747  0.00  0.00     0.017 A 
ENDBRANCH   8  11
ENDBRANCH   1   7
BRANCH   6  17
ATOM     17  O2  NON d   1      29.718 -16.307  -1.265  0.00  0.00    -0.358 OA
ATOM     18  H10 NON d   1      30.117 -16.860  -0.570  0.00  0.00     0.217 HD
ENDBRANCH   6  17
BRANCH   3  19
ATOM     19  C5  NON d   1      24.203 -17.581  -0.673  0.00  0.00    -0.026 A 
ATOM     20  C6  NON d   1      23.116 -16.739  -0.985  0.00  0.00     0.012 A 
ATOM     21  C7  NON d   1      21.784 -17.169  -0.894  0.00  0.00     0.001 A 
ATOM     22  C8  NON d   1      21.490 -18.461  -0.480  0.00  0.00     0.000 A 
ATOM     23  C9  NON d   1      22.525 -19.321  -0.157  0.00  0.00     0.001 A 
ATOM     24  C10 NON d   1      23.855 -18.887  -0.249  0.00  0.00     0.012 A 
ENDBRANCH   3  19
TORSDOF 4
ENDMDL
MODEL 4
REMARK VINA RESULT:    -6.949      3.218      5.370
REMARK INTER + INTRA:          -8.947
REMARK INTER:                  -8.142
REMARK INTRA:                  -0.805
REMARK CONF_INDEPENDENT:        1.193
REMARK UNBOUND:                -0.805
REMARK  4 active torsions:
REMARK  status: ('A' for Active; 'I' for Inactive)
REMARK       I    between atoms: C1_2  and  N1_3 
REMARK    1  A    between atoms: C1_2  and  C14_17 
REMARK    2  A    between atoms: N1_3  and  C2_4 
REMARK    3  A    between atoms: C4_6  and  C5_7 
REMARK    4  A    between atoms: C13_15  and  O2_16 
ROOT
ATOM      1  C2  NON d   1      26.134 -14.961  -4.047  0.00  0.00     0.069 A 
ATOM      2  C3  NON d   1      27.327 -15.528  -4.542  0.00  0.00     0.044 A 
ATOM      3  C4  NON d   1      28.223 -14.830  -5.389  0.00  0.00    -0.024 A 
ATOM      4  C11 NON d   1      27.861 -13.507  -5.706  0.00  0.00     0.015 A 
ATOM      5  C12 NON d   1      26.658 -12.941  -5.262  0.00  0.00     0.040 A 
ATOM      6  C13 NON d   1      25.792 -13.678  -4.465  0.00  0.00     0.092 A 
ENDROOT
BRANCH   1   7
ATOM      7  N1  NON d   1      25.369 -15.775  -3.174  0.00  0.00    -0.320 N 
ATOM      8  C1  NON d   1      25.234 -15.640  -1.801  0.00  0.00     0.256 C 
ATOM      9  O1  NON d   1      25.819 -14.823  -1.094  0.00  0.00    -0.267 OA
ATOM     10  H1  NON d   1      24.978 -16.601  -3.600  0.00  0.00     0.169 HD
BRANCH   8  11
ATOM     11  C14 NON d   1      24.332 -16.639  -1.127  0.00  0.00     0.032 A 
ATOM     12  C15 NON d   1      24.884 -17.874  -0.752  0.00  0.00     0.017 A 
ATOM     13  C16 NON d   1      24.094 -18.857  -0.147  0.00  0.00     0.001 A 
ATOM     14  C17 NON d   1      22.742 -18.616   0.087  0.00  0.00     0.000 A 
ATOM     15  C18 NON d   1      22.179 -17.398  -0.284  0.00  0.00     0.001 A 
ATOM     16  C19 NON d   1      22.965 -16.414  -0.895  0.00  0.00     0.017 A 
ENDBRANCH   8  11
ENDBRANCH   1   7
BRANCH   6  17
ATOM     17  O2  NON d   1      24.558 -13.138  -4.257  0.00  0.00    -0.358 OA
ATOM     18  H10 NON d   1      24.024 -13.374  -5.037  0.00  0.00     0.217 HD
ENDBRANCH   6  17
BRANCH   3  19
ATOM     19  C5  NON d   1      29.475 -15.463  -5.933  0.00  0.00    -0.026 A 
ATOM     20  C6  NON d   1      29.903 -16.750  -5.550  0.00  0.00     0.012 A 
ATOM     21  C7  NON d   1      31.053 -17.349  -6.085  0.00  0.00     0.001 A 
ATOM     22  C8  NON d   1      31.823 -16.676  -7.024  0.00  0.00     0.000 A 
ATOM     23  C9  NON d   1      31.444 -15.406  -7.426  0.00  0.00     0.001 A 
ATOM     24  C10 NON d   1      30.294 -14.811  -6.887  0.00  0.00     0.012 A 
ENDBRANCH   3  19
TORSDOF 4
ENDMDL
MODEL 5
REMARK VINA RESULT:    -6.796      2.792      7.813
REMARK INTER + INTRA:          -8.912
REMARK INTER:                  -7.989
REMARK INTRA:                  -0.923
REMARK CONF_INDEPENDENT:        1.193
REMARK UNBOUND:                -0.923
REMARK  4 active torsions:
REMARK  status: ('A' for Active; 'I' for Inactive)
REMARK       I    between atoms: C1_2  and  N1_3 
REMARK    1  A    between atoms: C1_2  and  C14_17 
REMARK    2  A    between atoms: N1_3  and  C2_4 
REMARK    3  A    between atoms: C4_6  and  C5_7 
REMARK    4  A    between atoms: C13_15  and  O2_16 
ROOT
ATOM      1  C2  NON d   1      26.737 -14.772  -2.056  0.00  0.00     0.069 A 
ATOM      2  C3  NON d   1      25.551 -15.498  -1.815  0.00  0.00     0.044 A 
ATOM      3  C4  NON d   1      25.513 -16.688  -1.047  0.00  0.00    -0.024 A 
ATOM      4  C11 NON d   1      26.745 -17.109  -0.511  0.00  0.00     0.015 A 
ATOM      5  C12 NON d   1      27.941 -16.428  -0.777  0.00  0.00     0.040 A 
ATOM      6  C13 NON d   1      27.934 -15.288  -1.568  0.00  0.00     0.092 A 
ENDROOT
BRANCH   1   7
ATOM      7  N1  NON d   1      26.598 -13.578  -2.807  0.00  0.00    -0.320 N 
ATOM      8  C1  NON d   1      25.640 -13.298  -3.769  0.00  0.00     0.256 C 
ATOM      9  O1  NON d   1      24.786 -14.076  -4.187  0.00  0.00    -0.267 OA
ATOM     10  H1  NON d   1      27.350 -12.917  -2.694  0.00  0.00     0.169 HD
BRANCH   8  11
ATOM     11  C14 NON d   1      25.716 -11.930  -4.394  0.00  0.00     0.032 A 
ATOM     12  C15 NON d   1      25.537 -10.816  -3.561  0.00  0.00     0.017 A 
ATOM     13  C16 NON d   1      25.568  -9.518  -4.083  0.00  0.00     0.001 A 
ATOM     14  C17 NON d   1      25.775  -9.322  -5.446  0.00  0.00     0.000 A 
ATOM     15  C18 NON d   1      25.950 -10.418  -6.286  0.00  0.00     0.001 A 
ATOM     16  C19 NON d   1      25.914 -11.719  -5.769  0.00  0.00     0.017 A 
ENDBRANCH   8  11
ENDBRANCH   1   7
BRANCH   6  17
ATOM     17  O2  NON d   1      29.153 -14.813  -1.952  0.00  0.00    -0.358 OA
ATOM     18  H10 NON d   1      29.776 -15.062  -1.246  0.00  0.00     0.217 HD
ENDBRANCH   6  17
BRANCH   3  19
ATOM     19  C5  NON d   1      24.245 -17.466  -0.828  0.00  0.00    -0.026 A 
ATOM     20  C6  NON d   1      24.242 -18.842  -0.520  0.00  0.00     0.012 A 
ATOM     21  C7  NON d   1      23.058 -19.555  -0.284  0.00  0.00     0.001 A 
ATOM     22  C8  NON d   1      21.827 -18.916  -0.355  0.00  0.00     0.000 A 
ATOM     23  C9  NON d   1      21.781 -17.567  -0.661  0.00  0.00     0.001 A 
ATOM     24  C10 NON d   1      22.968 -16.858  -0.897  0.00  0.00     0.012 A 
ENDBRANCH   3  19
TORSDOF 4
ENDMDL
MODEL 6
REMARK VINA RESULT:    -6.740      3.186      5.439
REMARK INTER + INTRA:          -9.381
REMARK INTER:                  -7.933
REMARK INTRA:                  -1.448
REMARK CONF_INDEPENDENT:        1.193
REMARK UNBOUND:                -1.448
REMARK  4 active torsions:
REMARK  status: ('A' for Active; 'I' for Inactive)
REMARK       I    between atoms: C1_2  and  N1_3 
REMARK    1  A    between atoms: C1_2  and  C14_17 
REMARK    2  A    between atoms: N1_3  and  C2_4 
REMARK    3  A    between atoms: C4_6  and  C5_7 
REMARK    4  A    between atoms: C13_15  and  O2_16 
ROOT
ATOM      1  C2  NON d   1      25.819 -13.970  -3.987  0.00  0.00     0.069 A 
ATOM      2  C3  NON d   1      25.523 -12.600  -3.820  0.00  0.00     0.044 A 
ATOM      3  C4  NON d   1      26.089 -11.581  -4.626  0.00  0.00    -0.024 A 
ATOM      4  C11 NON d   1      26.968 -12.018  -5.635  0.00  0.00     0.015 A 
ATOM      5  C12 NON d   1      27.310 -13.369  -5.788  0.00  0.00     0.040 A 
ATOM      6  C13 NON d   1      26.761 -14.327  -4.948  0.00  0.00     0.092 A 
ENDROOT
BRANCH   1   7
ATOM      7  N1  NON d   1      25.136 -14.867  -3.127  0.00  0.00    -0.320 N 
ATOM      8  C1  NON d   1      25.697 -15.815  -2.286  0.00  0.00     0.256 C 
ATOM      9  O1  NON d   1      26.891 -16.087  -2.197  0.00  0.00    -0.267 OA
ATOM     10  H1  NON d   1      24.134 -14.876  -3.236  0.00  0.00     0.169 HD
BRANCH   8  11
ATOM     11  C14 NON d   1      24.726 -16.619  -1.462  0.00  0.00     0.032 A 
ATOM     12  C15 NON d   1      25.182 -17.819  -0.895  0.00  0.00     0.017 A 
ATOM     13  C16 NON d   1      24.323 -18.627  -0.142  0.00  0.00     0.001 A 
ATOM     14  C17 NON d   1      22.998 -18.244   0.049  0.00  0.00     0.000 A 
ATOM     15  C18 NON d   1      22.530 -17.059  -0.511  0.00  0.00     0.001 A 
ATOM     16  C19 NON d   1      23.385 -16.250  -1.270  0.00  0.00     0.017 A 
ENDBRANCH   8  11
ENDBRANCH   1   7
BRANCH   6  17
ATOM     17  O2  NON d   1      27.304 -15.575  -5.020  0.00  0.00    -0.358 OA
ATOM     18  H10 NON d   1      27.621 -15.785  -4.123  0.00  0.00     0.217 HD
ENDBRANCH   6  17
BRANCH   3  19
ATOM     19  C5  NON d   1      25.786 -10.124  -4.412  0.00  0.00    -0.026 A 
ATOM     20  C6  NON d   1      25.159  -9.327  -5.392  0.00  0.00     0.012 A 
ATOM     21  C7  NON d   1      24.849  -7.977  -5.175  0.00  0.00     0.001 A 
ATOM     22  C8  NON d   1      25.162  -7.370  -3.967  0.00  0.00     0.000 A 
ATOM     23  C9  NON d   1      25.784  -8.112  -2.977  0.00  0.00     0.001 A 
ATOM     24  C10 NON d   1      26.093  -9.462  -3.199  0.00  0.00     0.012 A 
ENDBRANCH   3  19
TORSDOF 4
ENDMDL
MODEL 7
REMARK VINA RESULT:    -6.496      4.555      8.065
REMARK INTER + INTRA:          -9.141
REMARK INTER:                  -7.689
REMARK INTRA:                  -1.451
REMARK CONF_INDEPENDENT:        1.193
REMARK UNBOUND:                -1.451
REMARK  4 active torsions:
REMARK  status: ('A' for Active; 'I' for Inactive)
REMARK       I    between atoms: C1_2  and  N1_3 
REMARK    1  A    between atoms: C1_2  and  C14_17 
REMARK    2  A    between atoms: N1_3  and  C2_4 
REMARK    3  A    between atoms: C4_6  and  C5_7 
REMARK    4  A    between atoms: C13_15  and  O2_16 
ROOT
ATOM      1  C2  NON d   1      27.599 -15.272   0.534  0.00  0.00     0.069 A 
ATOM      2  C3  NON d   1      26.413 -16.035   0.498  0.00  0.00     0.044 A 
ATOM      3  C4  NON d   1      25.773 -16.417  -0.707  0.00  0.00    -0.024 A 
ATOM      4  C11 NON d   1      26.405 -16.000  -1.894  0.00  0.00     0.015 A 
ATOM      5  C12 NON d   1      27.558 -15.203  -1.879  0.00  0.00     0.040 A 
ATOM      6  C13 NON d   1      28.127 -14.820  -0.672  0.00  0.00     0.092 A 
ENDROOT
BRANCH   1   7
ATOM      7  N1  NON d   1      28.137 -15.012   1.819  0.00  0.00    -0.320 N 
ATOM      8  C1  NON d   1      28.311 -13.775   2.422  0.00  0.00     0.256 C 
ATOM      9  O1  NON d   1      28.093 -12.682   1.906  0.00  0.00    -0.267 OA
ATOM     10  H1  NON d   1      28.530 -15.814   2.284  0.00  0.00     0.169 HD
BRANCH   8  11
ATOM     11  C14 NON d   1      28.887 -13.797   3.813  0.00  0.00     0.032 A 
ATOM     12  C15 NON d   1      28.410 -14.768   4.707  0.00  0.00     0.017 A 
ATOM     13  C16 NON d   1      28.883 -14.824   6.022  0.00  0.00     0.001 A 
ATOM     14  C17 NON d   1      29.837 -13.908   6.458  0.00  0.00     0.000 A 
ATOM     15  C18 NON d   1      30.317 -12.936   5.584  0.00  0.00     0.001 A 
ATOM     16  C19 NON d   1      29.841 -12.873   4.268  0.00  0.00     0.017 A 
ENDBRANCH   8  11
ENDBRANCH   1   7
BRANCH   6  17
ATOM     17  O2  NON d   1      29.109 -13.877  -0.741  0.00  0.00    -0.358 OA
ATOM     18  H10 NON d   1      28.933 -13.249  -0.017  0.00  0.00     0.217 HD
ENDBRANCH   6  17
BRANCH   3  19
ATOM     19  C5  NON d   1      24.491 -17.203  -0.725  0.00  0.00    -0.026 A 
ATOM     20  C6  NON d   1      24.455 -18.601  -0.536  0.00  0.00     0.012 A 
ATOM     21  C7  NON d   1      23.254 -19.324  -0.519  0.00  0.00     0.001 A 
ATOM     22  C8  NON d   1      22.040 -18.675  -0.698  0.00  0.00     0.000 A 
ATOM     23  C9  NON d   1      22.027 -17.304  -0.894  0.00  0.00     0.001 A 
ATOM     24  C10 NON d   1      23.231 -16.585  -0.911  0.00  0.00     0.012 A 
ENDBRANCH   3  19
TORSDOF 4
ENDMDL
MODEL 8
REMARK VINA RESULT:    -6.286      4.103      8.994
REMARK INTER + INTRA:          -8.921
REMARK INTER:                  -7.479
REMARK INTRA:                  -1.441
REMARK CONF_INDEPENDENT:        1.193
REMARK UNBOUND:                -1.441
REMARK  4 active torsions:
REMARK  status: ('A' for Active; 'I' for Inactive)
REMARK       I    between atoms: C1_2  and  N1_3 
REMARK    1  A    between atoms: C1_2  and  C14_17 
REMARK    2  A    between atoms: N1_3  and  C2_4 
REMARK    3  A    between atoms: C4_6  and  C5_7 
REMARK    4  A    between atoms: C13_15  and  O2_16 
ROOT
ATOM      1  C2  NON d   1      27.004 -14.887  -4.050  0.00  0.00     0.069 A 
ATOM      2  C3  NON d   1      26.452 -15.774  -3.101  0.00  0.00     0.044 A 
ATOM      3  C4  NON d   1      25.212 -15.543  -2.454  0.00  0.00    -0.024 A 
ATOM      4  C11 NON d   1      24.538 -14.365  -2.825  0.00  0.00     0.015 A 
ATOM      5  C12 NON d   1      25.091 -13.448  -3.731  0.00  0.00     0.040 A 
ATOM      6  C13 NON d   1      26.327 -13.698  -4.310  0.00  0.00     0.092 A 
ENDROOT
BRANCH   1   7
ATOM      7  N1  NON d   1      28.230 -15.285  -4.639  0.00  0.00    -0.320 N 
ATOM      8  C1  NON d   1      28.585 -15.200  -5.976  0.00  0.00     0.256 C 
ATOM      9  O1  NON d   1      27.861 -14.827  -6.895  0.00  0.00    -0.267 OA
ATOM     10  H1  NON d   1      28.854 -15.781  -4.023  0.00  0.00     0.169 HD
BRANCH   8  11
ATOM     11  C14 NON d   1      29.971 -15.678  -6.320  0.00  0.00     0.032 A 
ATOM     12  C15 NON d   1      30.855 -14.762  -6.912  0.00  0.00     0.017 A 
ATOM     13  C16 NON d   1      32.147 -15.150  -7.280  0.00  0.00     0.001 A 
ATOM     14  C17 NON d   1      32.569 -16.459  -7.064  0.00  0.00     0.000 A 
ATOM     15  C18 NON d   1      31.702 -17.380  -6.482  0.00  0.00     0.001 A 
ATOM     16  C19 NON d   1      30.406 -16.998  -6.116  0.00  0.00     0.017 A 
ENDBRANCH   8  11
ENDBRANCH   1   7
BRANCH   6  17
ATOM     17  O2  NON d   1      26.887 -12.668  -5.005  0.00  0.00    -0.358 OA
ATOM     18  H10 NON d   1      27.352 -13.071  -5.760  0.00  0.00     0.217 HD
ENDBRANCH   6  17
BRANCH   3  19
ATOM     19  C5  NON d   1      24.656 -16.485  -1.422  0.00  0.00    -0.026 A 
ATOM     20  C6  NON d   1      25.473 -17.349  -0.664  0.00  0.00     0.012 A 
ATOM     21  C7  NON d   1      24.952 -18.201   0.321  0.00  0.00     0.001 A 
ATOM     22  C8  NON d   1      23.588 -18.224   0.581  0.00  0.00     0.000 A 
ATOM     23  C9  NON d   1      22.746 -17.397  -0.144  0.00  0.00     0.001 A 
ATOM     24  C10 NON d   1      23.272 -16.548  -1.128  0.00  0.00     0.012 A 
ENDBRANCH   3  19
TORSDOF 4
ENDMDL
MODEL 9
REMARK VINA RESULT:    -6.195      4.408      8.989
REMARK INTER + INTRA:          -8.825
REMARK INTER:                  -7.388
REMARK INTRA:                  -1.437
REMARK CONF_INDEPENDENT:        1.193
REMARK UNBOUND:                -1.437
REMARK  4 active torsions:
REMARK  status: ('A' for Active; 'I' for Inactive)
REMARK       I    between atoms: C1_2  and  N1_3 
REMARK    1  A    between atoms: C1_2  and  C14_17 
REMARK    2  A    between atoms: N1_3  and  C2_4 
REMARK    3  A    between atoms: C4_6  and  C5_7 
REMARK    4  A    between atoms: C13_15  and  O2_16 
ROOT
ATOM      1  C2  NON d   1      26.084 -12.977  -4.334  0.00  0.00     0.069 A 
ATOM      2  C3  NON d   1      25.549 -13.802  -3.322  0.00  0.00     0.044 A 
ATOM      3  C4  NON d   1      26.000 -15.123  -3.078  0.00  0.00    -0.024 A 
ATOM      4  C11 NON d   1      27.044 -15.575  -3.908  0.00  0.00     0.015 A 
ATOM      5  C12 NON d   1      27.558 -14.788  -4.949  0.00  0.00     0.040 A 
ATOM      6  C13 NON d   1      27.056 -13.514  -5.174  0.00  0.00     0.092 A 
ENDROOT
BRANCH   1   7
ATOM      7  N1  NON d   1      25.553 -11.666  -4.419  0.00  0.00    -0.320 N 
ATOM      8  C1  NON d   1      26.247 -10.494  -4.680  0.00  0.00     0.256 C 
ATOM      9  O1  NON d   1      27.464 -10.389  -4.812  0.00  0.00    -0.267 OA
ATOM     10  H1  NON d   1      24.587 -11.582  -4.149  0.00  0.00     0.169 HD
BRANCH   8  11
ATOM     11  C14 NON d   1      25.419  -9.238  -4.736  0.00  0.00     0.032 A 
ATOM     12  C15 NON d   1      24.480  -9.115  -5.770  0.00  0.00     0.017 A 
ATOM     13  C16 NON d   1      23.698  -7.962  -5.895  0.00  0.00     0.001 A 
ATOM     14  C17 NON d   1      23.851  -6.917  -4.987  0.00  0.00     0.000 A 
ATOM     15  C18 NON d   1      24.782  -7.022  -3.958  0.00  0.00     0.001 A 
ATOM     16  C19 NON d   1      25.570  -8.172  -3.833  0.00  0.00     0.017 A 
ENDBRANCH   8  11
ENDBRANCH   1   7
BRANCH   6  17
ATOM     17  O2  NON d   1      27.453 -12.905  -6.327  0.00  0.00    -0.358 OA
ATOM     18  H10 NON d   1      27.920 -12.094  -6.058  0.00  0.00     0.217 HD
ENDBRANCH   6  17
BRANCH   3  19
ATOM     19  C5  NON d   1      25.396 -15.997  -2.015  0.00  0.00    -0.026 A 
ATOM     20  C6  NON d   1      24.027 -15.948  -1.680  0.00  0.00     0.012 A 
ATOM     21  C7  NON d   1      23.461 -16.789  -0.711  0.00  0.00     0.001 A 
ATOM     22  C8  NON d   1      24.249 -17.711  -0.034  0.00  0.00     0.000 A 
ATOM     23  C9  NON d   1      25.600 -17.790  -0.326  0.00  0.00     0.001 A 
ATOM     24  C10 NON d   1      26.161 -16.946  -1.295  0.00  0.00     0.012 A 
ENDBRANCH   3  19
TORSDOF 4
ENDMDL
