MODEL 1
REMARK VINA RESULT:    -8.604      0.000      0.000
REMARK INTER + INTRA:         -12.223
REMARK INTER:                 -10.990
REMARK INTRA:                  -1.233
REMARK CONF_INDEPENDENT:        2.386
REMARK UNBOUND:                -1.233
REMARK  8 active torsions:
REMARK  status: ('A' for Active; 'I' for Inactive)
REMARK    1  A    between atoms: C1_2  and  C2_3 
REMARK       I    between atoms: C1_2  and  N1_17 
REMARK    2  A    between atoms: N1_17  and  C16_18 
REMARK    3  A    between atoms: C16_18  and  C17_19 
REMARK    4  A    between atoms: C17_19  and  C18_20 
REMARK    5  A    between atoms: C18_20  and  C19_21 
REMARK    6  A    between atoms: C19_21  and  C20_22 
REMARK    7  A    between atoms: C20_22  and  C21_23 
REMARK       I    between atoms: C21_23  and  N2_25 
REMARK    8  A    between atoms: N2_25  and  O3_26 
ROOT
ATOM      1  O1  NON d   1      26.450 -14.323   0.980  0.00  0.00    -0.269 OA
ATOM      2  C1  NON d   1      27.434 -14.925   1.399  0.00  0.00     0.242 C 
ATOM      3  N1  NON d   1      28.015 -15.978   0.752  0.00  0.00    -0.358 N 
ATOM      4  H10 NON d   1      28.651 -16.567   1.275  0.00  0.00     0.162 HD
ENDROOT
BRANCH   2   5
ATOM      5  C2  NON d   1      27.960 -14.581   2.744  0.00  0.00     0.087 C 
ATOM      6  C3  NON d   1      27.931 -13.442   3.459  0.00  0.00    -0.009 A 
ATOM      7  C4  NON d   1      28.412 -13.423   4.877  0.00  0.00    -0.014 A 
ATOM      8  C15 NON d   1      27.418 -12.081   3.137  0.00  0.00    -0.014 A 
ATOM      9  C5  NON d   1      28.922 -14.405   5.715  0.00  0.00     0.013 A 
ATOM     10  C9  NON d   1      28.200 -12.109   5.353  0.00  0.00    -0.014 A 
ATOM     11  C6  NON d   1      29.205 -14.068   7.044  0.00  0.00     0.001 A 
ATOM     12  C7  NON d   1      28.985 -12.766   7.518  0.00  0.00     0.001 A 
ATOM     13  C8  NON d   1      28.483 -11.776   6.671  0.00  0.00     0.013 A 
ATOM     14  C10 NON d   1      27.627 -11.293   4.295  0.00  0.00    -0.014 A 
ATOM     15  C11 NON d   1      27.279  -9.946   4.320  0.00  0.00     0.013 A 
ATOM     16  C12 NON d   1      26.707  -9.380   3.182  0.00  0.00     0.001 A 
ATOM     17  C13 NON d   1      26.473 -10.161   2.046  0.00  0.00     0.001 A 
ATOM     18  C14 NON d   1      26.819 -11.516   2.028  0.00  0.00     0.013 A 
ENDBRANCH   2   5
BRANCH   3  19
ATOM     19  C16 NON d   1      27.508 -16.463  -0.523  0.00  0.00     0.123 C 
BRANCH  19  20
ATOM     20  C17 NON d   1      26.405 -17.513  -0.359  0.00  0.00     0.020 C 
BRANCH  20  21
ATOM     21  C18 NON d   1      25.026 -17.009  -0.809  0.00  0.00     0.002 C 
BRANCH  21  22
ATOM     22  C19 NON d   1      24.005 -18.136  -1.026  0.00  0.00     0.009 C 
BRANCH  22  23
ATOM     23  C20 NON d   1      22.868 -18.162  -0.005  0.00  0.00     0.105 C 
BRANCH  23  24
ATOM     24  C21 NON d   1      21.503 -18.547  -0.551  0.00  0.00     0.240 C 
ATOM     25  O2  NON d   1      20.832 -17.819  -1.270  0.00  0.00    -0.271 OA
ATOM     26  N2  NON d   1      21.088 -19.768  -0.045  0.00  0.00    -0.237 N 
ATOM     27  H21 NON d   1      21.782 -20.451   0.237  0.00  0.00     0.197 HD
BRANCH  26  28
ATOM     28  O3  NON d   1      19.941 -20.316  -0.664  0.00  0.00    -0.287 OA
ATOM     29  H22 NON d   1      19.649 -19.589  -1.244  0.00  0.00     0.244 HD
ENDBRANCH  26  28
ENDBRANCH  23  24
ENDBRANCH  22  23
ENDBRANCH  21  22
ENDBRANCH  20  21
ENDBRANCH  19  20
ENDBRANCH   3  19
TORSDOF 8
ENDMDL
MODEL 2
REMARK VINA RESULT:    -8.517      5.851      8.257
REMARK INTER + INTRA:         -12.123
REMARK INTER:                 -10.904
REMARK INTRA:                  -1.219
REMARK CONF_INDEPENDENT:        2.386
REMARK UNBOUND:                -1.219
REMARK  8 active torsions:
REMARK  status: ('A' for Active; 'I' for Inactive)
REMARK    1  A    between atoms: C1_2  and  C2_3 
REMARK       I    between atoms: C1_2  and  N1_17 
REMARK    2  A    between atoms: N1_17  and  C16_18 
REMARK    3  A    between atoms: C16_18  and  C17_19 
REMARK    4  A    between atoms: C17_19  and  C18_20 
REMARK    5  A    between atoms: C18_20  and  C19_21 
REMARK    6  A    between atoms: C19_21  and  C20_22 
REMARK    7  A    between atoms: C20_22  and  C21_23 
REMARK       I    between atoms: C21_23  and  N2_25 
REMARK    8  A    between atoms: N2_25  and  O3_26 
ROOT
ATOM      1  O1  NON d   1      24.879 -14.842  -3.609  0.00  0.00    -0.269 OA
ATOM      2  C1  NON d   1      25.888 -15.475  -3.313  0.00  0.00     0.242 C 
ATOM      3  N1  NON d   1      26.090 -16.059  -2.096  0.00  0.00    -0.358 N 
ATOM      4  H10 NON d   1      27.032 -16.339  -1.851  0.00  0.00     0.162 HD
ENDROOT
BRANCH   2   5
ATOM      5  C2  NON d   1      27.014 -15.513  -4.279  0.00  0.00     0.087 C 
ATOM      6  C3  NON d   1      27.517 -14.586  -5.115  0.00  0.00    -0.009 A 
ATOM      7  C4  NON d   1      28.779 -14.854  -5.877  0.00  0.00    -0.014 A 
ATOM      8  C15 NON d   1      27.085 -13.196  -5.431  0.00  0.00    -0.014 A 
ATOM      9  C5  NON d   1      29.645 -15.938  -5.919  0.00  0.00     0.013 A 
ATOM     10  C9  NON d   1      29.059 -13.679  -6.610  0.00  0.00    -0.014 A 
ATOM     11  C6  NON d   1      30.808 -15.834  -6.690  0.00  0.00     0.001 A 
ATOM     12  C7  NON d   1      31.091 -14.663  -7.410  0.00  0.00     0.001 A 
ATOM     13  C8  NON d   1      30.212 -13.577  -7.376  0.00  0.00     0.013 A 
ATOM     14  C10 NON d   1      28.022 -12.689  -6.363  0.00  0.00    -0.014 A 
ATOM     15  C11 NON d   1      27.893 -11.409  -6.890  0.00  0.00     0.013 A 
ATOM     16  C12 NON d   1      26.821 -10.619  -6.477  0.00  0.00     0.001 A 
ATOM     17  C13 NON d   1      25.908 -11.105  -5.535  0.00  0.00     0.001 A 
ATOM     18  C14 NON d   1      26.047 -12.391  -5.004  0.00  0.00     0.013 A 
ENDBRANCH   2   5
BRANCH   3  19
ATOM     19  C16 NON d   1      25.092 -15.988  -1.040  0.00  0.00     0.123 C 
BRANCH  19  20
ATOM     20  C17 NON d   1      24.752 -17.362  -0.454  0.00  0.00     0.020 C 
BRANCH  20  21
ATOM     21  C18 NON d   1      23.637 -18.083  -1.223  0.00  0.00     0.002 C 
BRANCH  21  22
ATOM     22  C19 NON d   1      22.237 -17.845  -0.637  0.00  0.00     0.009 C 
BRANCH  22  23
ATOM     23  C20 NON d   1      21.567 -19.100  -0.076  0.00  0.00     0.105 C 
BRANCH  23  24
ATOM     24  C21 NON d   1      20.330 -19.573  -0.822  0.00  0.00     0.240 C 
ATOM     25  O2  NON d   1      20.281 -19.699  -2.038  0.00  0.00    -0.271 OA
ATOM     26  N2  NON d   1      19.258 -19.737   0.039  0.00  0.00    -0.237 N 
ATOM     27  H21 NON d   1      19.432 -19.956   1.014  0.00  0.00     0.197 HD
BRANCH  26  28
ATOM     28  O3  NON d   1      18.133 -20.387  -0.519  0.00  0.00    -0.287 OA
ATOM     29  H22 NON d   1      18.273 -20.262  -1.476  0.00  0.00     0.244 HD
ENDBRANCH  26  28
ENDBRANCH  23  24
ENDBRANCH  22  23
ENDBRANCH  21  22
ENDBRANCH  20  21
ENDBRANCH  19  20
ENDBRANCH   3  19
TORSDOF 8
ENDMDL
MODEL 3
REMARK VINA RESULT:    -8.455      6.557      8.620
REMARK INTER + INTRA:         -12.018
REMARK INTER:                 -10.842
REMARK INTRA:                  -1.176
REMARK CONF_INDEPENDENT:        2.386
REMARK UNBOUND:                -1.176
REMARK  8 active torsions:
REMARK  status: ('A' for Active; 'I' for Inactive)
REMARK    1  A    between atoms: C1_2  and  C2_3 
REMARK       I    between atoms: C1_2  and  N1_17 
REMARK    2  A    between atoms: N1_17  and  C16_18 
REMARK    3  A    between atoms: C16_18  and  C17_19 
REMARK    4  A    between atoms: C17_19  and  C18_20 
REMARK    5  A    between atoms: C18_20  and  C19_21 
REMARK    6  A    between atoms: C19_21  and  C20_22 
REMARK    7  A    between atoms: C20_22  and  C21_23 
REMARK       I    between atoms: C21_23  and  N2_25 
REMARK    8  A    between atoms: N2_25  and  O3_26 
ROOT
ATOM      1  O1  NON d   1      30.516 -15.919  -1.334  0.00  0.00    -0.269 OA
ATOM      2  C1  NON d   1      30.162 -16.851  -0.618  0.00  0.00     0.242 C 
ATOM      3  N1  NON d   1      31.009 -17.814  -0.149  0.00  0.00    -0.358 N 
ATOM      4  H10 NON d   1      30.604 -18.667   0.217  0.00  0.00     0.162 HD
ENDROOT
BRANCH   2   5
ATOM      5  C2  NON d   1      28.715 -17.023  -0.335  0.00  0.00     0.087 C 
ATOM      6  C3  NON d   1      27.614 -16.688  -1.033  0.00  0.00    -0.009 A 
ATOM      7  C4  NON d   1      26.259 -17.130  -0.572  0.00  0.00    -0.014 A 
ATOM      8  C15 NON d   1      27.438 -15.957  -2.318  0.00  0.00    -0.014 A 
ATOM      9  C5  NON d   1      25.830 -17.891   0.507  0.00  0.00     0.013 A 
ATOM     10  C9  NON d   1      25.338 -16.667  -1.538  0.00  0.00    -0.014 A 
ATOM     11  C6  NON d   1      24.468 -18.200   0.606  0.00  0.00     0.001 A 
ATOM     12  C7  NON d   1      23.556 -17.748  -0.359  0.00  0.00     0.001 A 
ATOM     13  C8  NON d   1      23.988 -16.972  -1.438  0.00  0.00     0.013 A 
ATOM     14  C10 NON d   1      26.046 -15.934  -2.577  0.00  0.00    -0.014 A 
ATOM     15  C11 NON d   1      25.534 -15.296  -3.701  0.00  0.00     0.013 A 
ATOM     16  C12 NON d   1      26.419 -14.680  -4.584  0.00  0.00     0.001 A 
ATOM     17  C13 NON d   1      27.797 -14.723  -4.348  0.00  0.00     0.001 A 
ATOM     18  C14 NON d   1      28.307 -15.372  -3.219  0.00  0.00     0.013 A 
ENDBRANCH   2   5
BRANCH   3  19
ATOM     19  C16 NON d   1      32.430 -17.796  -0.458  0.00  0.00     0.123 C 
BRANCH  19  20
ATOM     20  C17 NON d   1      33.243 -18.728   0.447  0.00  0.00     0.020 C 
BRANCH  20  21
ATOM     21  C18 NON d   1      32.631 -18.893   1.844  0.00  0.00     0.002 C 
BRANCH  21  22
ATOM     22  C19 NON d   1      32.441 -20.360   2.259  0.00  0.00     0.009 C 
BRANCH  22  23
ATOM     23  C20 NON d   1      32.714 -20.638   3.738  0.00  0.00     0.105 C 
BRANCH  23  24
ATOM     24  C21 NON d   1      31.528 -21.143   4.542  0.00  0.00     0.240 C 
ATOM     25  O2  NON d   1      30.507 -21.585   4.033  0.00  0.00    -0.271 OA
ATOM     26  N2  NON d   1      31.718 -20.939   5.898  0.00  0.00    -0.237 N 
ATOM     27  H21 NON d   1      32.662 -20.906   6.268  0.00  0.00     0.197 HD
BRANCH  26  28
ATOM     28  O3  NON d   1      30.778 -21.576   6.740  0.00  0.00    -0.287 OA
ATOM     29  H22 NON d   1      30.368 -22.227   6.140  0.00  0.00     0.244 HD
ENDBRANCH  26  28
ENDBRANCH  23  24
ENDBRANCH  22  23
ENDBRANCH  21  22
ENDBRANCH  20  21
ENDBRANCH  19  20
ENDBRANCH   3  19
TORSDOF 8
ENDMDL
MODEL 4
REMARK VINA RESULT:    -8.098      5.425      7.276
REMARK INTER + INTRA:         -11.937
REMARK INTER:                 -10.484
REMARK INTRA:                  -1.453
REMARK CONF_INDEPENDENT:        2.386
REMARK UNBOUND:                -1.453
REMARK  8 active torsions:
REMARK  status: ('A' for Active; 'I' for Inactive)
REMARK    1  A    between atoms: C1_2  and  C2_3 
REMARK       I    between atoms: C1_2  and  N1_17 
REMARK    2  A    between atoms: N1_17  and  C16_18 
REMARK    3  A    between atoms: C16_18  and  C17_19 
REMARK    4  A    between atoms: C17_19  and  C18_20 
REMARK    5  A    between atoms: C18_20  and  C19_21 
REMARK    6  A    between atoms: C19_21  and  C20_22 
REMARK    7  A    between atoms: C20_22  and  C21_23 
REMARK       I    between atoms: C21_23  and  N2_25 
REMARK    8  A    between atoms: N2_25  and  O3_26 
ROOT
ATOM      1  O1  NON d   1      27.865 -16.130   0.300  0.00  0.00    -0.269 OA
ATOM      2  C1  NON d   1      27.547 -16.862  -0.633  0.00  0.00     0.242 C 
ATOM      3  N1  NON d   1      26.653 -17.888  -0.524  0.00  0.00    -0.358 N 
ATOM      4  H10 NON d   1      26.637 -18.586  -1.258  0.00  0.00     0.162 HD
ENDROOT
BRANCH   2   5
ATOM      5  C2  NON d   1      28.255 -16.713  -1.929  0.00  0.00     0.087 C 
ATOM      6  C3  NON d   1      28.008 -15.947  -3.008  0.00  0.00    -0.009 A 
ATOM      7  C4  NON d   1      28.993 -15.882  -4.134  0.00  0.00    -0.014 A 
ATOM      8  C15 NON d   1      26.892 -15.016  -3.329  0.00  0.00    -0.014 A 
ATOM      9  C5  NON d   1      30.231 -16.475  -4.342  0.00  0.00     0.013 A 
ATOM     10  C9  NON d   1      28.468 -14.964  -5.071  0.00  0.00    -0.014 A 
ATOM     11  C6  NON d   1      30.952 -16.132  -5.492  0.00  0.00     0.001 A 
ATOM     12  C7  NON d   1      30.434 -15.212  -6.417  0.00  0.00     0.001 A 
ATOM     13  C8  NON d   1      29.183 -14.625  -6.212  0.00  0.00     0.013 A 
ATOM     14  C10 NON d   1      27.187 -14.463  -4.599  0.00  0.00    -0.014 A 
ATOM     15  C11 NON d   1      26.321 -13.562  -5.211  0.00  0.00     0.013 A 
ATOM     16  C12 NON d   1      25.151 -13.200  -4.545  0.00  0.00     0.001 A 
ATOM     17  C13 NON d   1      24.869 -13.722  -3.279  0.00  0.00     0.001 A 
ATOM     18  C14 NON d   1      25.746 -14.622  -2.666  0.00  0.00     0.013 A 
ENDBRANCH   2   5
BRANCH   3  19
ATOM     19  C16 NON d   1      25.983 -18.187   0.732  0.00  0.00     0.123 C 
BRANCH  19  20
ATOM     20  C17 NON d   1      24.457 -18.167   0.607  0.00  0.00     0.020 C 
BRANCH  20  21
ATOM     21  C18 NON d   1      23.975 -17.889  -0.824  0.00  0.00     0.002 C 
BRANCH  21  22
ATOM     22  C19 NON d   1      22.445 -17.876  -0.961  0.00  0.00     0.009 C 
BRANCH  22  23
ATOM     23  C20 NON d   1      21.732 -18.981  -0.183  0.00  0.00     0.105 C 
BRANCH  23  24
ATOM     24  C21 NON d   1      20.458 -19.515  -0.816  0.00  0.00     0.240 C 
ATOM     25  O2  NON d   1      20.327 -19.699  -2.019  0.00  0.00    -0.271 OA
ATOM     26  N2  NON d   1      19.453 -19.660   0.125  0.00  0.00    -0.237 N 
ATOM     27  H21 NON d   1      19.700 -19.829   1.094  0.00  0.00     0.197 HD
BRANCH  26  28
ATOM     28  O3  NON d   1      18.308 -20.359  -0.321  0.00  0.00    -0.287 OA
ATOM     29  H22 NON d   1      18.311 -20.175  -1.279  0.00  0.00     0.244 HD
ENDBRANCH  26  28
ENDBRANCH  23  24
ENDBRANCH  22  23
ENDBRANCH  21  22
ENDBRANCH  20  21
ENDBRANCH  19  20
ENDBRANCH   3  19
TORSDOF 8
ENDMDL
MODEL 5
REMARK VINA RESULT:    -8.012      5.637      8.877
REMARK INTER + INTRA:         -11.732
REMARK INTER:                 -10.399
REMARK INTRA:                  -1.333
REMARK CONF_INDEPENDENT:        2.386
REMARK UNBOUND:                -1.333
REMARK  8 active torsions:
REMARK  status: ('A' for Active; 'I' for Inactive)
REMARK    1  A    between atoms: C1_2  and  C2_3 
REMARK       I    between atoms: C1_2  and  N1_17 
REMARK    2  A    between atoms: N1_17  and  C16_18 
REMARK    3  A    between atoms: C16_18  and  C17_19 
REMARK    4  A    between atoms: C17_19  and  C18_20 
REMARK    5  A    between atoms: C18_20  and  C19_21 
REMARK    6  A    between atoms: C19_21  and  C20_22 
REMARK    7  A    between atoms: C20_22  and  C21_23 
REMARK       I    between atoms: C21_23  and  N2_25 
REMARK    8  A    between atoms: N2_25  and  O3_26 
ROOT
ATOM      1  O1  NON d   1      24.079 -14.450  -3.498  0.00  0.00    -0.269 OA
ATOM      2  C1  NON d   1      25.261 -14.130  -3.413  0.00  0.00     0.242 C 
ATOM      3  N1  NON d   1      26.078 -14.500  -2.384  0.00  0.00    -0.358 N 
ATOM      4  H10 NON d   1      26.949 -13.997  -2.262  0.00  0.00     0.162 HD
ENDROOT
BRANCH   2   5
ATOM      5  C2  NON d   1      25.817 -13.187  -4.416  0.00  0.00     0.087 C 
ATOM      6  C3  NON d   1      26.871 -13.275  -5.248  0.00  0.00    -0.009 A 
ATOM      7  C4  NON d   1      27.113 -12.218  -6.282  0.00  0.00    -0.014 A 
ATOM      8  C15 NON d   1      27.912 -14.325  -5.424  0.00  0.00    -0.014 A 
ATOM      9  C5  NON d   1      26.431 -11.058  -6.625  0.00  0.00     0.013 A 
ATOM     10  C9  NON d   1      28.249 -12.629  -7.015  0.00  0.00    -0.014 A 
ATOM     11  C6  NON d   1      26.885 -10.316  -7.721  0.00  0.00     0.001 A 
ATOM     12  C7  NON d   1      28.007 -10.731  -8.455  0.00  0.00     0.001 A 
ATOM     13  C8  NON d   1      28.699 -11.891  -8.101  0.00  0.00     0.013 A 
ATOM     14  C10 NON d   1      28.748 -13.886  -6.479  0.00  0.00    -0.014 A 
ATOM     15  C11 NON d   1      29.849 -14.633  -6.883  0.00  0.00     0.013 A 
ATOM     16  C12 NON d   1      30.116 -15.837  -6.235  0.00  0.00     0.001 A 
ATOM     17  C13 NON d   1      29.279 -16.289  -5.211  0.00  0.00     0.001 A 
ATOM     18  C14 NON d   1      28.169 -15.537  -4.813  0.00  0.00     0.013 A 
ENDBRANCH   2   5
BRANCH   3  19
ATOM     19  C16 NON d   1      25.600 -15.335  -1.293  0.00  0.00     0.123 C 
BRANCH  19  20
ATOM     20  C17 NON d   1      25.133 -16.715  -1.767  0.00  0.00     0.020 C 
BRANCH  20  21
ATOM     21  C18 NON d   1      24.950 -17.715  -0.616  0.00  0.00     0.002 C 
BRANCH  21  22
ATOM     22  C19 NON d   1      23.490 -17.862  -0.161  0.00  0.00     0.009 C 
BRANCH  22  23
ATOM     23  C20 NON d   1      22.631 -18.738  -1.075  0.00  0.00     0.105 C 
BRANCH  23  24
ATOM     24  C21 NON d   1      21.160 -18.829  -0.704  0.00  0.00     0.240 C 
ATOM     25  O2  NON d   1      20.280 -18.195  -1.270  0.00  0.00    -0.271 OA
ATOM     26  N2  NON d   1      20.973 -19.632   0.409  0.00  0.00    -0.237 N 
ATOM     27  H21 NON d   1      21.639 -20.371   0.607  0.00  0.00     0.197 HD
BRANCH  26  28
ATOM     28  O3  NON d   1      19.628 -19.960   0.694  0.00  0.00    -0.287 OA
ATOM     29  H22 NON d   1      19.144 -19.200   0.320  0.00  0.00     0.244 HD
ENDBRANCH  26  28
ENDBRANCH  23  24
ENDBRANCH  22  23
ENDBRANCH  21  22
ENDBRANCH  20  21
ENDBRANCH  19  20
ENDBRANCH   3  19
TORSDOF 8
ENDMDL
MODEL 6
REMARK VINA RESULT:    -7.465      6.542      7.943
REMARK INTER + INTRA:         -11.749
REMARK INTER:                  -9.851
REMARK INTRA:                  -1.898
REMARK CONF_INDEPENDENT:        2.386
REMARK UNBOUND:                -1.898
REMARK  8 active torsions:
REMARK  status: ('A' for Active; 'I' for Inactive)
REMARK    1  A    between atoms: C1_2  and  C2_3 
REMARK       I    between atoms: C1_2  and  N1_17 
REMARK    2  A    between atoms: N1_17  and  C16_18 
REMARK    3  A    between atoms: C16_18  and  C17_19 
REMARK    4  A    between atoms: C17_19  and  C18_20 
REMARK    5  A    between atoms: C18_20  and  C19_21 
REMARK    6  A    between atoms: C19_21  and  C20_22 
REMARK    7  A    between atoms: C20_22  and  C21_23 
REMARK       I    between atoms: C21_23  and  N2_25 
REMARK    8  A    between atoms: N2_25  and  O3_26 
ROOT
ATOM      1  O1  NON d   1      29.763 -16.342  -2.095  0.00  0.00    -0.269 OA
ATOM      2  C1  NON d   1      29.483 -17.130  -1.197  0.00  0.00     0.242 C 
ATOM      3  N1  NON d   1      30.388 -17.964  -0.606  0.00  0.00    -0.358 N 
ATOM      4  H10 NON d   1      30.036 -18.744  -0.064  0.00  0.00     0.162 HD
ENDROOT
BRANCH   2   5
ATOM      5  C2  NON d   1      28.060 -17.286  -0.804  0.00  0.00     0.087 C 
ATOM      6  C3  NON d   1      26.934 -16.691  -1.239  0.00  0.00    -0.009 A 
ATOM      7  C4  NON d   1      25.593 -17.161  -0.765  0.00  0.00    -0.014 A 
ATOM      8  C15 NON d   1      26.706 -15.604  -2.231  0.00  0.00    -0.014 A 
ATOM      9  C5  NON d   1      25.199 -18.177   0.096  0.00  0.00     0.013 A 
ATOM     10  C9  NON d   1      24.633 -16.376  -1.440  0.00  0.00    -0.014 A 
ATOM     11  C6  NON d   1      23.830 -18.414   0.265  0.00  0.00     0.001 A 
ATOM     12  C7  NON d   1      22.877 -17.640  -0.414  0.00  0.00     0.001 A 
ATOM     13  C8  NON d   1      23.275 -16.611  -1.270  0.00  0.00     0.013 A 
ATOM     14  C10 NON d   1      25.305 -15.417  -2.303  0.00  0.00    -0.014 A 
ATOM     15  C11 NON d   1      24.750 -14.445  -3.129  0.00  0.00     0.013 A 
ATOM     16  C12 NON d   1      25.601 -13.654  -3.899  0.00  0.00     0.001 A 
ATOM     17  C13 NON d   1      26.984 -13.853  -3.852  0.00  0.00     0.001 A 
ATOM     18  C14 NON d   1      27.536 -14.836  -3.025  0.00  0.00     0.013 A 
ENDBRANCH   2   5
BRANCH   3  19
ATOM     19  C16 NON d   1      31.790 -17.967  -0.994  0.00  0.00     0.123 C 
BRANCH  19  20
ATOM     20  C17 NON d   1      32.058 -18.826  -2.234  0.00  0.00     0.020 C 
BRANCH  20  21
ATOM     21  C18 NON d   1      32.468 -20.265  -1.890  0.00  0.00     0.002 C 
BRANCH  21  22
ATOM     22  C19 NON d   1      31.520 -21.326  -2.471  0.00  0.00     0.009 C 
BRANCH  22  23
ATOM     23  C20 NON d   1      30.997 -22.331  -1.445  0.00  0.00     0.105 C 
BRANCH  23  24
ATOM     24  C21 NON d   1      30.593 -21.749  -0.101  0.00  0.00     0.240 C 
ATOM     25  O2  NON d   1      30.931 -20.637   0.283  0.00  0.00    -0.271 OA
ATOM     26  N2  NON d   1      29.893 -22.674   0.656  0.00  0.00    -0.237 N 
ATOM     27  H21 NON d   1      29.362 -23.400   0.187  0.00  0.00     0.197 HD
BRANCH  26  28
ATOM     28  O3  NON d   1      29.282 -22.158   1.821  0.00  0.00    -0.287 OA
ATOM     29  H22 NON d   1      29.443 -21.200   1.735  0.00  0.00     0.244 HD
ENDBRANCH  26  28
ENDBRANCH  23  24
ENDBRANCH  22  23
ENDBRANCH  21  22
ENDBRANCH  20  21
ENDBRANCH  19  20
ENDBRANCH   3  19
TORSDOF 8
ENDMDL
MODEL 7
REMARK VINA RESULT:    -7.034      6.369      8.316
REMARK INTER + INTRA:         -12.011
REMARK INTER:                  -9.421
REMARK INTRA:                  -2.591
REMARK CONF_INDEPENDENT:        2.386
REMARK UNBOUND:                -2.591
REMARK  8 active torsions:
REMARK  status: ('A' for Active; 'I' for Inactive)
REMARK    1  A    between atoms: C1_2  and  C2_3 
REMARK       I    between atoms: C1_2  and  N1_17 
REMARK    2  A    between atoms: N1_17  and  C16_18 
REMARK    3  A    between atoms: C16_18  and  C17_19 
REMARK    4  A    between atoms: C17_19  and  C18_20 
REMARK    5  A    between atoms: C18_20  and  C19_21 
REMARK    6  A    between atoms: C19_21  and  C20_22 
REMARK    7  A    between atoms: C20_22  and  C21_23 
REMARK       I    between atoms: C21_23  and  N2_25 
REMARK    8  A    between atoms: N2_25  and  O3_26 
ROOT
ATOM      1  O1  NON d   1      27.221 -13.360  -3.449  0.00  0.00    -0.269 OA
ATOM      2  C1  NON d   1      25.995 -13.317  -3.434  0.00  0.00     0.242 C 
ATOM      3  N1  NON d   1      25.265 -12.260  -3.895  0.00  0.00    -0.358 N 
ATOM      4  H10 NON d   1      24.292 -12.196  -3.621  0.00  0.00     0.162 HD
ENDROOT
BRANCH   2   5
ATOM      5  C2  NON d   1      25.252 -14.416  -2.768  0.00  0.00     0.087 C 
ATOM      6  C3  NON d   1      25.661 -15.459  -2.022  0.00  0.00    -0.009 A 
ATOM      7  C4  NON d   1      24.663 -16.340  -1.335  0.00  0.00    -0.014 A 
ATOM      8  C15 NON d   1      27.020 -15.937  -1.646  0.00  0.00    -0.014 A 
ATOM      9  C5  NON d   1      23.277 -16.324  -1.270  0.00  0.00     0.013 A 
ATOM     10  C9  NON d   1      25.408 -17.292  -0.604  0.00  0.00    -0.014 A 
ATOM     11  C6  NON d   1      22.636 -17.263  -0.452  0.00  0.00     0.001 A 
ATOM     12  C7  NON d   1      23.377 -18.201   0.282  0.00  0.00     0.001 A 
ATOM     13  C8  NON d   1      24.772 -18.223   0.206  0.00  0.00     0.013 A 
ATOM     14  C10 NON d   1      26.830 -17.066  -0.814  0.00  0.00    -0.014 A 
ATOM     15  C11 NON d   1      27.912 -17.775  -0.304  0.00  0.00     0.013 A 
ATOM     16  C12 NON d   1      29.201 -17.349  -0.620  0.00  0.00     0.001 A 
ATOM     17  C13 NON d   1      29.395 -16.218  -1.418  0.00  0.00     0.001 A 
ATOM     18  C14 NON d   1      28.303 -15.505  -1.923  0.00  0.00     0.013 A 
ENDBRANCH   2   5
BRANCH   3  19
ATOM     19  C16 NON d   1      25.902 -11.085  -4.469  0.00  0.00     0.123 C 
BRANCH  19  20
ATOM     20  C17 NON d   1      26.239 -11.261  -5.953  0.00  0.00     0.020 C 
BRANCH  20  21
ATOM     21  C18 NON d   1      27.749 -11.317  -6.223  0.00  0.00     0.002 C 
BRANCH  21  22
ATOM     22  C19 NON d   1      28.164 -12.481  -7.137  0.00  0.00     0.009 C 
BRANCH  22  23
ATOM     23  C20 NON d   1      29.067 -13.517  -6.467  0.00  0.00     0.105 C 
BRANCH  23  24
ATOM     24  C21 NON d   1      28.385 -14.809  -6.046  0.00  0.00     0.240 C 
ATOM     25  O2  NON d   1      28.956 -15.890  -6.001  0.00  0.00    -0.271 OA
ATOM     26  N2  NON d   1      27.032 -14.613  -5.828  0.00  0.00    -0.237 N 
ATOM     27  H21 NON d   1      26.701 -13.697  -5.545  0.00  0.00     0.197 HD
BRANCH  26  28
ATOM     28  O3  NON d   1      26.358 -15.696  -5.218  0.00  0.00    -0.287 OA
ATOM     29  H22 NON d   1      27.095 -16.280  -4.959  0.00  0.00     0.244 HD
ENDBRANCH  26  28
ENDBRANCH  23  24
ENDBRANCH  22  23
ENDBRANCH  21  22
ENDBRANCH  20  21
ENDBRANCH  19  20
ENDBRANCH   3  19
TORSDOF 8
ENDMDL
MODEL 8
REMARK VINA RESULT:    -6.867      4.607      8.085
REMARK INTER + INTRA:         -11.731
REMARK INTER:                  -9.253
REMARK INTRA:                  -2.478
REMARK CONF_INDEPENDENT:        2.386
REMARK UNBOUND:                -2.478
REMARK  8 active torsions:
REMARK  status: ('A' for Active; 'I' for Inactive)
REMARK    1  A    between atoms: C1_2  and  C2_3 
REMARK       I    between atoms: C1_2  and  N1_17 
REMARK    2  A    between atoms: N1_17  and  C16_18 
REMARK    3  A    between atoms: C16_18  and  C17_19 
REMARK    4  A    between atoms: C17_19  and  C18_20 
REMARK    5  A    between atoms: C18_20  and  C19_21 
REMARK    6  A    between atoms: C19_21  and  C20_22 
REMARK    7  A    between atoms: C20_22  and  C21_23 
REMARK       I    between atoms: C21_23  and  N2_25 
REMARK    8  A    between atoms: N2_25  and  O3_26 
ROOT
ATOM      1  O1  NON d   1      30.137 -17.675  -1.457  0.00  0.00    -0.269 OA
ATOM      2  C1  NON d   1      29.635 -17.118  -0.486  0.00  0.00     0.242 C 
ATOM      3  N1  NON d   1      30.353 -16.439   0.457  0.00  0.00    -0.358 N 
ATOM      4  H10 NON d   1      29.903 -16.230   1.340  0.00  0.00     0.162 HD
ENDROOT
BRANCH   2   5
ATOM      5  C2  NON d   1      28.181 -17.286  -0.240  0.00  0.00     0.087 C 
ATOM      6  C3  NON d   1      27.099 -16.753  -0.837  0.00  0.00    -0.009 A 
ATOM      7  C4  NON d   1      25.723 -17.227  -0.480  0.00  0.00    -0.014 A 
ATOM      8  C15 NON d   1      26.961 -15.742  -1.921  0.00  0.00    -0.014 A 
ATOM      9  C5  NON d   1      25.256 -18.193   0.401  0.00  0.00     0.013 A 
ATOM     10  C9  NON d   1      24.828 -16.516  -1.310  0.00  0.00    -0.014 A 
ATOM     11  C6  NON d   1      23.882 -18.456   0.437  0.00  0.00     0.001 A 
ATOM     12  C7  NON d   1      22.995 -17.756  -0.395  0.00  0.00     0.001 A 
ATOM     13  C8  NON d   1      23.465 -16.776  -1.273  0.00  0.00     0.013 A 
ATOM     14  C10 NON d   1      25.572 -15.599  -2.159  0.00  0.00    -0.014 A 
ATOM     15  C11 NON d   1      25.093 -14.701  -3.107  0.00  0.00     0.013 A 
ATOM     16  C12 NON d   1      26.008 -13.941  -3.832  0.00  0.00     0.001 A 
ATOM     17  C13 NON d   1      27.382 -14.097  -3.621  0.00  0.00     0.001 A 
ATOM     18  C14 NON d   1      27.858 -15.007  -2.672  0.00  0.00     0.013 A 
ENDBRANCH   2   5
BRANCH   3  19
ATOM     19  C16 NON d   1      31.799 -16.308   0.367  0.00  0.00     0.123 C 
BRANCH  19  20
ATOM     20  C17 NON d   1      32.271 -14.858   0.519  0.00  0.00     0.020 C 
BRANCH  20  21
ATOM     21  C18 NON d   1      31.335 -13.848  -0.157  0.00  0.00     0.002 C 
BRANCH  21  22
ATOM     22  C19 NON d   1      30.458 -13.068   0.835  0.00  0.00     0.009 C 
BRANCH  22  23
ATOM     23  C20 NON d   1      30.821 -13.288   2.304  0.00  0.00     0.105 C 
BRANCH  23  24
ATOM     24  C21 NON d   1      29.936 -14.266   3.060  0.00  0.00     0.240 C 
ATOM     25  O2  NON d   1      28.919 -14.758   2.591  0.00  0.00    -0.271 OA
ATOM     26  N2  NON d   1      30.376 -14.436   4.362  0.00  0.00    -0.237 N 
ATOM     27  H21 NON d   1      31.357 -14.300   4.577  0.00  0.00     0.197 HD
BRANCH  26  28
ATOM     28  O3  NON d   1      29.758 -15.490   5.072  0.00  0.00    -0.287 OA
ATOM     29  H22 NON d   1      29.323 -15.995   4.360  0.00  0.00     0.244 HD
ENDBRANCH  26  28
ENDBRANCH  23  24
ENDBRANCH  22  23
ENDBRANCH  21  22
ENDBRANCH  20  21
ENDBRANCH  19  20
ENDBRANCH   3  19
TORSDOF 8
ENDMDL
MODEL 9
REMARK VINA RESULT:    -6.854      6.492      7.947
REMARK INTER + INTRA:         -11.785
REMARK INTER:                  -9.240
REMARK INTRA:                  -2.545
REMARK CONF_INDEPENDENT:        2.386
REMARK UNBOUND:                -2.545
REMARK  8 active torsions:
REMARK  status: ('A' for Active; 'I' for Inactive)
REMARK    1  A    between atoms: C1_2  and  C2_3 
REMARK       I    between atoms: C1_2  and  N1_17 
REMARK    2  A    between atoms: N1_17  and  C16_18 
REMARK    3  A    between atoms: C16_18  and  C17_19 
REMARK    4  A    between atoms: C17_19  and  C18_20 
REMARK    5  A    between atoms: C18_20  and  C19_21 
REMARK    6  A    between atoms: C19_21  and  C20_22 
REMARK    7  A    between atoms: C20_22  and  C21_23 
REMARK       I    between atoms: C21_23  and  N2_25 
REMARK    8  A    between atoms: N2_25  and  O3_26 
ROOT
ATOM      1  O1  NON d   1      29.704 -16.088  -2.159  0.00  0.00    -0.269 OA
ATOM      2  C1  NON d   1      29.491 -16.761  -1.155  0.00  0.00     0.242 C 
ATOM      3  N1  NON d   1      30.472 -17.359  -0.417  0.00  0.00    -0.358 N 
ATOM      4  H10 NON d   1      30.203 -18.087   0.233  0.00  0.00     0.162 HD
ENDROOT
BRANCH   2   5
ATOM      5  C2  NON d   1      28.085 -17.051  -0.777  0.00  0.00     0.087 C 
ATOM      6  C3  NON d   1      26.914 -16.545  -1.205  0.00  0.00    -0.009 A 
ATOM      7  C4  NON d   1      25.617 -17.144  -0.753  0.00  0.00    -0.014 A 
ATOM      8  C15 NON d   1      26.597 -15.455  -2.168  0.00  0.00    -0.014 A 
ATOM      9  C5  NON d   1      25.309 -18.213   0.077  0.00  0.00     0.013 A 
ATOM     10  C9  NON d   1      24.595 -16.427  -1.414  0.00  0.00    -0.014 A 
ATOM     11  C6  NON d   1      23.965 -18.573   0.230  0.00  0.00     0.001 A 
ATOM     12  C7  NON d   1      22.952 -17.868  -0.435  0.00  0.00     0.001 A 
ATOM     13  C8  NON d   1      23.262 -16.785  -1.261  0.00  0.00     0.013 A 
ATOM     14  C10 NON d   1      25.185 -15.390  -2.247  0.00  0.00    -0.014 A 
ATOM     15  C11 NON d   1      24.551 -14.448  -3.050  0.00  0.00     0.013 A 
ATOM     16  C12 NON d   1      25.333 -13.565  -3.792  0.00  0.00     0.001 A 
ATOM     17  C13 NON d   1      26.728 -13.643  -3.740  0.00  0.00     0.001 A 
ATOM     18  C14 NON d   1      27.360 -14.596  -2.936  0.00  0.00     0.013 A 
ENDBRANCH   2   5
BRANCH   3  19
ATOM     19  C16 NON d   1      31.878 -17.226  -0.766  0.00  0.00     0.123 C 
BRANCH  19  20
ATOM     20  C17 NON d   1      32.169 -17.634  -2.214  0.00  0.00     0.020 C 
BRANCH  20  21
ATOM     21  C18 NON d   1      31.307 -18.812  -2.690  0.00  0.00     0.002 C 
BRANCH  21  22
ATOM     22  C19 NON d   1      30.563 -18.533  -4.005  0.00  0.00     0.009 C 
BRANCH  22  23
ATOM     23  C20 NON d   1      31.032 -17.277  -4.740  0.00  0.00     0.105 C 
BRANCH  23  24
ATOM     24  C21 NON d   1      30.028 -16.666  -5.703  0.00  0.00     0.240 C 
ATOM     25  O2  NON d   1      30.141 -16.720  -6.921  0.00  0.00    -0.271 OA
ATOM     26  N2  NON d   1      29.046 -15.965  -5.025  0.00  0.00    -0.237 N 
ATOM     27  H21 NON d   1      28.807 -16.234  -4.077  0.00  0.00     0.197 HD
BRANCH  26  28
ATOM     28  O3  NON d   1      27.947 -15.554  -5.814  0.00  0.00    -0.287 OA
ATOM     29  H22 NON d   1      28.325 -15.550  -6.713  0.00  0.00     0.244 HD
ENDBRANCH  26  28
ENDBRANCH  23  24
ENDBRANCH  22  23
ENDBRANCH  21  22
ENDBRANCH  20  21
ENDBRANCH  19  20
ENDBRANCH   3  19
TORSDOF 8
ENDMDL
