MODEL 1
REMARK VINA RESULT:   -10.111      0.000      0.000
REMARK INTER + INTRA:         -15.145
REMARK INTER:                 -13.393
REMARK INTRA:                  -1.752
REMARK CONF_INDEPENDENT:        3.281
REMARK UNBOUND:                -1.752
REMARK  11 active torsions:
REMARK  status: ('A' for Active; 'I' for Inactive)
REMARK    1  A    between atoms: O1_2  and  C2_3 
REMARK    2  A    between atoms: C8_10  and  C9_11 
REMARK    3  A    between atoms: C9_11  and  C10_12 
REMARK       I    between atoms: C10_12  and  N2_14 
REMARK    4  A    between atoms: C11_15  and  N2_14 
REMARK    5  A    between atoms: C11_15  and  C12_16 
REMARK    6  A    between atoms: C11_15  and  C19_24 
REMARK    7  A    between atoms: C12_16  and  C13_17 
REMARK    8  A    between atoms: C13_17  and  C14_18 
REMARK    9  A    between atoms: C14_18  and  C15_19 
REMARK   10  A    between atoms: C15_19  and  C16_20 
REMARK   11  A    between atoms: C16_20  and  C17_21 
ROOT
ATOM      1  C11 NON d   1      26.812 -15.344  -0.846  0.00  0.00     0.154 C 
ENDROOT
BRANCH   1   2
ATOM      2  N2  NON d   1      26.438 -14.100  -1.727  0.00  0.00    -0.349 N 
ATOM      3  C10 NON d   1      25.587 -14.128  -2.886  0.00  0.00     0.222 C 
ATOM      4  O2  NON d   1      25.157 -15.206  -3.310  0.00  0.00    -0.273 OA
ATOM      5  H12 NON d   1      26.860 -13.223  -1.458  0.00  0.00     0.163 HD
BRANCH   3   6
ATOM      6  C9  NON d   1      25.155 -12.746  -3.565  0.00  0.00     0.144 C 
BRANCH   6   7
ATOM      7  C8  NON d   1      25.989 -12.095  -4.772  0.00  0.00    -0.015 A 
ATOM      8  C6  NON d   1      26.016 -10.725  -5.223  0.00  0.00     0.013 A 
ATOM      9  N1  NON d   1      26.958 -10.602  -6.199  0.00  0.00    -0.359 N 
ATOM     10  C7  NON d   1      25.183  -9.557  -4.662  0.00  0.00     0.068 C 
ATOM     11  C5  NON d   1      27.579 -11.807  -6.416  0.00  0.00     0.043 A 
ATOM     12  H6  NON d   1      27.201  -9.744  -6.676  0.00  0.00     0.166 HD
ATOM     13  C4  NON d   1      28.621 -12.108  -7.299  0.00  0.00     0.033 A 
ATOM     14  C26 NON d   1      27.002 -12.756  -5.562  0.00  0.00     0.002 A 
ATOM     15  C3  NON d   1      29.093 -13.422  -7.339  0.00  0.00     0.039 A 
ATOM     16  C2  NON d   1      28.535 -14.403  -6.525  0.00  0.00     0.069 A 
ATOM     17  C27 NON d   1      27.517 -14.069  -5.618  0.00  0.00     0.051 A 
BRANCH  16  18
ATOM     18  O1  NON d   1      28.910 -15.720  -6.510  0.00  0.00    -0.356 OA
ATOM     19  C1  NON d   1      30.307 -15.988  -6.468  0.00  0.00     0.210 C 
ENDBRANCH  16  18
ENDBRANCH   6   7
ENDBRANCH   3   6
ENDBRANCH   1   2
BRANCH   1  20
ATOM     20  C12 NON d   1      26.424 -16.866  -0.615  0.00  0.00     0.033 C 
BRANCH  20  21
ATOM     21  C13 NON d   1      24.880 -17.159  -0.832  0.00  0.00     0.002 C 
BRANCH  21  22
ATOM     22  C14 NON d   1      24.303 -18.426  -0.148  0.00  0.00     0.000 C 
BRANCH  22  23
ATOM     23  C15 NON d   1      23.119 -19.121  -0.834  0.00  0.00     0.007 C 
BRANCH  23  24
ATOM     24  C16 NON d   1      21.768 -18.444  -0.611  0.00  0.00     0.077 C 
BRANCH  24  25
ATOM     25  C17 NON d   1      20.578 -19.321  -0.889  0.00  0.00     0.123 C 
ATOM     26  C18 NON d   1      19.701 -19.670   0.285  0.00  0.00     0.091 C 
ATOM     27  O3  NON d   1      20.273 -19.700  -2.020  0.00  0.00    -0.298 OA
ENDBRANCH  24  25
ENDBRANCH  23  24
ENDBRANCH  22  23
ENDBRANCH  21  22
ENDBRANCH  20  21
ENDBRANCH   1  20
BRANCH   1  28
ATOM     28  C19 NON d   1      27.233 -14.710   0.493  0.00  0.00     0.128 A 
ATOM     29  N3  NON d   1      27.029 -13.430   0.775  0.00  0.00    -0.231 NA
ATOM     30  C20 NON d   1      27.450 -13.231   2.056  0.00  0.00     0.087 A 
ATOM     31  C21 NON d   1      27.381 -12.077   2.845  0.00  0.00     0.057 A 
ATOM     32  C25 NON d   1      28.013 -14.392   2.563  0.00  0.00     0.062 A 
ATOM     33  C22 NON d   1      27.956 -12.121   4.115  0.00  0.00     0.036 A 
ATOM     34 Cl1  NON d   1      27.879 -10.725   5.123  0.00  0.00    -0.084 Cl
ATOM     35  C23 NON d   1      28.588 -13.276   4.586  0.00  0.00     0.026 A 
ATOM     36  C24 NON d   1      28.615 -14.449   3.820  0.00  0.00     0.034 A 
ATOM     37  N4  NON d   1      27.784 -15.334   1.587  0.00  0.00    -0.341 N 
ATOM     38  H30 NON d   1      27.958 -16.329   1.661  0.00  0.00     0.167 HD
ENDBRANCH   1  28
TORSDOF 11
ENDMDL
MODEL 2
REMARK VINA RESULT:   -10.042      3.709      8.667
REMARK INTER + INTRA:         -15.096
REMARK INTER:                 -13.323
REMARK INTRA:                  -1.772
REMARK CONF_INDEPENDENT:        3.281
REMARK UNBOUND:                -1.772
REMARK  11 active torsions:
REMARK  status: ('A' for Active; 'I' for Inactive)
REMARK    1  A    between atoms: O1_2  and  C2_3 
REMARK    2  A    between atoms: C8_10  and  C9_11 
REMARK    3  A    between atoms: C9_11  and  C10_12 
REMARK       I    between atoms: C10_12  and  N2_14 
REMARK    4  A    between atoms: C11_15  and  N2_14 
REMARK    5  A    between atoms: C11_15  and  C12_16 
REMARK    6  A    between atoms: C11_15  and  C19_24 
REMARK    7  A    between atoms: C12_16  and  C13_17 
REMARK    8  A    between atoms: C13_17  and  C14_18 
REMARK    9  A    between atoms: C14_18  and  C15_19 
REMARK   10  A    between atoms: C15_19  and  C16_20 
REMARK   11  A    between atoms: C16_20  and  C17_21 
ROOT
ATOM      1  C11 NON d   1      26.959 -16.028   0.272  0.00  0.00     0.154 C 
ENDROOT
BRANCH   1   2
ATOM      2  N2  NON d   1      27.948 -15.522   1.381  0.00  0.00    -0.349 N 
ATOM      3  C10 NON d   1      27.699 -14.425   2.278  0.00  0.00     0.222 C 
ATOM      4  O2  NON d   1      26.676 -13.744   2.150  0.00  0.00    -0.273 OA
ATOM      5  H12 NON d   1      28.835 -16.000   1.436  0.00  0.00     0.163 HD
BRANCH   3   6
ATOM      6  C9  NON d   1      28.726 -14.152   3.473  0.00  0.00     0.144 C 
BRANCH   6   7
ATOM      7  C8  NON d   1      28.491 -12.979   4.544  0.00  0.00    -0.015 A 
ATOM      8  C6  NON d   1      27.878 -11.687   4.355  0.00  0.00     0.013 A 
ATOM      9  N1  NON d   1      27.780 -11.067   5.565  0.00  0.00    -0.359 N 
ATOM     10  C7  NON d   1      27.344 -11.107   3.032  0.00  0.00     0.068 C 
ATOM     11  C5  NON d   1      28.276 -11.877   6.556  0.00  0.00     0.043 A 
ATOM     12  H6  NON d   1      27.370 -10.158   5.726  0.00  0.00     0.166 HD
ATOM     13  C4  NON d   1      28.330 -11.641   7.934  0.00  0.00     0.033 A 
ATOM     14  C26 NON d   1      28.733 -13.062   5.965  0.00  0.00     0.002 A 
ATOM     15  C3  NON d   1      28.883 -12.629   8.751  0.00  0.00     0.039 A 
ATOM     16  C2  NON d   1      29.371 -13.812   8.205  0.00  0.00     0.069 A 
ATOM     17  C27 NON d   1      29.270 -14.044   6.824  0.00  0.00     0.051 A 
BRANCH  16  18
ATOM     18  O1  NON d   1      29.953 -14.826   8.918  0.00  0.00    -0.356 OA
ATOM     19  C1  NON d   1      31.313 -14.645   9.295  0.00  0.00     0.210 C 
ENDBRANCH  16  18
ENDBRANCH   6   7
ENDBRANCH   3   6
ENDBRANCH   1   2
BRANCH   1  20
ATOM     20  C12 NON d   1      26.485 -17.355  -0.460  0.00  0.00     0.033 C 
BRANCH  20  21
ATOM     21  C13 NON d   1      25.024 -17.812  -0.041  0.00  0.00     0.002 C 
BRANCH  21  22
ATOM     22  C14 NON d   1      23.846 -17.259  -0.886  0.00  0.00     0.000 C 
BRANCH  22  23
ATOM     23  C15 NON d   1      22.732 -18.242  -1.270  0.00  0.00     0.007 C 
BRANCH  23  24
ATOM     24  C16 NON d   1      21.929 -18.786  -0.092  0.00  0.00     0.077 C 
BRANCH  24  25
ATOM     25  C17 NON d   1      20.633 -19.449  -0.473  0.00  0.00     0.123 C 
ATOM     26  C18 NON d   1      19.663 -19.737   0.643  0.00  0.00     0.091 C 
ATOM     27  O3  NON d   1      20.323 -19.698  -1.638  0.00  0.00    -0.298 OA
ENDBRANCH  24  25
ENDBRANCH  23  24
ENDBRANCH  22  23
ENDBRANCH  21  22
ENDBRANCH  20  21
ENDBRANCH   1  20
BRANCH   1  28
ATOM     28  C19 NON d   1      26.907 -14.848  -0.715  0.00  0.00     0.128 A 
ATOM     29  N3  NON d   1      26.585 -14.996  -1.993  0.00  0.00    -0.231 NA
ATOM     30  C20 NON d   1      26.563 -13.751  -2.548  0.00  0.00     0.087 A 
ATOM     31  C21 NON d   1      26.210 -13.362  -3.845  0.00  0.00     0.057 A 
ATOM     32  C25 NON d   1      26.966 -12.804  -1.618  0.00  0.00     0.062 A 
ATOM     33  C22 NON d   1      26.344 -12.015  -4.179  0.00  0.00     0.036 A 
ATOM     34 Cl1  NON d   1      25.905 -11.493  -5.763  0.00  0.00    -0.084 Cl
ATOM     35  C23 NON d   1      26.824 -11.082  -3.256  0.00  0.00     0.026 A 
ATOM     36  C24 NON d   1      27.131 -11.457  -1.941  0.00  0.00     0.034 A 
ATOM     37  N4  NON d   1      27.092 -13.512  -0.446  0.00  0.00    -0.341 N 
ATOM     38  H30 NON d   1      27.263 -13.124   0.474  0.00  0.00     0.167 HD
ENDBRANCH   1  28
TORSDOF 11
ENDMDL
MODEL 3
REMARK VINA RESULT:    -9.904      1.677      2.382
REMARK INTER + INTRA:         -14.773
REMARK INTER:                 -13.186
REMARK INTRA:                  -1.587
REMARK CONF_INDEPENDENT:        3.281
REMARK UNBOUND:                -1.587
REMARK  11 active torsions:
REMARK  status: ('A' for Active; 'I' for Inactive)
REMARK    1  A    between atoms: O1_2  and  C2_3 
REMARK    2  A    between atoms: C8_10  and  C9_11 
REMARK    3  A    between atoms: C9_11  and  C10_12 
REMARK       I    between atoms: C10_12  and  N2_14 
REMARK    4  A    between atoms: C11_15  and  N2_14 
REMARK    5  A    between atoms: C11_15  and  C12_16 
REMARK    6  A    between atoms: C11_15  and  C19_24 
REMARK    7  A    between atoms: C12_16  and  C13_17 
REMARK    8  A    between atoms: C13_17  and  C14_18 
REMARK    9  A    between atoms: C14_18  and  C15_19 
REMARK   10  A    between atoms: C15_19  and  C16_20 
REMARK   11  A    between atoms: C16_20  and  C17_21 
ROOT
ATOM      1  C11 NON d   1      26.967 -16.951  -0.518  0.00  0.00     0.154 C 
ENDROOT
BRANCH   1   2
ATOM      2  N2  NON d   1      26.863 -16.400  -1.984  0.00  0.00    -0.349 N 
ATOM      3  C10 NON d   1      27.965 -15.903  -2.764  0.00  0.00     0.222 C 
ATOM      4  O2  NON d   1      29.086 -15.806  -2.256  0.00  0.00    -0.273 OA
ATOM      5  H12 NON d   1      25.937 -16.376  -2.384  0.00  0.00     0.163 HD
BRANCH   3   6
ATOM      6  C9  NON d   1      27.727 -15.551  -4.306  0.00  0.00     0.144 C 
BRANCH   6   7
ATOM      7  C8  NON d   1      26.950 -14.222  -4.763  0.00  0.00    -0.015 A 
ATOM      8  C6  NON d   1      25.768 -13.621  -4.197  0.00  0.00     0.013 A 
ATOM      9  N1  NON d   1      25.534 -12.436  -4.827  0.00  0.00    -0.359 N 
ATOM     10  C7  NON d   1      24.931 -14.166  -3.025  0.00  0.00     0.068 C 
ATOM     11  C5  NON d   1      26.502 -12.198  -5.770  0.00  0.00     0.043 A 
ATOM     12  H6  NON d   1      24.780 -11.797  -4.613  0.00  0.00     0.166 HD
ATOM     13  C4  NON d   1      26.656 -11.088  -6.607  0.00  0.00     0.033 A 
ATOM     14  C26 NON d   1      27.390 -13.282  -5.768  0.00  0.00     0.002 A 
ATOM     15  C3  NON d   1      27.735 -11.073  -7.493  0.00  0.00     0.039 A 
ATOM     16  C2  NON d   1      28.629 -12.138  -7.541  0.00  0.00     0.069 A 
ATOM     17  C27 NON d   1      28.479 -13.224  -6.664  0.00  0.00     0.051 A 
BRANCH  16  18
ATOM     18  O1  NON d   1      29.700 -12.228  -8.390  0.00  0.00    -0.356 OA
ATOM     19  C1  NON d   1      29.624 -11.482  -9.599  0.00  0.00     0.210 C 
ENDBRANCH  16  18
ENDBRANCH   6   7
ENDBRANCH   3   6
ENDBRANCH   1   2
BRANCH   1  20
ATOM     20  C12 NON d   1      26.412 -18.107   0.419  0.00  0.00     0.033 C 
BRANCH  20  21
ATOM     21  C13 NON d   1      24.828 -18.195   0.432  0.00  0.00     0.002 C 
BRANCH  21  22
ATOM     22  C14 NON d   1      24.096 -17.883  -0.900  0.00  0.00     0.000 C 
BRANCH  22  23
ATOM     23  C15 NON d   1      22.904 -18.774  -1.275  0.00  0.00     0.007 C 
BRANCH  23  24
ATOM     24  C16 NON d   1      21.736 -18.720  -0.292  0.00  0.00     0.077 C 
BRANCH  24  25
ATOM     25  C17 NON d   1      20.494 -19.428  -0.760  0.00  0.00     0.123 C 
ATOM     26  C18 NON d   1      19.452 -19.736   0.284  0.00  0.00     0.091 C 
ATOM     27  O3  NON d   1      20.281 -19.701  -1.942  0.00  0.00    -0.298 OA
ENDBRANCH  24  25
ENDBRANCH  23  24
ENDBRANCH  22  23
ENDBRANCH  21  22
ENDBRANCH  20  21
ENDBRANCH   1  20
BRANCH   1  28
ATOM     28  C19 NON d   1      27.204 -15.680   0.317  0.00  0.00     0.128 A 
ATOM     29  N3  NON d   1      26.484 -14.577   0.164  0.00  0.00    -0.231 NA
ATOM     30  C20 NON d   1      26.908 -13.688   1.107  0.00  0.00     0.087 A 
ATOM     31  C21 NON d   1      26.419 -12.412   1.409  0.00  0.00     0.057 A 
ATOM     32  C25 NON d   1      27.980 -14.211   1.813  0.00  0.00     0.062 A 
ATOM     33  C22 NON d   1      27.087 -11.673   2.385  0.00  0.00     0.036 A 
ATOM     34 Cl1  NON d   1      26.507 -10.102   2.795  0.00  0.00    -0.084 Cl
ATOM     35  C23 NON d   1      28.214 -12.182   3.036  0.00  0.00     0.026 A 
ATOM     36  C24 NON d   1      28.677 -13.478   2.774  0.00  0.00     0.034 A 
ATOM     37  N4  NON d   1      28.090 -15.504   1.355  0.00  0.00    -0.341 N 
ATOM     38  H30 NON d   1      28.696 -16.224   1.729  0.00  0.00     0.167 HD
ENDBRANCH   1  28
TORSDOF 11
ENDMDL
MODEL 4
REMARK VINA RESULT:    -9.760      3.833      6.425
REMARK INTER + INTRA:         -14.803
REMARK INTER:                 -13.041
REMARK INTRA:                  -1.762
REMARK CONF_INDEPENDENT:        3.281
REMARK UNBOUND:                -1.762
REMARK  11 active torsions:
REMARK  status: ('A' for Active; 'I' for Inactive)
REMARK    1  A    between atoms: O1_2  and  C2_3 
REMARK    2  A    between atoms: C8_10  and  C9_11 
REMARK    3  A    between atoms: C9_11  and  C10_12 
REMARK       I    between atoms: C10_12  and  N2_14 
REMARK    4  A    between atoms: C11_15  and  N2_14 
REMARK    5  A    between atoms: C11_15  and  C12_16 
REMARK    6  A    between atoms: C11_15  and  C19_24 
REMARK    7  A    between atoms: C12_16  and  C13_17 
REMARK    8  A    between atoms: C13_17  and  C14_18 
REMARK    9  A    between atoms: C14_18  and  C15_19 
REMARK   10  A    between atoms: C15_19  and  C16_20 
REMARK   11  A    between atoms: C16_20  and  C17_21 
ROOT
ATOM      1  C11 NON d   1      26.230 -14.831  -2.858  0.00  0.00     0.154 C 
ENDROOT
BRANCH   1   2
ATOM      2  N2  NON d   1      27.649 -15.276  -3.361  0.00  0.00    -0.349 N 
ATOM      3  C10 NON d   1      27.991 -15.571  -4.727  0.00  0.00     0.222 C 
ATOM      4  O2  NON d   1      27.115 -15.569  -5.596  0.00  0.00    -0.273 OA
ATOM      5  H12 NON d   1      28.358 -15.383  -2.651  0.00  0.00     0.163 HD
BRANCH   3   6
ATOM      6  C9  NON d   1      29.524 -15.830  -5.103  0.00  0.00     0.144 C 
BRANCH   6   7
ATOM      7  C8  NON d   1      30.234 -17.248  -4.848  0.00  0.00    -0.015 A 
ATOM      8  C6  NON d   1      30.440 -17.948  -3.604  0.00  0.00     0.013 A 
ATOM      9  N1  NON d   1      30.974 -19.173  -3.874  0.00  0.00    -0.359 N 
ATOM     10  C7  NON d   1      30.061 -17.453  -2.196  0.00  0.00     0.068 C 
ATOM     11  C5  NON d   1      31.120 -19.340  -5.228  0.00  0.00     0.043 A 
ATOM     12  H6  NON d   1      31.199 -19.879  -3.186  0.00  0.00     0.166 HD
ATOM     13  C4  NON d   1      31.592 -20.457  -5.926  0.00  0.00     0.033 A 
ATOM     14  C26 NON d   1      30.683 -18.171  -5.864  0.00  0.00     0.002 A 
ATOM     15  C3  NON d   1      31.646 -20.390  -7.320  0.00  0.00     0.039 A 
ATOM     16  C2  NON d   1      31.244 -19.240  -7.992  0.00  0.00     0.069 A 
ATOM     17  C27 NON d   1      30.736 -18.146  -7.274  0.00  0.00     0.051 A 
BRANCH  16  18
ATOM     18  O1  NON d   1      31.284 -19.068  -9.350  0.00  0.00    -0.356 OA
ATOM     19  C1  NON d   1      31.151 -20.239 -10.148  0.00  0.00     0.210 C 
ENDBRANCH  16  18
ENDBRANCH   6   7
ENDBRANCH   3   6
ENDBRANCH   1   2
BRANCH   1  20
ATOM     20  C12 NON d   1      24.820 -15.422  -2.430  0.00  0.00     0.033 C 
BRANCH  20  21
ATOM     21  C13 NON d   1      24.933 -16.750  -1.569  0.00  0.00     0.002 C 
BRANCH  21  22
ATOM     22  C14 NON d   1      23.689 -17.152  -0.734  0.00  0.00     0.000 C 
BRANCH  22  23
ATOM     23  C15 NON d   1      22.819 -18.296  -1.273  0.00  0.00     0.007 C 
BRANCH  23  24
ATOM     24  C16 NON d   1      22.087 -19.099  -0.199  0.00  0.00     0.077 C 
BRANCH  24  25
ATOM     25  C17 NON d   1      20.661 -19.439  -0.538  0.00  0.00     0.123 C 
ATOM     26  C18 NON d   1      19.660 -19.370   0.585  0.00  0.00     0.091 C 
ATOM     27  O3  NON d   1      20.287 -19.703  -1.681  0.00  0.00    -0.298 OA
ENDBRANCH  24  25
ENDBRANCH  23  24
ENDBRANCH  22  23
ENDBRANCH  21  22
ENDBRANCH  20  21
ENDBRANCH   1  20
BRANCH   1  28
ATOM     28  C19 NON d   1      26.032 -13.463  -3.536  0.00  0.00     0.128 A 
ATOM     29  N3  NON d   1      25.763 -12.358  -2.855  0.00  0.00    -0.231 NA
ATOM     30  C20 NON d   1      25.729 -11.332  -3.753  0.00  0.00     0.087 A 
ATOM     31  C21 NON d   1      25.558  -9.961  -3.530  0.00  0.00     0.057 A 
ATOM     32  C25 NON d   1      25.895 -11.816  -5.042  0.00  0.00     0.062 A 
ATOM     33  C22 NON d   1      25.491  -9.124  -4.643  0.00  0.00     0.036 A 
ATOM     34 Cl1  NON d   1      25.294  -7.427  -4.410  0.00  0.00    -0.084 Cl
ATOM     35  C23 NON d   1      25.582  -9.634  -5.941  0.00  0.00     0.026 A 
ATOM     36  C24 NON d   1      25.805 -10.999  -6.169  0.00  0.00     0.034 A 
ATOM     37  N4  NON d   1      26.172 -13.153  -4.869  0.00  0.00    -0.341 N 
ATOM     38  H30 NON d   1      26.461 -13.803  -5.589  0.00  0.00     0.167 HD
ENDBRANCH   1  28
TORSDOF 11
ENDMDL
MODEL 5
REMARK VINA RESULT:    -9.110      1.813      2.709
REMARK INTER + INTRA:         -15.035
REMARK INTER:                 -12.391
REMARK INTRA:                  -2.644
REMARK CONF_INDEPENDENT:        3.281
REMARK UNBOUND:                -2.644
REMARK  11 active torsions:
REMARK  status: ('A' for Active; 'I' for Inactive)
REMARK    1  A    between atoms: O1_2  and  C2_3 
REMARK    2  A    between atoms: C8_10  and  C9_11 
REMARK    3  A    between atoms: C9_11  and  C10_12 
REMARK       I    between atoms: C10_12  and  N2_14 
REMARK    4  A    between atoms: C11_15  and  N2_14 
REMARK    5  A    between atoms: C11_15  and  C12_16 
REMARK    6  A    between atoms: C11_15  and  C19_24 
REMARK    7  A    between atoms: C12_16  and  C13_17 
REMARK    8  A    between atoms: C13_17  and  C14_18 
REMARK    9  A    between atoms: C14_18  and  C15_19 
REMARK   10  A    between atoms: C15_19  and  C16_20 
REMARK   11  A    between atoms: C16_20  and  C17_21 
ROOT
ATOM      1  C11 NON d   1      25.382 -15.562  -2.320  0.00  0.00     0.154 C 
ENDROOT
BRANCH   1   2
ATOM      2  N2  NON d   1      25.849 -14.696  -3.544  0.00  0.00    -0.349 N 
ATOM      3  C10 NON d   1      26.102 -13.281  -3.511  0.00  0.00     0.222 C 
ATOM      4  O2  NON d   1      25.869 -12.636  -2.484  0.00  0.00    -0.273 OA
ATOM      5  H12 NON d   1      25.949 -15.186  -4.421  0.00  0.00     0.163 HD
BRANCH   3   6
ATOM      6  C9  NON d   1      26.750 -12.580  -4.794  0.00  0.00     0.144 C 
BRANCH   6   7
ATOM      7  C8  NON d   1      27.735 -13.368  -5.786  0.00  0.00    -0.015 A 
ATOM      8  C6  NON d   1      28.155 -13.013  -7.120  0.00  0.00     0.013 A 
ATOM      9  N1  NON d   1      29.091 -13.910  -7.538  0.00  0.00    -0.359 N 
ATOM     10  C7  NON d   1      27.696 -11.789  -7.933  0.00  0.00     0.068 C 
ATOM     11  C5  NON d   1      29.337 -14.836  -6.554  0.00  0.00     0.043 A 
ATOM     12  H6  NON d   1      29.570 -13.886  -8.428  0.00  0.00     0.166 HD
ATOM     13  C4  NON d   1      30.247 -15.898  -6.560  0.00  0.00     0.033 A 
ATOM     14  C26 NON d   1      28.513 -14.541  -5.461  0.00  0.00     0.002 A 
ATOM     15  C3  NON d   1      30.320 -16.711  -5.426  0.00  0.00     0.039 A 
ATOM     16  C2  NON d   1      29.504 -16.469  -4.325  0.00  0.00     0.069 A 
ATOM     17  C27 NON d   1      28.626 -15.373  -4.326  0.00  0.00     0.051 A 
BRANCH  16  18
ATOM     18  O1  NON d   1      29.482 -17.222  -3.182  0.00  0.00    -0.356 OA
ATOM     19  C1  NON d   1      30.548 -17.019  -2.261  0.00  0.00     0.210 C 
ENDBRANCH  16  18
ENDBRANCH   6   7
ENDBRANCH   3   6
ENDBRANCH   1   2
BRANCH   1  20
ATOM     20  C12 NON d   1      24.074 -16.152  -1.640  0.00  0.00     0.033 C 
BRANCH  20  21
ATOM     21  C13 NON d   1      24.375 -16.992  -0.328  0.00  0.00     0.002 C 
BRANCH  21  22
ATOM     22  C14 NON d   1      24.282 -18.536  -0.446  0.00  0.00     0.000 C 
BRANCH  22  23
ATOM     23  C15 NON d   1      23.007 -19.119  -1.069  0.00  0.00     0.007 C 
BRANCH  23  24
ATOM     24  C16 NON d   1      21.706 -18.604  -0.457  0.00  0.00     0.077 C 
BRANCH  24  25
ATOM     25  C17 NON d   1      20.479 -19.379  -0.855  0.00  0.00     0.123 C 
ATOM     26  C18 NON d   1      19.490 -19.694   0.237  0.00  0.00     0.091 C 
ATOM     27  O3  NON d   1      20.236 -19.700  -2.018  0.00  0.00    -0.298 OA
ENDBRANCH  24  25
ENDBRANCH  23  24
ENDBRANCH  22  23
ENDBRANCH  21  22
ENDBRANCH  20  21
ENDBRANCH   1  20
BRANCH   1  28
ATOM     28  C19 NON d   1      26.419 -15.220  -1.234  0.00  0.00     0.128 A 
ATOM     29  N3  NON d   1      26.098 -14.592  -0.111  0.00  0.00    -0.231 NA
ATOM     30  C20 NON d   1      27.230 -14.524   0.645  0.00  0.00     0.087 A 
ATOM     31  C21 NON d   1      27.404 -14.025   1.941  0.00  0.00     0.057 A 
ATOM     32  C25 NON d   1      28.309 -15.044  -0.054  0.00  0.00     0.062 A 
ATOM     33  C22 NON d   1      28.697 -14.008   2.465  0.00  0.00     0.036 A 
ATOM     34 Cl1  NON d   1      28.951 -13.414   4.063  0.00  0.00    -0.084 Cl
ATOM     35  C23 NON d   1      29.788 -14.465   1.719  0.00  0.00     0.026 A 
ATOM     36  C24 NON d   1      29.612 -15.012   0.441  0.00  0.00     0.034 A 
ATOM     37  N4  NON d   1      27.752 -15.557  -1.203  0.00  0.00    -0.341 N 
ATOM     38  H30 NON d   1      28.226 -16.116  -1.902  0.00  0.00     0.167 HD
ENDBRANCH   1  28
TORSDOF 11
ENDMDL
MODEL 6
REMARK VINA RESULT:    -9.079      3.587      8.955
REMARK INTER + INTRA:         -15.259
REMARK INTER:                 -12.360
REMARK INTRA:                  -2.899
REMARK CONF_INDEPENDENT:        3.281
REMARK UNBOUND:                -2.899
REMARK  11 active torsions:
REMARK  status: ('A' for Active; 'I' for Inactive)
REMARK    1  A    between atoms: O1_2  and  C2_3 
REMARK    2  A    between atoms: C8_10  and  C9_11 
REMARK    3  A    between atoms: C9_11  and  C10_12 
REMARK       I    between atoms: C10_12  and  N2_14 
REMARK    4  A    between atoms: C11_15  and  N2_14 
REMARK    5  A    between atoms: C11_15  and  C12_16 
REMARK    6  A    between atoms: C11_15  and  C19_24 
REMARK    7  A    between atoms: C12_16  and  C13_17 
REMARK    8  A    between atoms: C13_17  and  C14_18 
REMARK    9  A    between atoms: C14_18  and  C15_19 
REMARK   10  A    between atoms: C15_19  and  C16_20 
REMARK   11  A    between atoms: C16_20  and  C17_21 
ROOT
ATOM      1  C11 NON d   1      28.054 -16.663  -0.851  0.00  0.00     0.154 C 
ENDROOT
BRANCH   1   2
ATOM      2  N2  NON d   1      28.333 -16.160   0.609  0.00  0.00    -0.349 N 
ATOM      3  C10 NON d   1      27.630 -15.092   1.269  0.00  0.00     0.222 C 
ATOM      4  O2  NON d   1      26.787 -14.434   0.651  0.00  0.00    -0.273 OA
ATOM      5  H12 NON d   1      29.088 -16.618   1.099  0.00  0.00     0.163 HD
BRANCH   3   6
ATOM      6  C9  NON d   1      27.907 -14.824   2.821  0.00  0.00     0.144 C 
BRANCH   6   7
ATOM      7  C8  NON d   1      28.032 -13.339   3.418  0.00  0.00    -0.015 A 
ATOM      8  C6  NON d   1      27.835 -12.074   2.753  0.00  0.00     0.013 A 
ATOM      9  N1  NON d   1      27.924 -11.076   3.676  0.00  0.00    -0.359 N 
ATOM     10  C7  NON d   1      27.504 -11.860   1.265  0.00  0.00     0.068 C 
ATOM     11  C5  NON d   1      28.151 -11.599   4.924  0.00  0.00     0.043 A 
ATOM     12  H6  NON d   1      27.805 -10.090   3.486  0.00  0.00     0.166 HD
ATOM     13  C4  NON d   1      28.268 -10.929   6.146  0.00  0.00     0.033 A 
ATOM     14  C26 NON d   1      28.233 -12.993   4.805  0.00  0.00     0.002 A 
ATOM     15  C3  NON d   1      28.497 -11.688   7.296  0.00  0.00     0.039 A 
ATOM     16  C2  NON d   1      28.609 -13.073   7.222  0.00  0.00     0.069 A 
ATOM     17  C27 NON d   1      28.447 -13.728   5.991  0.00  0.00     0.051 A 
BRANCH  16  18
ATOM     18  O1  NON d   1      28.857 -13.900   8.285  0.00  0.00    -0.356 OA
ATOM     19  C1  NON d   1      29.139 -13.274   9.532  0.00  0.00     0.210 C 
ENDBRANCH  16  18
ENDBRANCH   6   7
ENDBRANCH   3   6
ENDBRANCH   1   2
BRANCH   1  20
ATOM     20  C12 NON d   1      28.561 -16.489  -2.346  0.00  0.00     0.033 C 
BRANCH  20  21
ATOM     21  C13 NON d   1      28.207 -15.072  -2.965  0.00  0.00     0.002 C 
BRANCH  21  22
ATOM     22  C14 NON d   1      28.439 -14.895  -4.489  0.00  0.00     0.000 C 
BRANCH  22  23
ATOM     23  C15 NON d   1      27.201 -14.894  -5.395  0.00  0.00     0.007 C 
BRANCH  23  24
ATOM     24  C16 NON d   1      25.901 -15.289  -4.697  0.00  0.00     0.077 C 
BRANCH  24  25
ATOM     25  C17 NON d   1      25.263 -14.186  -3.896  0.00  0.00     0.123 C 
ATOM     26  C18 NON d   1      25.524 -12.775  -4.353  0.00  0.00     0.091 C 
ATOM     27  O3  NON d   1      24.508 -14.396  -2.946  0.00  0.00    -0.298 OA
ENDBRANCH  24  25
ENDBRANCH  23  24
ENDBRANCH  22  23
ENDBRANCH  21  22
ENDBRANCH  20  21
ENDBRANCH   1  20
BRANCH   1  28
ATOM     28  C19 NON d   1      26.535 -16.918  -0.849  0.00  0.00     0.128 A 
ATOM     29  N3  NON d   1      26.009 -18.106  -0.583  0.00  0.00    -0.231 NA
ATOM     30  C20 NON d   1      24.654 -17.954  -0.592  0.00  0.00     0.087 A 
ATOM     31  C21 NON d   1      23.654 -18.888  -0.298  0.00  0.00     0.057 A 
ATOM     32  C25 NON d   1      24.318 -16.659  -0.956  0.00  0.00     0.062 A 
ATOM     33  C22 NON d   1      22.326 -18.489  -0.453  0.00  0.00     0.036 A 
ATOM     34 Cl1  NON d   1      21.064 -19.606  -0.088  0.00  0.00    -0.084 Cl
ATOM     35  C23 NON d   1      22.001 -17.204  -0.895  0.00  0.00     0.026 A 
ATOM     36  C24 NON d   1      22.997 -16.250  -1.142  0.00  0.00     0.034 A 
ATOM     37  N4  NON d   1      25.524 -16.003  -1.027  0.00  0.00    -0.341 N 
ATOM     38  H30 NON d   1      25.659 -15.007  -1.158  0.00  0.00     0.167 HD
ENDBRANCH   1  28
TORSDOF 11
ENDMDL
MODEL 7
REMARK VINA RESULT:    -9.040      2.203      3.870
REMARK INTER + INTRA:         -15.006
REMARK INTER:                 -12.321
REMARK INTRA:                  -2.685
REMARK CONF_INDEPENDENT:        3.281
REMARK UNBOUND:                -2.685
REMARK  11 active torsions:
REMARK  status: ('A' for Active; 'I' for Inactive)
REMARK    1  A    between atoms: O1_2  and  C2_3 
REMARK    2  A    between atoms: C8_10  and  C9_11 
REMARK    3  A    between atoms: C9_11  and  C10_12 
REMARK       I    between atoms: C10_12  and  N2_14 
REMARK    4  A    between atoms: C11_15  and  N2_14 
REMARK    5  A    between atoms: C11_15  and  C12_16 
REMARK    6  A    between atoms: C11_15  and  C19_24 
REMARK    7  A    between atoms: C12_16  and  C13_17 
REMARK    8  A    between atoms: C13_17  and  C14_18 
REMARK    9  A    between atoms: C14_18  and  C15_19 
REMARK   10  A    between atoms: C15_19  and  C16_20 
REMARK   11  A    between atoms: C16_20  and  C17_21 
ROOT
ATOM      1  C11 NON d   1      27.281 -17.366  -0.066  0.00  0.00     0.154 C 
ENDROOT
BRANCH   1   2
ATOM      2  N2  NON d   1      28.086 -17.324  -1.412  0.00  0.00    -0.349 N 
ATOM      3  C10 NON d   1      29.498 -17.074  -1.528  0.00  0.00     0.222 C 
ATOM      4  O2  NON d   1      30.157 -16.783  -0.526  0.00  0.00    -0.273 OA
ATOM      5  H12 NON d   1      27.548 -17.459  -2.255  0.00  0.00     0.163 HD
BRANCH   3   6
ATOM      6  C9  NON d   1      30.201 -17.248  -2.954  0.00  0.00     0.144 C 
BRANCH   6   7
ATOM      7  C8  NON d   1      29.748 -16.392  -4.235  0.00  0.00    -0.015 A 
ATOM      8  C6  NON d   1      30.284 -16.411  -5.574  0.00  0.00     0.013 A 
ATOM      9  N1  NON d   1      29.513 -15.613  -6.365  0.00  0.00    -0.359 N 
ATOM     10  C7  NON d   1      31.480 -17.240  -6.074  0.00  0.00     0.068 C 
ATOM     11  C5  NON d   1      28.480 -15.076  -5.638  0.00  0.00     0.043 A 
ATOM     12  H6  NON d   1      29.650 -15.461  -7.355  0.00  0.00     0.166 HD
ATOM     13  C4  NON d   1      27.446 -14.240  -6.072  0.00  0.00     0.033 A 
ATOM     14  C26 NON d   1      28.596 -15.526  -4.316  0.00  0.00     0.002 A 
ATOM     15  C3  NON d   1      26.499 -13.821  -5.135  0.00  0.00     0.039 A 
ATOM     16  C2  NON d   1      26.587 -14.224  -3.807  0.00  0.00     0.069 A 
ATOM     17  C27 NON d   1      27.610 -15.097  -3.402  0.00  0.00     0.051 A 
BRANCH  16  18
ATOM     18  O1  NON d   1      25.725 -13.848  -2.811  0.00  0.00    -0.356 OA
ATOM     19  C1  NON d   1      24.767 -14.815  -2.395  0.00  0.00     0.210 C 
ENDBRANCH  16  18
ENDBRANCH   6   7
ENDBRANCH   3   6
ENDBRANCH   1   2
BRANCH   1  20
ATOM     20  C12 NON d   1      26.011 -18.045   0.604  0.00  0.00     0.033 C 
BRANCH  20  21
ATOM     21  C13 NON d   1      24.636 -17.443   0.090  0.00  0.00     0.002 C 
BRANCH  21  22
ATOM     22  C14 NON d   1      24.198 -17.824  -1.349  0.00  0.00     0.000 C 
BRANCH  22  23
ATOM     23  C15 NON d   1      22.960 -18.719  -1.496  0.00  0.00     0.007 C 
BRANCH  23  24
ATOM     24  C16 NON d   1      21.896 -18.516  -0.419  0.00  0.00     0.077 C 
BRANCH  24  25
ATOM     25  C17 NON d   1      20.671 -19.374  -0.583  0.00  0.00     0.123 C 
ATOM     26  C18 NON d   1      19.947 -19.772   0.677  0.00  0.00     0.091 C 
ATOM     27  O3  NON d   1      20.221 -19.698  -1.681  0.00  0.00    -0.298 OA
ENDBRANCH  24  25
ENDBRANCH  23  24
ENDBRANCH  22  23
ENDBRANCH  21  22
ENDBRANCH  20  21
ENDBRANCH   1  20
BRANCH   1  28
ATOM     28  C19 NON d   1      27.460 -15.943   0.494  0.00  0.00     0.128 A 
ATOM     29  N3  NON d   1      26.492 -15.037   0.471  0.00  0.00    -0.231 NA
ATOM     30  C20 NON d   1      26.966 -13.930   1.110  0.00  0.00     0.087 A 
ATOM     31  C21 NON d   1      26.310 -12.732   1.416  0.00  0.00     0.057 A 
ATOM     32  C25 NON d   1      28.293 -14.111   1.468  0.00  0.00     0.062 A 
ATOM     33  C22 NON d   1      27.053 -11.719   2.021  0.00  0.00     0.036 A 
ATOM     34 Cl1  NON d   1      26.278 -10.233   2.426  0.00  0.00    -0.084 Cl
ATOM     35  C23 NON d   1      28.411 -11.887   2.307  0.00  0.00     0.026 A 
ATOM     36  C24 NON d   1      29.060 -13.102   2.050  0.00  0.00     0.034 A 
ATOM     37  N4  NON d   1      28.554 -15.423   1.146  0.00  0.00    -0.341 N 
ATOM     38  H30 NON d   1      29.395 -15.940   1.371  0.00  0.00     0.167 HD
ENDBRANCH   1  28
TORSDOF 11
ENDMDL
MODEL 8
REMARK VINA RESULT:    -8.847      3.867      9.033
REMARK INTER + INTRA:         -14.984
REMARK INTER:                 -12.129
REMARK INTRA:                  -2.855
REMARK CONF_INDEPENDENT:        3.281
REMARK UNBOUND:                -2.855
REMARK  11 active torsions:
REMARK  status: ('A' for Active; 'I' for Inactive)
REMARK    1  A    between atoms: O1_2  and  C2_3 
REMARK    2  A    between atoms: C8_10  and  C9_11 
REMARK    3  A    between atoms: C9_11  and  C10_12 
REMARK       I    between atoms: C10_12  and  N2_14 
REMARK    4  A    between atoms: C11_15  and  N2_14 
REMARK    5  A    between atoms: C11_15  and  C12_16 
REMARK    6  A    between atoms: C11_15  and  C19_24 
REMARK    7  A    between atoms: C12_16  and  C13_17 
REMARK    8  A    between atoms: C13_17  and  C14_18 
REMARK    9  A    between atoms: C14_18  and  C15_19 
REMARK   10  A    between atoms: C15_19  and  C16_20 
REMARK   11  A    between atoms: C16_20  and  C17_21 
ROOT
ATOM      1  C11 NON d   1      29.016 -13.807  -5.736  0.00  0.00     0.154 C 
ENDROOT
BRANCH   1   2
ATOM      2  N2  NON d   1      27.880 -13.918  -4.658  0.00  0.00    -0.349 N 
ATOM      3  C10 NON d   1      26.777 -14.840  -4.706  0.00  0.00     0.222 C 
ATOM      4  O2  NON d   1      26.622 -15.565  -5.693  0.00  0.00    -0.273 OA
ATOM      5  H12 NON d   1      27.931 -13.264  -3.891  0.00  0.00     0.163 HD
BRANCH   3   6
ATOM      6  C9  NON d   1      25.807 -14.955  -3.440  0.00  0.00     0.144 C 
BRANCH   6   7
ATOM      7  C8  NON d   1      26.082 -15.999  -2.251  0.00  0.00    -0.015 A 
ATOM      8  C6  NON d   1      27.326 -16.320  -1.595  0.00  0.00     0.013 A 
ATOM      9  N1  NON d   1      27.069 -17.169  -0.561  0.00  0.00    -0.359 N 
ATOM     10  C7  NON d   1      28.717 -15.755  -1.934  0.00  0.00     0.068 C 
ATOM     11  C5  NON d   1      25.723 -17.422  -0.475  0.00  0.00     0.043 A 
ATOM     12  H6  NON d   1      27.758 -17.538   0.080  0.00  0.00     0.166 HD
ATOM     13  C4  NON d   1      25.037 -18.205   0.460  0.00  0.00     0.033 A 
ATOM     14  C26 NON d   1      25.080 -16.725  -1.507  0.00  0.00     0.002 A 
ATOM     15  C3  NON d   1      23.649 -18.309   0.342  0.00  0.00     0.039 A 
ATOM     16  C2  NON d   1      22.972 -17.652  -0.681  0.00  0.00     0.069 A 
ATOM     17  C27 NON d   1      23.676 -16.839  -1.583  0.00  0.00     0.051 A 
BRANCH  16  18
ATOM     18  O1  NON d   1      21.620 -17.712  -0.894  0.00  0.00    -0.356 OA
ATOM     19  C1  NON d   1      21.002 -18.983  -0.731  0.00  0.00     0.210 C 
ENDBRANCH  16  18
ENDBRANCH   6   7
ENDBRANCH   3   6
ENDBRANCH   1   2
BRANCH   1  20
ATOM     20  C12 NON d   1      29.400 -13.025  -7.063  0.00  0.00     0.033 C 
BRANCH  20  21
ATOM     21  C13 NON d   1      28.149 -12.374  -7.790  0.00  0.00     0.002 C 
BRANCH  21  22
ATOM     22  C14 NON d   1      27.779 -10.923  -7.384  0.00  0.00     0.000 C 
BRANCH  22  23
ATOM     23  C15 NON d   1      26.363 -10.682  -6.844  0.00  0.00     0.007 C 
BRANCH  23  24
ATOM     24  C16 NON d   1      25.904 -11.687  -5.789  0.00  0.00     0.077 C 
BRANCH  24  25
ATOM     25  C17 NON d   1      26.006 -11.194  -4.372  0.00  0.00     0.123 C 
ATOM     26  C18 NON d   1      25.637  -9.754  -4.124  0.00  0.00     0.091 C 
ATOM     27  O3  NON d   1      26.312 -11.923  -3.428  0.00  0.00    -0.298 OA
ENDBRANCH  24  25
ENDBRANCH  23  24
ENDBRANCH  22  23
ENDBRANCH  21  22
ENDBRANCH  20  21
ENDBRANCH   1  20
BRANCH   1  28
ATOM     28  C19 NON d   1      29.578 -15.240  -5.800  0.00  0.00     0.128 A 
ATOM     29  N3  NON d   1      29.711 -16.005  -4.726  0.00  0.00    -0.231 NA
ATOM     30  C20 NON d   1      30.159 -17.220  -5.153  0.00  0.00     0.087 A 
ATOM     31  C21 NON d   1      30.387 -18.391  -4.421  0.00  0.00     0.057 A 
ATOM     32  C25 NON d   1      30.395 -17.192  -6.519  0.00  0.00     0.062 A 
ATOM     33  C22 NON d   1      30.919 -19.488  -5.098  0.00  0.00     0.036 A 
ATOM     34 Cl1  NON d   1      31.201 -20.954  -4.235  0.00  0.00    -0.084 Cl
ATOM     35  C23 NON d   1      31.225 -19.423  -6.460  0.00  0.00     0.026 A 
ATOM     36  C24 NON d   1      30.951 -18.269  -7.208  0.00  0.00     0.034 A 
ATOM     37  N4  NON d   1      29.937 -15.957  -6.917  0.00  0.00    -0.341 N 
ATOM     38  H30 NON d   1      29.845 -15.630  -7.871  0.00  0.00     0.167 HD
ENDBRANCH   1  28
TORSDOF 11
ENDMDL
MODEL 9
REMARK VINA RESULT:    -8.234      3.592      7.919
REMARK INTER + INTRA:         -15.204
REMARK INTER:                 -11.516
REMARK INTRA:                  -3.688
REMARK CONF_INDEPENDENT:        3.281
REMARK UNBOUND:                -3.688
REMARK  11 active torsions:
REMARK  status: ('A' for Active; 'I' for Inactive)
REMARK    1  A    between atoms: O1_2  and  C2_3 
REMARK    2  A    between atoms: C8_10  and  C9_11 
REMARK    3  A    between atoms: C9_11  and  C10_12 
REMARK       I    between atoms: C10_12  and  N2_14 
REMARK    4  A    between atoms: C11_15  and  N2_14 
REMARK    5  A    between atoms: C11_15  and  C12_16 
REMARK    6  A    between atoms: C11_15  and  C19_24 
REMARK    7  A    between atoms: C12_16  and  C13_17 
REMARK    8  A    between atoms: C13_17  and  C14_18 
REMARK    9  A    between atoms: C14_18  and  C15_19 
REMARK   10  A    between atoms: C15_19  and  C16_20 
REMARK   11  A    between atoms: C16_20  and  C17_21 
ROOT
ATOM      1  C11 NON d   1      28.228 -16.419  -0.755  0.00  0.00     0.154 C 
ENDROOT
BRANCH   1   2
ATOM      2  N2  NON d   1      28.487 -15.879   0.696  0.00  0.00    -0.349 N 
ATOM      3  C10 NON d   1      27.831 -14.745   1.290  0.00  0.00     0.222 C 
ATOM      4  O2  NON d   1      27.054 -14.060   0.617  0.00  0.00    -0.273 OA
ATOM      5  H12 NON d   1      29.194 -16.363   1.230  0.00  0.00     0.163 HD
BRANCH   3   6
ATOM      6  C9  NON d   1      28.070 -14.435   2.841  0.00  0.00     0.144 C 
BRANCH   6   7
ATOM      7  C8  NON d   1      27.751 -12.997   3.479  0.00  0.00    -0.015 A 
ATOM      8  C6  NON d   1      27.780 -12.592   4.863  0.00  0.00     0.013 A 
ATOM      9  N1  NON d   1      27.561 -11.248   4.931  0.00  0.00    -0.359 N 
ATOM     10  C7  NON d   1      28.080 -13.489   6.078  0.00  0.00     0.068 C 
ATOM     11  C5  NON d   1      27.406 -10.727   3.671  0.00  0.00     0.043 A 
ATOM     12  H6  NON d   1      27.550 -10.698   5.779  0.00  0.00     0.166 HD
ATOM     13  C4  NON d   1      27.202  -9.395   3.294  0.00  0.00     0.033 A 
ATOM     14  C26 NON d   1      27.507 -11.776   2.748  0.00  0.00     0.002 A 
ATOM     15  C3  NON d   1      27.075  -9.107   1.933  0.00  0.00     0.039 A 
ATOM     16  C2  NON d   1      27.146 -10.120   0.983  0.00  0.00     0.069 A 
ATOM     17  C27 NON d   1      27.391 -11.444   1.381  0.00  0.00     0.051 A 
BRANCH  16  18
ATOM     18  O1  NON d   1      27.008  -9.942  -0.368  0.00  0.00    -0.356 OA
ATOM     19  C1  NON d   1      28.181  -9.584  -1.090  0.00  0.00     0.210 C 
ENDBRANCH  16  18
ENDBRANCH   6   7
ENDBRANCH   3   6
ENDBRANCH   1   2
BRANCH   1  20
ATOM     20  C12 NON d   1      28.762 -16.290  -2.244  0.00  0.00     0.033 C 
BRANCH  20  21
ATOM     21  C13 NON d   1      28.203 -15.012  -3.001  0.00  0.00     0.002 C 
BRANCH  21  22
ATOM     22  C14 NON d   1      27.316 -15.268  -4.248  0.00  0.00     0.000 C 
BRANCH  22  23
ATOM     23  C15 NON d   1      25.795 -15.198  -4.057  0.00  0.00     0.007 C 
BRANCH  23  24
ATOM     24  C16 NON d   1      25.204 -13.793  -4.159  0.00  0.00     0.077 C 
BRANCH  24  25
ATOM     25  C17 NON d   1      25.712 -12.826  -3.125  0.00  0.00     0.123 C 
ATOM     26  C18 NON d   1      25.905 -11.398  -3.565  0.00  0.00     0.091 C 
ATOM     27  O3  NON d   1      25.909 -13.140  -1.951  0.00  0.00    -0.298 OA
ENDBRANCH  24  25
ENDBRANCH  23  24
ENDBRANCH  22  23
ENDBRANCH  21  22
ENDBRANCH  20  21
ENDBRANCH   1  20
BRANCH   1  28
ATOM     28  C19 NON d   1      26.708 -16.661  -0.771  0.00  0.00     0.128 A 
ATOM     29  N3  NON d   1      26.170 -17.852  -0.546  0.00  0.00    -0.231 NA
ATOM     30  C20 NON d   1      24.816 -17.689  -0.560  0.00  0.00     0.087 A 
ATOM     31  C21 NON d   1      23.806 -18.623  -0.303  0.00  0.00     0.057 A 
ATOM     32  C25 NON d   1      24.493 -16.381  -0.887  0.00  0.00     0.062 A 
ATOM     33  C22 NON d   1      22.483 -18.208  -0.455  0.00  0.00     0.036 A 
ATOM     34 Cl1  NON d   1      21.209 -19.325  -0.134  0.00  0.00    -0.084 Cl
ATOM     35  C23 NON d   1      22.171 -16.907  -0.859  0.00  0.00     0.026 A 
ATOM     36  C24 NON d   1      23.177 -15.954  -1.069  0.00  0.00     0.034 A 
ATOM     37  N4  NON d   1      25.706 -15.732  -0.928  0.00  0.00    -0.341 N 
ATOM     38  H30 NON d   1      25.849 -14.734  -1.027  0.00  0.00     0.167 HD
ENDBRANCH   1  28
TORSDOF 11
ENDMDL
