MODEL 1
REMARK VINA RESULT:   -16.762      0.000      0.000
REMARK INTER + INTRA:         -20.091
REMARK INTER:                 -18.850
REMARK INTRA:                  -1.241
REMARK CONF_INDEPENDENT:        2.088
REMARK UNBOUND:                -1.241
REMARK  7 active torsions:
REMARK  status: ('A' for Active; 'I' for Inactive)
REMARK    1  A    between atoms: C2_2  and  C3_3 
REMARK       I    between atoms: C3_3  and  N1_5 
REMARK    2  A    between atoms: N1_5  and  C4_6 
REMARK    3  A    between atoms: C4_6  and  C5_7 
REMARK    4  A    between atoms: C8_10  and  C9_11 
REMARK       I    between atoms: C9_11  and  N2_13 
REMARK    5  A    between atoms: N2_13  and  C10_14 
REMARK    6  A    between atoms: C12_16  and  C13_17 
REMARK    7  A    between atoms: C19_24  and  N3_25 
ROOT
ATOM      1  C9  NON d   1      22.350 -18.482  -0.316  0.00  0.00     0.256 C 
ATOM      2  O2  NON d   1      21.844 -18.921  -1.349  0.00  0.00    -0.267 OA
ATOM      3  N2  NON d   1      21.767 -18.541   0.938  0.00  0.00    -0.321 N 
ATOM      4  H11 NON d   1      22.180 -17.987   1.673  0.00  0.00     0.169 HD
ENDROOT
BRANCH   3   5
ATOM      5  C10 NON d   1      20.560 -19.217   1.302  0.00  0.00     0.057 A 
ATOM      6  C11 NON d   1      20.486 -19.659   2.645  0.00  0.00     0.044 A 
ATOM      7  C12 NON d   1      19.365 -20.344   3.161  0.00  0.00    -0.017 A 
ATOM      8  C17 NON d   1      18.320 -20.612   2.271  0.00  0.00     0.014 A 
ATOM      9  C18 NON d   1      18.387 -20.213   0.936  0.00  0.00     0.026 A 
ATOM     10  C19 NON d   1      19.476 -19.483   0.440  0.00  0.00     0.033 A 
BRANCH   7  11
ATOM     11  C13 NON d   1      19.313 -20.771   4.584  0.00  0.00     0.015 A 
ATOM     12  C14 NON d   1      18.824 -20.093   5.693  0.00  0.00     0.020 A 
ATOM     13  C15 NON d   1      18.949 -20.826   6.911  0.00  0.00     0.008 A 
ATOM     14  C16 NON d   1      19.531 -22.054   6.714  0.00  0.00     0.050 A 
ATOM     15  S1  NON d   1      19.904 -22.321   5.075  0.00  0.00    -0.101 SA
ENDBRANCH   7  11
BRANCH  10  16
ATOM     16  N3  NON d   1      19.530 -19.325  -0.961  0.00  0.00    -0.301 NA
ATOM     17  H18 NON d   1      18.650 -19.639  -1.385  0.00  0.00     0.124 HD
ATOM     18  H19 NON d   1      20.299 -19.827  -1.390  0.00  0.00     0.124 HD
ENDBRANCH  10  16
ENDBRANCH   3   5
BRANCH   1  19
ATOM     19  C8  NON d   1      23.686 -17.815  -0.449  0.00  0.00     0.032 A 
ATOM     20  C7  NON d   1      23.881 -16.495  -0.863  0.00  0.00     0.017 A 
ATOM     21  C6  NON d   1      25.184 -15.982  -0.987  0.00  0.00     0.010 A 
ATOM     22  C5  NON d   1      26.317 -16.768  -0.708  0.00  0.00    -0.040 A 
ATOM     23  C21 NON d   1      26.111 -18.092  -0.305  0.00  0.00     0.010 A 
ATOM     24  C20 NON d   1      24.816 -18.601  -0.168  0.00  0.00     0.017 A 
BRANCH  22  25
ATOM     25  C4  NON d   1      27.691 -16.167  -0.915  0.00  0.00     0.161 C 
BRANCH  25  26
ATOM     26  N1  NON d   1      27.826 -15.356  -2.107  0.00  0.00    -0.357 N 
ATOM     27  C3  NON d   1      28.896 -15.543  -2.959  0.00  0.00     0.217 C 
ATOM     28  O1  NON d   1      29.808 -16.331  -2.734  0.00  0.00    -0.274 OA
ATOM     29  H6  NON d   1      26.989 -14.945  -2.498  0.00  0.00     0.162 HD
BRANCH  27  30
ATOM     30  C2  NON d   1      28.844 -14.641  -4.179  0.00  0.00     0.098 C 
ATOM     31  C1  NON d   1      27.510 -14.716  -4.900  0.00  0.00     0.014 C 
ENDBRANCH  27  30
ENDBRANCH  25  26
ENDBRANCH  22  25
ENDBRANCH   1  19
TORSDOF 7
ENDMDL
MODEL 2
REMARK VINA RESULT:   -16.518      1.715      2.593
REMARK INTER + INTRA:         -19.939
REMARK INTER:                 -18.606
REMARK INTRA:                  -1.332
REMARK CONF_INDEPENDENT:        2.088
REMARK UNBOUND:                -1.332
REMARK  7 active torsions:
REMARK  status: ('A' for Active; 'I' for Inactive)
REMARK    1  A    between atoms: C2_2  and  C3_3 
REMARK       I    between atoms: C3_3  and  N1_5 
REMARK    2  A    between atoms: N1_5  and  C4_6 
REMARK    3  A    between atoms: C4_6  and  C5_7 
REMARK    4  A    between atoms: C8_10  and  C9_11 
REMARK       I    between atoms: C9_11  and  N2_13 
REMARK    5  A    between atoms: N2_13  and  C10_14 
REMARK    6  A    between atoms: C12_16  and  C13_17 
REMARK    7  A    between atoms: C19_24  and  N3_25 
ROOT
ATOM      1  C9  NON d   1      22.382 -18.430  -0.325  0.00  0.00     0.256 C 
ATOM      2  O2  NON d   1      21.946 -18.950  -1.352  0.00  0.00    -0.267 OA
ATOM      3  N2  NON d   1      21.746 -18.453   0.905  0.00  0.00    -0.321 N 
ATOM      4  H11 NON d   1      22.097 -17.839   1.624  0.00  0.00     0.169 HD
ENDROOT
BRANCH   3   5
ATOM      5  C10 NON d   1      20.560 -19.171   1.255  0.00  0.00     0.057 A 
ATOM      6  C11 NON d   1      20.482 -19.611   2.598  0.00  0.00     0.044 A 
ATOM      7  C12 NON d   1      19.381 -20.335   3.101  0.00  0.00    -0.017 A 
ATOM      8  C17 NON d   1      18.359 -20.644   2.197  0.00  0.00     0.014 A 
ATOM      9  C18 NON d   1      18.431 -20.247   0.862  0.00  0.00     0.026 A 
ATOM     10  C19 NON d   1      19.499 -19.480   0.378  0.00  0.00     0.033 A 
BRANCH   7  11
ATOM     11  C13 NON d   1      19.324 -20.758   4.525  0.00  0.00     0.015 A 
ATOM     12  C14 NON d   1      18.838 -20.075   5.632  0.00  0.00     0.020 A 
ATOM     13  C15 NON d   1      18.957 -20.806   6.852  0.00  0.00     0.008 A 
ATOM     14  C16 NON d   1      19.530 -22.039   6.658  0.00  0.00     0.050 A 
ATOM     15  S1  NON d   1      19.904 -22.311   5.020  0.00  0.00    -0.101 SA
ENDBRANCH   7  11
BRANCH  10  16
ATOM     16  N3  NON d   1      19.567 -19.325  -1.022  0.00  0.00    -0.301 NA
ATOM     17  H18 NON d   1      18.704 -19.672  -1.457  0.00  0.00     0.124 HD
ATOM     18  H19 NON d   1      20.360 -19.801  -1.438  0.00  0.00     0.124 HD
ENDBRANCH  10  16
ENDBRANCH   3   5
BRANCH   1  19
ATOM     19  C8  NON d   1      23.687 -17.701  -0.438  0.00  0.00     0.032 A 
ATOM     20  C7  NON d   1      24.879 -18.102   0.170  0.00  0.00     0.017 A 
ATOM     21  C6  NON d   1      26.039 -17.321   0.026  0.00  0.00     0.010 A 
ATOM     22  C5  NON d   1      26.037 -16.126  -0.717  0.00  0.00    -0.040 A 
ATOM     23  C21 NON d   1      24.836 -15.728  -1.312  0.00  0.00     0.010 A 
ATOM     24  C20 NON d   1      23.683 -16.510  -1.181  0.00  0.00     0.017 A 
BRANCH  22  25
ATOM     25  C4  NON d   1      27.309 -15.307  -0.784  0.00  0.00     0.161 C 
BRANCH  25  26
ATOM     26  N1  NON d   1      27.981 -15.123   0.485  0.00  0.00    -0.357 N 
ATOM     27  C3  NON d   1      28.403 -13.868   0.876  0.00  0.00     0.217 C 
ATOM     28  O1  NON d   1      28.304 -12.873   0.166  0.00  0.00    -0.274 OA
ATOM     29  H6  NON d   1      27.809 -15.801   1.215  0.00  0.00     0.162 HD
BRANCH  27  30
ATOM     30  C2  NON d   1      29.039 -13.860   2.254  0.00  0.00     0.098 C 
ATOM     31  C1  NON d   1      28.153 -14.503   3.305  0.00  0.00     0.014 C 
ENDBRANCH  27  30
ENDBRANCH  25  26
ENDBRANCH  22  25
ENDBRANCH   1  19
TORSDOF 7
ENDMDL
