MODEL 1
REMARK VINA RESULT:    -7.635      0.000      0.000
REMARK INTER + INTRA:          -9.925
REMARK INTER:                  -8.828
REMARK INTRA:                  -1.097
REMARK CONF_INDEPENDENT:        1.193
REMARK UNBOUND:                -1.097
REMARK  4 active torsions:
REMARK  status: ('A' for Active; 'I' for Inactive)
REMARK    1  A    between atoms: C1_2  and  C2_3 
REMARK       I    between atoms: C1_2  and  N1_16 
REMARK    2  A    between atoms: C3_4  and  C4_5 
REMARK    3  A    between atoms: C7_8  and  C8_9 
REMARK    4  A    between atoms: N1_16  and  O2_17 
ROOT
ATOM      1  C4  NON d   1      24.584 -17.255  -0.763  0.00  0.00    -0.036 A 
ATOM      2  C5  NON d   1      24.532 -18.623  -0.469  0.00  0.00     0.012 A 
ATOM      3  C6  NON d   1      23.313 -19.267  -0.207  0.00  0.00     0.013 A 
ATOM      4  C7  NON d   1      22.094 -18.572  -0.228  0.00  0.00    -0.019 A 
ATOM      5  C12 NON d   1      22.155 -17.201  -0.523  0.00  0.00     0.013 A 
ATOM      6  C13 NON d   1      23.374 -16.555  -0.786  0.00  0.00     0.012 A 
ENDROOT
BRANCH   1   7
ATOM      7  C3  NON d   1      25.900 -16.641  -1.033  0.00  0.00     0.017 C 
ATOM      8  C2  NON d   1      27.086 -17.122  -0.624  0.00  0.00     0.077 C 
BRANCH   8   9
ATOM      9  C1  NON d   1      28.439 -16.540  -0.864  0.00  0.00     0.264 C 
ATOM     10  O1  NON d   1      28.541 -15.630  -1.683  0.00  0.00    -0.266 OA
ATOM     11  N1  NON d   1      29.473 -17.075  -0.146  0.00  0.00    -0.234 N 
ATOM     12  H10 NON d   1      29.382 -17.808   0.543  0.00  0.00     0.197 HD
BRANCH  11  13
ATOM     13  O2  NON d   1      30.751 -16.526  -0.377  0.00  0.00    -0.287 OA
ATOM     14  H11 NON d   1      30.608 -15.879  -1.088  0.00  0.00     0.244 HD
ENDBRANCH  11  13
ENDBRANCH   8   9
ENDBRANCH   1   7
BRANCH   4  15
ATOM     15  C8  NON d   1      20.818 -19.279   0.054  0.00  0.00     0.015 A 
ATOM     16  C9  NON d   1      20.302 -19.702   1.272  0.00  0.00     0.020 A 
ATOM     17  C10 NON d   1      19.039 -20.353   1.162  0.00  0.00     0.008 A 
ATOM     18  C11 NON d   1      18.610 -20.419  -0.142  0.00  0.00     0.050 A 
ATOM     19  S1  NON d   1      19.724 -19.700  -1.213  0.00  0.00    -0.101 SA
ENDBRANCH   4  15
TORSDOF 4
ENDMDL
MODEL 2
REMARK VINA RESULT:    -7.601      5.529      7.970
REMARK INTER + INTRA:          -9.861
REMARK INTER:                  -8.794
REMARK INTRA:                  -1.067
REMARK CONF_INDEPENDENT:        1.193
REMARK UNBOUND:                -1.067
REMARK  4 active torsions:
REMARK  status: ('A' for Active; 'I' for Inactive)
REMARK    1  A    between atoms: C1_2  and  C2_3 
REMARK       I    between atoms: C1_2  and  N1_16 
REMARK    2  A    between atoms: C3_4  and  C4_5 
REMARK    3  A    between atoms: C7_8  and  C8_9 
REMARK    4  A    between atoms: N1_16  and  O2_17 
ROOT
ATOM      1  C4  NON d   1      22.000 -18.400  -0.617  0.00  0.00    -0.036 A 
ATOM      2  C5  NON d   1      23.160 -19.179  -0.532  0.00  0.00     0.012 A 
ATOM      3  C6  NON d   1      24.431 -18.589  -0.459  0.00  0.00     0.013 A 
ATOM      4  C7  NON d   1      24.597 -17.195  -0.467  0.00  0.00    -0.019 A 
ATOM      5  C12 NON d   1      23.429 -16.422  -0.552  0.00  0.00     0.013 A 
ATOM      6  C13 NON d   1      22.156 -17.010  -0.625  0.00  0.00     0.012 A 
ENDROOT
BRANCH   1   7
ATOM      7  C3  NON d   1      20.694 -19.086  -0.688  0.00  0.00     0.017 C 
ATOM      8  C2  NON d   1      20.151 -19.839   0.285  0.00  0.00     0.077 C 
BRANCH   8   9
ATOM      9  C1  NON d   1      18.842 -20.555   0.262  0.00  0.00     0.264 C 
ATOM     10  O1  NON d   1      18.142 -20.450  -0.742  0.00  0.00    -0.266 OA
ATOM     11  N1  NON d   1      18.519 -21.277   1.377  0.00  0.00    -0.234 N 
ATOM     12  H10 NON d   1      19.107 -21.379   2.193  0.00  0.00     0.197 HD
BRANCH  11  13
ATOM     13  O2  NON d   1      17.280 -21.950   1.355  0.00  0.00    -0.287 OA
ATOM     14  H11 NON d   1      17.031 -21.960   0.416  0.00  0.00     0.244 HD
ENDBRANCH  11  13
ENDBRANCH   8   9
ENDBRANCH   1   7
BRANCH   4  15
ATOM     15  C8  NON d   1      25.955 -16.598  -0.388  0.00  0.00     0.015 A 
ATOM     16  C9  NON d   1      27.095 -17.092   0.231  0.00  0.00     0.020 A 
ATOM     17  C10 NON d   1      28.231 -16.241   0.101  0.00  0.00     0.008 A 
ATOM     18  C11 NON d   1      27.939 -15.106  -0.617  0.00  0.00     0.050 A 
ATOM     19  S1  NON d   1      26.312 -15.077  -1.124  0.00  0.00    -0.101 SA
ENDBRANCH   4  15
TORSDOF 4
ENDMDL
MODEL 3
REMARK VINA RESULT:    -7.317      5.102      7.954
REMARK INTER + INTRA:          -9.569
REMARK INTER:                  -8.511
REMARK INTRA:                  -1.058
REMARK CONF_INDEPENDENT:        1.193
REMARK UNBOUND:                -1.058
REMARK  4 active torsions:
REMARK  status: ('A' for Active; 'I' for Inactive)
REMARK    1  A    between atoms: C1_2  and  C2_3 
REMARK       I    between atoms: C1_2  and  N1_16 
REMARK    2  A    between atoms: C3_4  and  C4_5 
REMARK    3  A    between atoms: C7_8  and  C8_9 
REMARK    4  A    between atoms: N1_16  and  O2_17 
ROOT
ATOM      1  C4  NON d   1      24.077 -17.805  -0.928  0.00  0.00    -0.036 A 
ATOM      2  C5  NON d   1      24.981 -18.427  -0.058  0.00  0.00     0.012 A 
ATOM      3  C6  NON d   1      26.168 -17.790   0.337  0.00  0.00     0.013 A 
ATOM      4  C7  NON d   1      26.501 -16.505  -0.120  0.00  0.00    -0.019 A 
ATOM      5  C12 NON d   1      25.590 -15.890  -0.991  0.00  0.00     0.013 A 
ATOM      6  C13 NON d   1      24.401 -16.525  -1.388  0.00  0.00     0.012 A 
ENDROOT
BRANCH   1   7
ATOM      7  C3  NON d   1      22.845 -18.531  -1.301  0.00  0.00     0.017 C 
ATOM      8  C2  NON d   1      21.708 -18.559  -0.586  0.00  0.00     0.077 C 
BRANCH   8   9
ATOM      9  C1  NON d   1      20.442 -19.278  -0.914  0.00  0.00     0.264 C 
ATOM     10  O1  NON d   1      20.298 -19.707  -2.056  0.00  0.00    -0.266 OA
ATOM     11  N1  NON d   1      19.527 -19.400   0.096  0.00  0.00    -0.234 N 
ATOM     12  H10 NON d   1      19.657 -19.065   1.039  0.00  0.00     0.197 HD
BRANCH  11  13
ATOM     13  O2  NON d   1      18.330 -20.076  -0.218  0.00  0.00    -0.287 OA
ATOM     14  H11 NON d   1      18.297 -20.066  -1.189  0.00  0.00     0.244 HD
ENDBRANCH  11  13
ENDBRANCH   8   9
ENDBRANCH   1   7
BRANCH   4  15
ATOM     15  C8  NON d   1      27.765 -15.856   0.315  0.00  0.00     0.015 A 
ATOM     16  C9  NON d   1      29.056 -16.050  -0.156  0.00  0.00     0.020 A 
ATOM     17  C10 NON d   1      30.032 -15.244   0.502  0.00  0.00     0.008 A 
ATOM     18  C11 NON d   1      29.467 -14.447   1.468  0.00  0.00     0.050 A 
ATOM     19  S1  NON d   1      27.781 -14.673   1.573  0.00  0.00    -0.101 SA
ENDBRANCH   4  15
TORSDOF 4
ENDMDL
MODEL 4
REMARK VINA RESULT:    -7.236      5.171      7.937
REMARK INTER + INTRA:          -9.473
REMARK INTER:                  -8.429
REMARK INTRA:                  -1.043
REMARK CONF_INDEPENDENT:        1.193
REMARK UNBOUND:                -1.043
REMARK  4 active torsions:
REMARK  status: ('A' for Active; 'I' for Inactive)
REMARK    1  A    between atoms: C1_2  and  C2_3 
REMARK       I    between atoms: C1_2  and  N1_16 
REMARK    2  A    between atoms: C3_4  and  C4_5 
REMARK    3  A    between atoms: C7_8  and  C8_9 
REMARK    4  A    between atoms: N1_16  and  O2_17 
ROOT
ATOM      1  C4  NON d   1      24.142 -18.011  -0.666  0.00  0.00    -0.036 A 
ATOM      2  C5  NON d   1      25.147 -18.562   0.138  0.00  0.00     0.012 A 
ATOM      3  C6  NON d   1      26.306 -17.837   0.454  0.00  0.00     0.013 A 
ATOM      4  C7  NON d   1      26.510 -16.532  -0.018  0.00  0.00    -0.019 A 
ATOM      5  C12 NON d   1      25.498 -15.987  -0.822  0.00  0.00     0.013 A 
ATOM      6  C13 NON d   1      24.336 -16.710  -1.141  0.00  0.00     0.012 A 
ENDROOT
BRANCH   1   7
ATOM      7  C3  NON d   1      22.946 -18.828  -0.958  0.00  0.00     0.017 C 
ATOM      8  C2  NON d   1      21.671 -18.434  -0.796  0.00  0.00     0.077 C 
BRANCH   8   9
ATOM      9  C1  NON d   1      20.432 -19.219  -1.070  0.00  0.00     0.264 C 
ATOM     10  O1  NON d   1      20.286 -19.700  -2.190  0.00  0.00    -0.266 OA
ATOM     11  N1  NON d   1      19.541 -19.338  -0.038  0.00  0.00    -0.234 N 
ATOM     12  H10 NON d   1      19.673 -18.959   0.889  0.00  0.00     0.197 HD
BRANCH  11  13
ATOM     13  O2  NON d   1      18.369 -20.077  -0.300  0.00  0.00    -0.287 OA
ATOM     14  H11 NON d   1      18.298 -20.075  -1.270  0.00  0.00     0.244 HD
ENDBRANCH  11  13
ENDBRANCH   8   9
ENDBRANCH   1   7
BRANCH   4  15
ATOM     15  C8  NON d   1      27.747 -15.788   0.334  0.00  0.00     0.015 A 
ATOM     16  C9  NON d   1      27.936 -14.810   1.301  0.00  0.00     0.020 A 
ATOM     17  C10 NON d   1      29.271 -14.313   1.358  0.00  0.00     0.008 A 
ATOM     18  C11 NON d   1      30.082 -14.920   0.430  0.00  0.00     0.050 A 
ATOM     19  S1  NON d   1      29.235 -16.075  -0.495  0.00  0.00    -0.101 SA
ENDBRANCH   4  15
TORSDOF 4
ENDMDL
MODEL 5
REMARK VINA RESULT:    -6.964      5.070      7.991
REMARK INTER + INTRA:          -9.260
REMARK INTER:                  -8.157
REMARK INTRA:                  -1.103
REMARK CONF_INDEPENDENT:        1.193
REMARK UNBOUND:                -1.103
REMARK  4 active torsions:
REMARK  status: ('A' for Active; 'I' for Inactive)
REMARK    1  A    between atoms: C1_2  and  C2_3 
REMARK       I    between atoms: C1_2  and  N1_16 
REMARK    2  A    between atoms: C3_4  and  C4_5 
REMARK    3  A    between atoms: C7_8  and  C8_9 
REMARK    4  A    between atoms: N1_16  and  O2_17 
ROOT
ATOM      1  C4  NON d   1      23.783 -17.726  -0.348  0.00  0.00    -0.036 A 
ATOM      2  C5  NON d   1      23.897 -16.681  -1.272  0.00  0.00     0.012 A 
ATOM      3  C6  NON d   1      25.148 -16.155  -1.627  0.00  0.00     0.013 A 
ATOM      4  C7  NON d   1      26.339 -16.651  -1.075  0.00  0.00    -0.019 A 
ATOM      5  C12 NON d   1      26.216 -17.699  -0.150  0.00  0.00     0.013 A 
ATOM      6  C13 NON d   1      24.964 -18.228   0.207  0.00  0.00     0.012 A 
ENDROOT
BRANCH   1   7
ATOM      7  C3  NON d   1      22.435 -18.235  -0.021  0.00  0.00     0.017 C 
ATOM      8  C2  NON d   1      21.801 -19.235  -0.657  0.00  0.00     0.077 C 
BRANCH   8   9
ATOM      9  C1  NON d   1      20.442 -19.781  -0.371  0.00  0.00     0.264 C 
ATOM     10  O1  NON d   1      19.587 -19.700  -1.250  0.00  0.00    -0.266 OA
ATOM     11  N1  NON d   1      20.251 -20.333   0.866  0.00  0.00    -0.234 N 
ATOM     12  H10 NON d   1      20.962 -20.417   1.579  0.00  0.00     0.197 HD
BRANCH  11  13
ATOM     13  O2  NON d   1      18.965 -20.845   1.136  0.00  0.00    -0.287 OA
ATOM     14  H11 NON d   1      18.449 -20.625   0.343  0.00  0.00     0.244 HD
ENDBRANCH  11  13
ENDBRANCH   8   9
ENDBRANCH   1   7
BRANCH   4  15
ATOM     15  C8  NON d   1      27.651 -16.075  -1.469  0.00  0.00     0.015 A 
ATOM     16  C9  NON d   1      28.777 -15.847  -0.689  0.00  0.00     0.020 A 
ATOM     17  C10 NON d   1      29.865 -15.276  -1.411  0.00  0.00     0.008 A 
ATOM     18  C11 NON d   1      29.551 -15.074  -2.733  0.00  0.00     0.050 A 
ATOM     19  S1  NON d   1      27.961 -15.573  -3.091  0.00  0.00    -0.101 SA
ENDBRANCH   4  15
TORSDOF 4
ENDMDL
MODEL 6
REMARK VINA RESULT:    -6.735      1.805      2.377
REMARK INTER + INTRA:          -9.026
REMARK INTER:                  -7.929
REMARK INTRA:                  -1.097
REMARK CONF_INDEPENDENT:        1.193
REMARK UNBOUND:                -1.097
REMARK  4 active torsions:
REMARK  status: ('A' for Active; 'I' for Inactive)
REMARK    1  A    between atoms: C1_2  and  C2_3 
REMARK       I    between atoms: C1_2  and  N1_16 
REMARK    2  A    between atoms: C3_4  and  C4_5 
REMARK    3  A    between atoms: C7_8  and  C8_9 
REMARK    4  A    between atoms: N1_16  and  O2_17 
ROOT
ATOM      1  C4  NON d   1      24.673 -16.983  -0.913  0.00  0.00    -0.036 A 
ATOM      2  C5  NON d   1      23.432 -16.335  -0.895  0.00  0.00     0.012 A 
ATOM      3  C6  NON d   1      22.258 -17.019  -0.541  0.00  0.00     0.013 A 
ATOM      4  C7  NON d   1      22.275 -18.377  -0.188  0.00  0.00    -0.019 A 
ATOM      5  C12 NON d   1      23.523 -19.018  -0.210  0.00  0.00     0.013 A 
ATOM      6  C13 NON d   1      24.699 -18.336  -0.564  0.00  0.00     0.012 A 
ENDROOT
BRANCH   1   7
ATOM      7  C3  NON d   1      25.869 -16.203  -1.293  0.00  0.00     0.017 C 
ATOM      8  C2  NON d   1      26.091 -15.646  -2.496  0.00  0.00     0.077 C 
BRANCH   8   9
ATOM      9  C1  NON d   1      27.280 -14.857  -2.931  0.00  0.00     0.264 C 
ATOM     10  O1  NON d   1      28.266 -15.468  -3.333  0.00  0.00    -0.266 OA
ATOM     11  N1  NON d   1      27.178 -13.496  -2.840  0.00  0.00    -0.234 N 
ATOM     12  H10 NON d   1      26.358 -12.995  -2.528  0.00  0.00     0.197 HD
BRANCH  11  13
ATOM     13  O2  NON d   1      28.304 -12.751  -3.247  0.00  0.00    -0.287 OA
ATOM     14  H11 NON d   1      28.906 -13.415  -3.623  0.00  0.00     0.244 HD
ENDBRANCH  11  13
ENDBRANCH   8   9
ENDBRANCH   1   7
BRANCH   4  15
ATOM     15  C8  NON d   1      21.018 -19.075   0.182  0.00  0.00     0.015 A 
ATOM     16  C9  NON d   1      20.516 -19.365   1.445  0.00  0.00     0.020 A 
ATOM     17  C10 NON d   1      19.268 -20.053   1.419  0.00  0.00     0.008 A 
ATOM     18  C11 NON d   1      18.836 -20.280   0.135  0.00  0.00     0.050 A 
ATOM     19  S1  NON d   1      19.929 -19.666  -1.020  0.00  0.00    -0.101 SA
ENDBRANCH   4  15
TORSDOF 4
ENDMDL
MODEL 7
REMARK VINA RESULT:    -5.592      4.968      8.138
REMARK INTER + INTRA:          -7.877
REMARK INTER:                  -6.785
REMARK INTRA:                  -1.092
REMARK CONF_INDEPENDENT:        1.193
REMARK UNBOUND:                -1.092
REMARK  4 active torsions:
REMARK  status: ('A' for Active; 'I' for Inactive)
REMARK    1  A    between atoms: C1_2  and  C2_3 
REMARK       I    between atoms: C1_2  and  N1_16 
REMARK    2  A    between atoms: C3_4  and  C4_5 
REMARK    3  A    between atoms: C7_8  and  C8_9 
REMARK    4  A    between atoms: N1_16  and  O2_17 
ROOT
ATOM      1  C4  NON d   1      25.241 -17.172  -0.627  0.00  0.00    -0.036 A 
ATOM      2  C5  NON d   1      26.320 -17.988  -0.269  0.00  0.00     0.012 A 
ATOM      3  C6  NON d   1      27.527 -17.439   0.193  0.00  0.00     0.013 A 
ATOM      4  C7  NON d   1      27.706 -16.053   0.316  0.00  0.00    -0.019 A 
ATOM      5  C12 NON d   1      26.619 -15.243  -0.045  0.00  0.00     0.013 A 
ATOM      6  C13 NON d   1      25.410 -15.789  -0.507  0.00  0.00     0.012 A 
ENDROOT
BRANCH   1   7
ATOM      7  C3  NON d   1      23.998 -17.814  -1.103  0.00  0.00     0.017 C 
ATOM      8  C2  NON d   1      23.173 -18.570  -0.357  0.00  0.00     0.077 C 
BRANCH   8   9
ATOM      9  C1  NON d   1      21.914 -19.243  -0.789  0.00  0.00     0.264 C 
ATOM     10  O1  NON d   1      21.666 -19.294  -1.990  0.00  0.00    -0.266 OA
ATOM     11  N1  NON d   1      21.122 -19.754   0.203  0.00  0.00    -0.234 N 
ATOM     12  H10 NON d   1      21.339 -19.729   1.189  0.00  0.00     0.197 HD
BRANCH  11  13
ATOM     13  O2  NON d   1      19.930 -20.387  -0.207  0.00  0.00    -0.287 OA
ATOM     14  H11 NON d   1      19.883 -20.213  -1.162  0.00  0.00     0.244 HD
ENDBRANCH  11  13
ENDBRANCH   8   9
ENDBRANCH   1   7
BRANCH   4  15
ATOM     15  C8  NON d   1      28.994 -15.500   0.808  0.00  0.00     0.015 A 
ATOM     16  C9  NON d   1      30.283 -15.979   0.615  0.00  0.00     0.020 A 
ATOM     17  C10 NON d   1      31.288 -15.183   1.239  0.00  0.00     0.008 A 
ATOM     18  C11 NON d   1      30.748 -14.108   1.902  0.00  0.00     0.050 A 
ATOM     19  S1  NON d   1      29.050 -14.065   1.767  0.00  0.00    -0.101 SA
ENDBRANCH   4  15
TORSDOF 4
ENDMDL
MODEL 8
REMARK VINA RESULT:    -5.571      5.749      8.580
REMARK INTER + INTRA:          -7.837
REMARK INTER:                  -6.764
REMARK INTRA:                  -1.073
REMARK CONF_INDEPENDENT:        1.193
REMARK UNBOUND:                -1.073
REMARK  4 active torsions:
REMARK  status: ('A' for Active; 'I' for Inactive)
REMARK    1  A    between atoms: C1_2  and  C2_3 
REMARK       I    between atoms: C1_2  and  N1_16 
REMARK    2  A    between atoms: C3_4  and  C4_5 
REMARK    3  A    between atoms: C7_8  and  C8_9 
REMARK    4  A    between atoms: N1_16  and  O2_17 
ROOT
ATOM      1  C4  NON d   1      25.436 -15.676  -2.383  0.00  0.00    -0.036 A 
ATOM      2  C5  NON d   1      26.769 -15.947  -2.714  0.00  0.00     0.012 A 
ATOM      3  C6  NON d   1      27.419 -15.251  -3.745  0.00  0.00     0.013 A 
ATOM      4  C7  NON d   1      26.766 -14.255  -4.488  0.00  0.00    -0.019 A 
ATOM      5  C12 NON d   1      25.431 -13.991  -4.149  0.00  0.00     0.013 A 
ATOM      6  C13 NON d   1      24.777 -14.685  -3.118  0.00  0.00     0.012 A 
ENDROOT
BRANCH   1   7
ATOM      7  C3  NON d   1      24.812 -16.444  -1.286  0.00  0.00     0.017 C 
ATOM      8  C2  NON d   1      23.909 -17.429  -1.434  0.00  0.00     0.077 C 
BRANCH   8   9
ATOM      9  C1  NON d   1      23.248 -18.228  -0.362  0.00  0.00     0.264 C 
ATOM     10  O1  NON d   1      23.915 -18.549   0.618  0.00  0.00    -0.266 OA
ATOM     11  N1  NON d   1      21.933 -18.550  -0.561  0.00  0.00    -0.234 N 
ATOM     12  H10 NON d   1      21.381 -18.267  -1.358  0.00  0.00     0.197 HD
BRANCH  11  13
ATOM     13  O2  NON d   1      21.311 -19.309   0.451  0.00  0.00    -0.287 OA
ATOM     14  H11 NON d   1      22.050 -19.660   0.976  0.00  0.00     0.244 HD
ENDBRANCH  11  13
ENDBRANCH   8   9
ENDBRANCH   1   7
BRANCH   4  15
ATOM     15  C8  NON d   1      27.480 -13.534  -5.573  0.00  0.00     0.015 A 
ATOM     16  C9  NON d   1      27.420 -12.191  -5.919  0.00  0.00     0.020 A 
ATOM     17  C10 NON d   1      28.250 -11.848  -7.026  0.00  0.00     0.008 A 
ATOM     18  C11 NON d   1      28.931 -12.939  -7.510  0.00  0.00     0.050 A 
ATOM     19  S1  NON d   1      28.569 -14.355  -6.633  0.00  0.00    -0.101 SA
ENDBRANCH   4  15
TORSDOF 4
ENDMDL
MODEL 9
REMARK VINA RESULT:    -5.232      5.624      7.275
REMARK INTER + INTRA:          -7.521
REMARK INTER:                  -6.425
REMARK INTRA:                  -1.096
REMARK CONF_INDEPENDENT:        1.193
REMARK UNBOUND:                -1.096
REMARK  4 active torsions:
REMARK  status: ('A' for Active; 'I' for Inactive)
REMARK    1  A    between atoms: C1_2  and  C2_3 
REMARK       I    between atoms: C1_2  and  N1_16 
REMARK    2  A    between atoms: C3_4  and  C4_5 
REMARK    3  A    between atoms: C7_8  and  C8_9 
REMARK    4  A    between atoms: N1_16  and  O2_17 
ROOT
ATOM      1  C4  NON d   1      25.960 -12.951  -3.734  0.00  0.00    -0.036 A 
ATOM      2  C5  NON d   1      26.269 -12.904  -2.370  0.00  0.00     0.012 A 
ATOM      3  C6  NON d   1      26.209 -14.054  -1.568  0.00  0.00     0.013 A 
ATOM      4  C7  NON d   1      25.838 -15.301  -2.096  0.00  0.00    -0.019 A 
ATOM      5  C12 NON d   1      25.530 -15.339  -3.464  0.00  0.00     0.013 A 
ATOM      6  C13 NON d   1      25.589 -14.189  -4.269  0.00  0.00     0.012 A 
ENDROOT
BRANCH   1   7
ATOM      7  C3  NON d   1      26.046 -11.703  -4.521  0.00  0.00     0.017 C 
ATOM      8  C2  NON d   1      25.530 -10.515  -4.162  0.00  0.00     0.077 C 
BRANCH   8   9
ATOM      9  C1  NON d   1      25.585  -9.231  -4.920  0.00  0.00     0.264 C 
ATOM     10  O1  NON d   1      26.219  -9.205  -5.972  0.00  0.00    -0.266 OA
ATOM     11  N1  NON d   1      24.919  -8.168  -4.374  0.00  0.00    -0.234 N 
ATOM     12  H10 NON d   1      24.381  -8.198  -3.519  0.00  0.00     0.197 HD
BRANCH  11  13
ATOM     13  O2  NON d   1      24.976  -6.954  -5.089  0.00  0.00    -0.287 OA
ATOM     14  H11 NON d   1      25.470  -7.176  -5.896  0.00  0.00     0.244 HD
ENDBRANCH  11  13
ENDBRANCH   8   9
ENDBRANCH   1   7
BRANCH   4  15
ATOM     15  C8  NON d   1      25.783 -16.502  -1.224  0.00  0.00     0.015 A 
ATOM     16  C9  NON d   1      26.761 -17.023  -0.388  0.00  0.00     0.020 A 
ATOM     17  C10 NON d   1      26.353 -18.200   0.305  0.00  0.00     0.008 A 
ATOM     18  C11 NON d   1      25.067 -18.560  -0.015  0.00  0.00     0.050 A 
ATOM     19  S1  NON d   1      24.366 -17.486  -1.138  0.00  0.00    -0.101 SA
ENDBRANCH   4  15
TORSDOF 4
ENDMDL
