MODEL 1
REMARK VINA RESULT:   -32.440      0.000      0.000
REMARK INTER + INTRA:         -39.750
REMARK INTER:                 -37.810
REMARK INTRA:                  -1.941
REMARK CONF_INDEPENDENT:        5.369
REMARK UNBOUND:                -1.941
REMARK  18 active torsions:
REMARK  status: ('A' for Active; 'I' for Inactive)
REMARK       I    between atoms: C1_2  and  N1_3 
REMARK    1  A    between atoms: C1_2  and  O6_32 
REMARK    2  A    between atoms: C2_4  and  N1_3 
REMARK    3  A    between atoms: C2_4  and  C3_5 
REMARK    4  A    between atoms: C2_4  and  C14_19 
REMARK    5  A    between atoms: C3_5  and  C4_6 
REMARK    6  A    between atoms: C4_6  and  C5_7 
REMARK    7  A    between atoms: C5_7  and  C6_8 
REMARK    8  A    between atoms: C6_8  and  C7_9 
REMARK    9  A    between atoms: C7_9  and  C8_10 
REMARK   10  A    between atoms: C8_10  and  S1_11 
REMARK   11  A    between atoms: S1_11  and  S2_12 
REMARK   12  A    between atoms: S2_12  and  C9_13 
REMARK   13  A    between atoms: C14_19  and  O3_21 
REMARK   14  A    between atoms: O3_21  and  C15_22 
REMARK   15  A    between atoms: C15_22  and  C16_23 
REMARK   16  A    between atoms: C19_26  and  N3_27 
REMARK   17  A    between atoms: O6_32  and  C22_33 
REMARK   18  A    between atoms: C22_33  and  C23_34 
ROOT
ATOM      1  C2  NON d   1      27.205 -13.061  -3.939  0.00  0.00     0.186 C 
ENDROOT
BRANCH   1   2
ATOM      2  N1  NON d   1      28.095 -13.936  -4.713  0.00  0.00    -0.323 N 
ATOM      3  C1  NON d   1      27.737 -15.066  -5.373  0.00  0.00     0.361 C 
ATOM      4  O1  NON d   1      26.604 -15.506  -5.487  0.00  0.00    -0.238 OA
ATOM      5  H1  NON d   1      29.074 -13.698  -4.784  0.00  0.00     0.165 HD
BRANCH   3   6
ATOM      6  O6  NON d   1      28.869 -15.692  -5.785  0.00  0.00    -0.299 OA
BRANCH   6   7
ATOM      7  C22 NON d   1      29.711 -16.120  -4.707  0.00  0.00     0.219 C 
BRANCH   7   8
ATOM      8  C23 NON d   1      30.219 -17.533  -4.882  0.00  0.00    -0.034 A 
ATOM      9  C24 NON d   1      30.422 -18.028  -6.183  0.00  0.00     0.009 A 
ATOM     10  C25 NON d   1      30.947 -19.303  -6.389  0.00  0.00     0.001 A 
ATOM     11  C26 NON d   1      31.282 -20.100  -5.298  0.00  0.00     0.000 A 
ATOM     12  C27 NON d   1      31.095 -19.619  -4.002  0.00  0.00     0.001 A 
ATOM     13  C28 NON d   1      30.568 -18.342  -3.794  0.00  0.00     0.009 A 
ENDBRANCH   7   8
ENDBRANCH   6   7
ENDBRANCH   3   6
ENDBRANCH   1   2
BRANCH   1  14
ATOM     14  C3  NON d   1      26.693 -13.756  -2.657  0.00  0.00     0.035 C 
BRANCH  14  15
ATOM     15  C4  NON d   1      25.384 -14.553  -2.785  0.00  0.00     0.002 C 
BRANCH  15  16
ATOM     16  C5  NON d   1      25.436 -16.043  -2.407  0.00  0.00     0.000 C 
BRANCH  16  17
ATOM     17  C6  NON d   1      26.578 -16.524  -1.503  0.00  0.00     0.001 C 
BRANCH  17  18
ATOM     18  C7  NON d   1      26.208 -17.737  -0.645  0.00  0.00     0.011 C 
BRANCH  18  19
ATOM     19  C8  NON d   1      24.858 -17.668   0.066  0.00  0.00     0.086 C 
BRANCH  19  20
ATOM     20  S1  NON d   1      23.715 -18.945  -0.527  0.00  0.00    -0.091 SA
BRANCH  20  21
ATOM     21  S2  NON d   1      21.998 -17.870  -0.884  0.00  0.00    -0.038 SA
BRANCH  21  22
ATOM     22  C9  NON d   1      20.722 -18.938  -0.235  0.00  0.00     0.103 A 
ATOM     23  C10 NON d   1      20.794 -19.323   1.099  0.00  0.00     0.040 A 
ATOM     24  C11 NON d   1      19.778 -20.117   1.622  0.00  0.00     0.004 A 
ATOM     25  C12 NON d   1      18.726 -20.501   0.799  0.00  0.00     0.019 A 
ATOM     26  C13 NON d   1      18.741 -20.084  -0.521  0.00  0.00     0.118 A 
ATOM     27  N2  NON d   1      19.718 -19.325  -1.056  0.00  0.00    -0.253 NA
ENDBRANCH  21  22
ENDBRANCH  20  21
ENDBRANCH  19  20
ENDBRANCH  18  19
ENDBRANCH  17  18
ENDBRANCH  16  17
ENDBRANCH  15  16
ENDBRANCH  14  15
ENDBRANCH   1  14
BRANCH   1  28
ATOM     28  C14 NON d   1      27.662 -11.582  -3.801  0.00  0.00     0.282 C 
ATOM     29  O2  NON d   1      28.381 -11.025  -4.626  0.00  0.00    -0.263 OA
BRANCH  28  30
ATOM     30  O3  NON d   1      27.218 -10.960  -2.675  0.00  0.00    -0.315 OA
BRANCH  30  31
ATOM     31  C15 NON d   1      27.254  -9.528  -2.762  0.00  0.00     0.217 C 
BRANCH  31  32
ATOM     32  C16 NON d   1      27.054  -8.852  -1.420  0.00  0.00    -0.034 A 
ATOM     33  C17 NON d   1      27.030  -9.640  -0.255  0.00  0.00     0.012 A 
ATOM     34  C18 NON d   1      26.768  -9.069   0.995  0.00  0.00     0.037 A 
ATOM     35  C19 NON d   1      26.525  -7.693   1.086  0.00  0.00     0.102 A 
ATOM     36  C20 NON d   1      26.569  -6.890  -0.057  0.00  0.00     0.037 A 
ATOM     37  C21 NON d   1      26.829  -7.475  -1.301  0.00  0.00     0.012 A 
BRANCH  35  38
ATOM     38  N3  NON d   1      26.194  -7.094   2.387  0.00  0.00    -0.116 N 
ATOM     39  O4  NON d   1      25.203  -6.352   2.446  0.00  0.00    -0.532 OA
ATOM     40  O5  NON d   1      26.936  -7.355   3.347  0.00  0.00    -0.532 OA
ENDBRANCH  35  38
ENDBRANCH  31  32
ENDBRANCH  30  31
ENDBRANCH  28  30
ENDBRANCH   1  28
TORSDOF 18
ENDMDL
MODEL 2
REMARK VINA RESULT:   -32.417      4.156      7.814
REMARK INTER + INTRA:         -40.032
REMARK INTER:                 -37.787
REMARK INTRA:                  -2.245
REMARK CONF_INDEPENDENT:        5.369
REMARK UNBOUND:                -2.245
REMARK  18 active torsions:
REMARK  status: ('A' for Active; 'I' for Inactive)
REMARK       I    between atoms: C1_2  and  N1_3 
REMARK    1  A    between atoms: C1_2  and  O6_32 
REMARK    2  A    between atoms: C2_4  and  N1_3 
REMARK    3  A    between atoms: C2_4  and  C3_5 
REMARK    4  A    between atoms: C2_4  and  C14_19 
REMARK    5  A    between atoms: C3_5  and  C4_6 
REMARK    6  A    between atoms: C4_6  and  C5_7 
REMARK    7  A    between atoms: C5_7  and  C6_8 
REMARK    8  A    between atoms: C6_8  and  C7_9 
REMARK    9  A    between atoms: C7_9  and  C8_10 
REMARK   10  A    between atoms: C8_10  and  S1_11 
REMARK   11  A    between atoms: S1_11  and  S2_12 
REMARK   12  A    between atoms: S2_12  and  C9_13 
REMARK   13  A    between atoms: C14_19  and  O3_21 
REMARK   14  A    between atoms: O3_21  and  C15_22 
REMARK   15  A    between atoms: C15_22  and  C16_23 
REMARK   16  A    between atoms: C19_26  and  N3_27 
REMARK   17  A    between atoms: O6_32  and  C22_33 
REMARK   18  A    between atoms: C22_33  and  C23_34 
ROOT
ATOM      1  C2  NON d   1      28.030 -13.811   0.902  0.00  0.00     0.186 C 
ENDROOT
BRANCH   1   2
ATOM      2  N1  NON d   1      28.730 -14.235   2.121  0.00  0.00    -0.323 N 
ATOM      3  C1  NON d   1      29.160 -13.428   3.123  0.00  0.00     0.361 C 
ATOM      4  O1  NON d   1      28.977 -12.225   3.209  0.00  0.00    -0.238 OA
ATOM      5  H1  NON d   1      28.921 -15.218   2.258  0.00  0.00     0.165 HD
BRANCH   3   6
ATOM      6  O6  NON d   1      29.934 -14.167   3.959  0.00  0.00    -0.299 OA
BRANCH   6   7
ATOM      7  C22 NON d   1      29.203 -14.765   5.037  0.00  0.00     0.219 C 
BRANCH   7   8
ATOM      8  C23 NON d   1      29.079 -13.855   6.239  0.00  0.00    -0.034 A 
ATOM      9  C24 NON d   1      29.938 -14.053   7.335  0.00  0.00     0.009 A 
ATOM     10  C25 NON d   1      29.900 -13.200   8.437  0.00  0.00     0.001 A 
ATOM     11  C26 NON d   1      29.007 -12.132   8.456  0.00  0.00     0.000 A 
ATOM     12  C27 NON d   1      28.155 -11.917   7.373  0.00  0.00     0.001 A 
ATOM     13  C28 NON d   1      28.192 -12.773   6.269  0.00  0.00     0.009 A 
ENDBRANCH   7   8
ENDBRANCH   6   7
ENDBRANCH   3   6
ENDBRANCH   1   2
BRANCH   1  14
ATOM     14  C3  NON d   1      26.841 -14.743   0.571  0.00  0.00     0.035 C 
BRANCH  14  15
ATOM     15  C4  NON d   1      26.518 -14.942  -0.918  0.00  0.00     0.002 C 
BRANCH  15  16
ATOM     16  C5  NON d   1      27.092 -16.196  -1.595  0.00  0.00     0.000 C 
BRANCH  16  17
ATOM     17  C6  NON d   1      27.582 -17.345  -0.703  0.00  0.00     0.001 C 
BRANCH  17  18
ATOM     18  C7  NON d   1      26.489 -17.925   0.199  0.00  0.00     0.011 C 
BRANCH  18  19
ATOM     19  C8  NON d   1      25.056 -17.527  -0.144  0.00  0.00     0.086 C 
BRANCH  19  20
ATOM     20  S1  NON d   1      23.927 -18.945  -0.085  0.00  0.00    -0.091 SA
BRANCH  20  21
ATOM     21  S2  NON d   1      22.366 -18.317  -1.270  0.00  0.00    -0.038 SA
BRANCH  21  22
ATOM     22  C9  NON d   1      20.956 -19.111  -0.517  0.00  0.00     0.103 A 
ATOM     23  C10 NON d   1      21.033 -19.469   0.825  0.00  0.00     0.040 A 
ATOM     24  C11 NON d   1      19.920 -20.045   1.429  0.00  0.00     0.004 A 
ATOM     25  C12 NON d   1      18.769 -20.247   0.677  0.00  0.00     0.019 A 
ATOM     26  C13 NON d   1      18.783 -19.874  -0.656  0.00  0.00     0.118 A 
ATOM     27  N2  NON d   1      19.851 -19.324  -1.268  0.00  0.00    -0.253 NA
ENDBRANCH  21  22
ENDBRANCH  20  21
ENDBRANCH  19  20
ENDBRANCH  18  19
ENDBRANCH  17  18
ENDBRANCH  16  17
ENDBRANCH  15  16
ENDBRANCH  14  15
ENDBRANCH   1  14
BRANCH   1  28
ATOM     28  C14 NON d   1      27.785 -12.284   0.758  0.00  0.00     0.282 C 
ATOM     29  O2  NON d   1      26.926 -11.682   1.396  0.00  0.00    -0.263 OA
BRANCH  28  30
ATOM     30  O3  NON d   1      28.587 -11.670  -0.155  0.00  0.00    -0.315 OA
BRANCH  30  31
ATOM     31  C15 NON d   1      27.864 -11.096  -1.254  0.00  0.00     0.217 C 
BRANCH  31  32
ATOM     32  C16 NON d   1      27.594 -12.093  -2.364  0.00  0.00    -0.034 A 
ATOM     33  C17 NON d   1      26.265 -12.348  -2.744  0.00  0.00     0.012 A 
ATOM     34  C18 NON d   1      25.965 -13.317  -3.708  0.00  0.00     0.037 A 
ATOM     35  C19 NON d   1      27.004 -14.045  -4.300  0.00  0.00     0.102 A 
ATOM     36  C20 NON d   1      28.334 -13.788  -3.952  0.00  0.00     0.037 A 
ATOM     37  C21 NON d   1      28.619 -12.818  -2.986  0.00  0.00     0.012 A 
BRANCH  35  38
ATOM     38  N3  NON d   1      26.695 -15.103  -5.271  0.00  0.00    -0.116 N 
ATOM     39  O4  NON d   1      25.525 -15.510  -5.330  0.00  0.00    -0.532 OA
ATOM     40  O5  NON d   1      27.626 -15.538  -5.965  0.00  0.00    -0.532 OA
ENDBRANCH  35  38
ENDBRANCH  31  32
ENDBRANCH  30  31
ENDBRANCH  28  30
ENDBRANCH   1  28
TORSDOF 18
ENDMDL
MODEL 3
REMARK VINA RESULT:   -32.264      4.710      7.412
REMARK INTER + INTRA:         -39.798
REMARK INTER:                 -37.634
REMARK INTRA:                  -2.164
REMARK CONF_INDEPENDENT:        5.369
REMARK UNBOUND:                -2.164
REMARK  18 active torsions:
REMARK  status: ('A' for Active; 'I' for Inactive)
REMARK       I    between atoms: C1_2  and  N1_3 
REMARK    1  A    between atoms: C1_2  and  O6_32 
REMARK    2  A    between atoms: C2_4  and  N1_3 
REMARK    3  A    between atoms: C2_4  and  C3_5 
REMARK    4  A    between atoms: C2_4  and  C14_19 
REMARK    5  A    between atoms: C3_5  and  C4_6 
REMARK    6  A    between atoms: C4_6  and  C5_7 
REMARK    7  A    between atoms: C5_7  and  C6_8 
REMARK    8  A    between atoms: C6_8  and  C7_9 
REMARK    9  A    between atoms: C7_9  and  C8_10 
REMARK   10  A    between atoms: C8_10  and  S1_11 
REMARK   11  A    between atoms: S1_11  and  S2_12 
REMARK   12  A    between atoms: S2_12  and  C9_13 
REMARK   13  A    between atoms: C14_19  and  O3_21 
REMARK   14  A    between atoms: O3_21  and  C15_22 
REMARK   15  A    between atoms: C15_22  and  C16_23 
REMARK   16  A    between atoms: C19_26  and  N3_27 
REMARK   17  A    between atoms: O6_32  and  C22_33 
REMARK   18  A    between atoms: C22_33  and  C23_34 
ROOT
ATOM      1  C2  NON d   1      28.768 -14.424   1.826  0.00  0.00     0.186 C 
ENDROOT
BRANCH   1   2
ATOM      2  N1  NON d   1      28.723 -14.817   3.240  0.00  0.00    -0.323 N 
ATOM      3  C1  NON d   1      27.753 -14.497   4.134  0.00  0.00     0.361 C 
ATOM      4  O1  NON d   1      26.725 -13.885   3.893  0.00  0.00    -0.238 OA
ATOM      5  H1  NON d   1      29.471 -15.385   3.614  0.00  0.00     0.165 HD
BRANCH   3   6
ATOM      6  O6  NON d   1      28.177 -14.868   5.369  0.00  0.00    -0.299 OA
BRANCH   6   7
ATOM      7  C22 NON d   1      29.365 -14.189   5.795  0.00  0.00     0.219 C 
BRANCH   7   8
ATOM      8  C23 NON d   1      29.187 -13.457   7.106  0.00  0.00    -0.034 A 
ATOM      9  C24 NON d   1      28.902 -12.080   7.084  0.00  0.00     0.009 A 
ATOM     10  C25 NON d   1      28.669 -11.379   8.267  0.00  0.00     0.001 A 
ATOM     11  C26 NON d   1      28.711 -12.047   9.488  0.00  0.00     0.000 A 
ATOM     12  C27 NON d   1      28.983 -13.414   9.525  0.00  0.00     0.001 A 
ATOM     13  C28 NON d   1      29.217 -14.117   8.341  0.00  0.00     0.009 A 
ENDBRANCH   7   8
ENDBRANCH   6   7
ENDBRANCH   3   6
ENDBRANCH   1   2
BRANCH   1  14
ATOM     14  C3  NON d   1      27.527 -14.926   1.054  0.00  0.00     0.035 C 
BRANCH  14  15
ATOM     15  C4  NON d   1      27.683 -16.251   0.289  0.00  0.00     0.002 C 
BRANCH  15  16
ATOM     16  C5  NON d   1      27.323 -16.240  -1.205  0.00  0.00     0.000 C 
BRANCH  16  17
ATOM     17  C6  NON d   1      25.853 -16.439  -1.600  0.00  0.00     0.001 C 
BRANCH  17  18
ATOM     18  C7  NON d   1      24.898 -16.471  -0.404  0.00  0.00     0.011 C 
BRANCH  18  19
ATOM     19  C8  NON d   1      24.807 -17.799   0.344  0.00  0.00     0.086 C 
BRANCH  19  20
ATOM     20  S1  NON d   1      23.759 -18.996  -0.527  0.00  0.00    -0.091 SA
BRANCH  20  21
ATOM     21  S2  NON d   1      22.054 -17.903  -0.896  0.00  0.00    -0.038 SA
BRANCH  21  22
ATOM     22  C9  NON d   1      20.766 -18.950  -0.240  0.00  0.00     0.103 A 
ATOM     23  C10 NON d   1      20.836 -19.331   1.096  0.00  0.00     0.040 A 
ATOM     24  C11 NON d   1      19.809 -20.109   1.623  0.00  0.00     0.004 A 
ATOM     25  C12 NON d   1      18.750 -20.480   0.805  0.00  0.00     0.019 A 
ATOM     26  C13 NON d   1      18.767 -20.069  -0.517  0.00  0.00     0.118 A 
ATOM     27  N2  NON d   1      19.754 -19.325  -1.057  0.00  0.00    -0.253 NA
ENDBRANCH  21  22
ENDBRANCH  20  21
ENDBRANCH  19  20
ENDBRANCH  18  19
ENDBRANCH  17  18
ENDBRANCH  16  17
ENDBRANCH  15  16
ENDBRANCH  14  15
ENDBRANCH   1  14
BRANCH   1  28
ATOM     28  C14 NON d   1      29.232 -12.968   1.542  0.00  0.00     0.282 C 
ATOM     29  O2  NON d   1      30.222 -12.468   2.068  0.00  0.00    -0.263 OA
BRANCH  28  30
ATOM     30  O3  NON d   1      28.433 -12.283   0.679  0.00  0.00    -0.315 OA
BRANCH  30  31
ATOM     31  C15 NON d   1      27.133 -11.994   1.214  0.00  0.00     0.217 C 
BRANCH  31  32
ATOM     32  C16 NON d   1      27.130 -10.786   2.131  0.00  0.00    -0.034 A 
ATOM     33  C17 NON d   1      26.433  -9.630   1.736  0.00  0.00     0.012 A 
ATOM     34  C18 NON d   1      26.470  -8.467   2.513  0.00  0.00     0.037 A 
ATOM     35  C19 NON d   1      27.212  -8.454   3.700  0.00  0.00     0.102 A 
ATOM     36  C20 NON d   1      27.892  -9.602   4.120  0.00  0.00     0.037 A 
ATOM     37  C21 NON d   1      27.849 -10.756   3.333  0.00  0.00     0.012 A 
BRANCH  35  38
ATOM     38  N3  NON d   1      27.302  -7.221   4.493  0.00  0.00    -0.116 N 
ATOM     39  O4  NON d   1      28.010  -7.238   5.510  0.00  0.00    -0.532 OA
ATOM     40  O5  NON d   1      26.652  -6.238   4.105  0.00  0.00    -0.532 OA
ENDBRANCH  35  38
ENDBRANCH  31  32
ENDBRANCH  30  31
ENDBRANCH  28  30
ENDBRANCH   1  28
TORSDOF 18
ENDMDL
MODEL 4
REMARK VINA RESULT:   -32.009      4.373      7.131
REMARK INTER + INTRA:         -40.230
REMARK INTER:                 -37.379
REMARK INTRA:                  -2.851
REMARK CONF_INDEPENDENT:        5.369
REMARK UNBOUND:                -2.851
REMARK  18 active torsions:
REMARK  status: ('A' for Active; 'I' for Inactive)
REMARK       I    between atoms: C1_2  and  N1_3 
REMARK    1  A    between atoms: C1_2  and  O6_32 
REMARK    2  A    between atoms: C2_4  and  N1_3 
REMARK    3  A    between atoms: C2_4  and  C3_5 
REMARK    4  A    between atoms: C2_4  and  C14_19 
REMARK    5  A    between atoms: C3_5  and  C4_6 
REMARK    6  A    between atoms: C4_6  and  C5_7 
REMARK    7  A    between atoms: C5_7  and  C6_8 
REMARK    8  A    between atoms: C6_8  and  C7_9 
REMARK    9  A    between atoms: C7_9  and  C8_10 
REMARK   10  A    between atoms: C8_10  and  S1_11 
REMARK   11  A    between atoms: S1_11  and  S2_12 
REMARK   12  A    between atoms: S2_12  and  C9_13 
REMARK   13  A    between atoms: C14_19  and  O3_21 
REMARK   14  A    between atoms: O3_21  and  C15_22 
REMARK   15  A    between atoms: C15_22  and  C16_23 
REMARK   16  A    between atoms: C19_26  and  N3_27 
REMARK   17  A    between atoms: O6_32  and  C22_33 
REMARK   18  A    between atoms: C22_33  and  C23_34 
ROOT
ATOM      1  C2  NON d   1      28.904 -14.566   1.833  0.00  0.00     0.186 C 
ENDROOT
BRANCH   1   2
ATOM      2  N1  NON d   1      28.288 -14.827   3.139  0.00  0.00    -0.323 N 
ATOM      3  C1  NON d   1      27.624 -13.928   3.911  0.00  0.00     0.361 C 
ATOM      4  O1  NON d   1      27.374 -12.771   3.614  0.00  0.00    -0.238 OA
ATOM      5  H1  NON d   1      28.341 -15.758   3.528  0.00  0.00     0.165 HD
BRANCH   3   6
ATOM      6  O6  NON d   1      27.391 -14.499   5.119  0.00  0.00    -0.299 OA
BRANCH   6   7
ATOM      7  C22 NON d   1      28.540 -14.521   5.975  0.00  0.00     0.219 C 
BRANCH   7   8
ATOM      8  C23 NON d   1      28.933 -13.146   6.467  0.00  0.00    -0.034 A 
ATOM      9  C24 NON d   1      29.713 -12.321   5.636  0.00  0.00     0.009 A 
ATOM     10  C25 NON d   1      30.045 -11.024   6.024  0.00  0.00     0.001 A 
ATOM     11  C26 NON d   1      29.598 -10.530   7.246  0.00  0.00     0.000 A 
ATOM     12  C27 NON d   1      28.816 -11.332   8.077  0.00  0.00     0.001 A 
ATOM     13  C28 NON d   1      28.483 -12.633   7.689  0.00  0.00     0.009 A 
ENDBRANCH   7   8
ENDBRANCH   6   7
ENDBRANCH   3   6
ENDBRANCH   1   2
BRANCH   1  14
ATOM     14  C3  NON d   1      27.841 -14.342   0.733  0.00  0.00     0.035 C 
BRANCH  14  15
ATOM     15  C4  NON d   1      28.118 -14.992  -0.632  0.00  0.00     0.002 C 
BRANCH  15  16
ATOM     16  C5  NON d   1      27.493 -16.373  -0.887  0.00  0.00     0.000 C 
BRANCH  16  17
ATOM     17  C6  NON d   1      27.383 -17.350   0.292  0.00  0.00     0.001 C 
BRANCH  17  18
ATOM     18  C7  NON d   1      26.230 -18.346   0.153  0.00  0.00     0.011 C 
BRANCH  18  19
ATOM     19  C8  NON d   1      24.969 -17.821  -0.530  0.00  0.00     0.086 C 
BRANCH  19  20
ATOM     20  S1  NON d   1      23.630 -19.043  -0.510  0.00  0.00    -0.091 SA
BRANCH  20  21
ATOM     21  S2  NON d   1      21.953 -17.864  -0.690  0.00  0.00    -0.038 SA
BRANCH  21  22
ATOM     22  C9  NON d   1      20.649 -18.943  -0.120  0.00  0.00     0.103 A 
ATOM     23  C10 NON d   1      20.655 -19.345   1.212  0.00  0.00     0.040 A 
ATOM     24  C11 NON d   1      19.615 -20.147   1.672  0.00  0.00     0.004 A 
ATOM     25  C12 NON d   1      18.608 -20.523   0.792  0.00  0.00     0.019 A 
ATOM     26  C13 NON d   1      18.689 -20.090  -0.520  0.00  0.00     0.118 A 
ATOM     27  N2  NON d   1      19.689 -19.322  -0.995  0.00  0.00    -0.253 NA
ENDBRANCH  21  22
ENDBRANCH  20  21
ENDBRANCH  19  20
ENDBRANCH  18  19
ENDBRANCH  17  18
ENDBRANCH  16  17
ENDBRANCH  15  16
ENDBRANCH  14  15
ENDBRANCH   1  14
BRANCH   1  28
ATOM     28  C14 NON d   1      30.121 -13.599   1.839  0.00  0.00     0.282 C 
ATOM     29  O2  NON d   1      30.807 -13.397   2.837  0.00  0.00    -0.263 OA
BRANCH  28  30
ATOM     30  O3  NON d   1      30.350 -12.977   0.651  0.00  0.00    -0.315 OA
BRANCH  30  31
ATOM     31  C15 NON d   1      30.709 -11.594   0.793  0.00  0.00     0.217 C 
BRANCH  31  32
ATOM     32  C16 NON d   1      29.541 -10.724   1.214  0.00  0.00    -0.034 A 
ATOM     33  C17 NON d   1      29.371 -10.423   2.578  0.00  0.00     0.012 A 
ATOM     34  C18 NON d   1      28.264  -9.691   3.020  0.00  0.00     0.037 A 
ATOM     35  C19 NON d   1      27.312  -9.253   2.092  0.00  0.00     0.102 A 
ATOM     36  C20 NON d   1      27.478  -9.522   0.730  0.00  0.00     0.037 A 
ATOM     37  C21 NON d   1      28.587 -10.257   0.302  0.00  0.00     0.012 A 
BRANCH  35  38
ATOM     38  N3  NON d   1      26.118  -8.532   2.554  0.00  0.00    -0.116 N 
ATOM     39  O4  NON d   1      26.281  -7.419   3.075  0.00  0.00    -0.532 OA
ATOM     40  O5  NON d   1      25.018  -9.087   2.411  0.00  0.00    -0.532 OA
ENDBRANCH  35  38
ENDBRANCH  31  32
ENDBRANCH  30  31
ENDBRANCH  28  30
ENDBRANCH   1  28
TORSDOF 18
ENDMDL
MODEL 5
REMARK VINA RESULT:   -31.629      2.596      4.045
REMARK INTER + INTRA:         -39.426
REMARK INTER:                 -36.998
REMARK INTRA:                  -2.428
REMARK CONF_INDEPENDENT:        5.369
REMARK UNBOUND:                -2.428
REMARK  18 active torsions:
REMARK  status: ('A' for Active; 'I' for Inactive)
REMARK       I    between atoms: C1_2  and  N1_3 
REMARK    1  A    between atoms: C1_2  and  O6_32 
REMARK    2  A    between atoms: C2_4  and  N1_3 
REMARK    3  A    between atoms: C2_4  and  C3_5 
REMARK    4  A    between atoms: C2_4  and  C14_19 
REMARK    5  A    between atoms: C3_5  and  C4_6 
REMARK    6  A    between atoms: C4_6  and  C5_7 
REMARK    7  A    between atoms: C5_7  and  C6_8 
REMARK    8  A    between atoms: C6_8  and  C7_9 
REMARK    9  A    between atoms: C7_9  and  C8_10 
REMARK   10  A    between atoms: C8_10  and  S1_11 
REMARK   11  A    between atoms: S1_11  and  S2_12 
REMARK   12  A    between atoms: S2_12  and  C9_13 
REMARK   13  A    between atoms: C14_19  and  O3_21 
REMARK   14  A    between atoms: O3_21  and  C15_22 
REMARK   15  A    between atoms: C15_22  and  C16_23 
REMARK   16  A    between atoms: C19_26  and  N3_27 
REMARK   17  A    between atoms: O6_32  and  C22_33 
REMARK   18  A    between atoms: C22_33  and  C23_34 
ROOT
ATOM      1  C2  NON d   1      29.684 -14.536  -1.132  0.00  0.00     0.186 C 
ENDROOT
BRANCH   1   2
ATOM      2  N1  NON d   1      29.827 -14.175  -2.548  0.00  0.00    -0.323 N 
ATOM      3  C1  NON d   1      29.515 -14.957  -3.613  0.00  0.00     0.361 C 
ATOM      4  O1  NON d   1      29.002 -16.064  -3.569  0.00  0.00    -0.238 OA
ATOM      5  H1  NON d   1      30.186 -13.261  -2.786  0.00  0.00     0.165 HD
BRANCH   3   6
ATOM      6  O6  NON d   1      29.981 -14.350  -4.734  0.00  0.00    -0.299 OA
BRANCH   6   7
ATOM      7  C22 NON d   1      28.944 -13.882  -5.605  0.00  0.00     0.219 C 
BRANCH   7   8
ATOM      8  C23 NON d   1      27.601 -13.778  -4.918  0.00  0.00    -0.034 A 
ATOM      9  C24 NON d   1      26.683 -14.835  -5.052  0.00  0.00     0.009 A 
ATOM     10  C25 NON d   1      25.458 -14.809  -4.385  0.00  0.00     0.001 A 
ATOM     11  C26 NON d   1      25.137 -13.728  -3.570  0.00  0.00     0.000 A 
ATOM     12  C27 NON d   1      26.040 -12.676  -3.419  0.00  0.00     0.001 A 
ATOM     13  C28 NON d   1      27.267 -12.701  -4.087  0.00  0.00     0.009 A 
ENDBRANCH   7   8
ENDBRANCH   6   7
ENDBRANCH   3   6
ENDBRANCH   1   2
BRANCH   1  14
ATOM     14  C3  NON d   1      29.864 -16.055  -0.908  0.00  0.00     0.035 C 
BRANCH  14  15
ATOM     15  C4  NON d   1      28.668 -16.950  -1.269  0.00  0.00     0.002 C 
BRANCH  15  16
ATOM     16  C5  NON d   1      27.318 -16.605  -0.620  0.00  0.00     0.000 C 
BRANCH  16  17
ATOM     17  C6  NON d   1      26.582 -17.705   0.157  0.00  0.00     0.001 C 
BRANCH  17  18
ATOM     18  C7  NON d   1      25.073 -17.727  -0.098  0.00  0.00     0.011 C 
BRANCH  18  19
ATOM     19  C8  NON d   1      24.384 -16.365  -0.157  0.00  0.00     0.086 C 
BRANCH  19  20
ATOM     20  S1  NON d   1      22.601 -16.522  -0.449  0.00  0.00    -0.091 SA
BRANCH  20  21
ATOM     21  S2  NON d   1      22.451 -18.403  -1.271  0.00  0.00    -0.038 SA
BRANCH  21  22
ATOM     22  C9  NON d   1      21.007 -19.072  -0.463  0.00  0.00     0.103 A 
ATOM     23  C10 NON d   1      21.056 -19.293   0.909  0.00  0.00     0.040 A 
ATOM     24  C11 NON d   1      19.917 -19.770   1.551  0.00  0.00     0.004 A 
ATOM     25  C12 NON d   1      18.769 -20.011   0.806  0.00  0.00     0.019 A 
ATOM     26  C13 NON d   1      18.812 -19.776  -0.558  0.00  0.00     0.118 A 
ATOM     27  N2  NON d   1      19.905 -19.325  -1.206  0.00  0.00    -0.253 NA
ENDBRANCH  21  22
ENDBRANCH  20  21
ENDBRANCH  19  20
ENDBRANCH  18  19
ENDBRANCH  17  18
ENDBRANCH  16  17
ENDBRANCH  15  16
ENDBRANCH  14  15
ENDBRANCH   1  14
BRANCH   1  28
ATOM     28  C14 NON d   1      30.382 -13.588  -0.118  0.00  0.00     0.282 C 
ATOM     29  O2  NON d   1      31.169 -12.709  -0.458  0.00  0.00    -0.263 OA
BRANCH  28  30
ATOM     30  O3  NON d   1      30.067 -13.829   1.184  0.00  0.00    -0.315 OA
BRANCH  30  31
ATOM     31  C15 NON d   1      28.654 -13.851   1.434  0.00  0.00     0.217 C 
BRANCH  31  32
ATOM     32  C16 NON d   1      28.075 -12.468   1.663  0.00  0.00    -0.034 A 
ATOM     33  C17 NON d   1      27.912 -12.006   2.981  0.00  0.00     0.012 A 
ATOM     34  C18 NON d   1      27.309 -10.771   3.241  0.00  0.00     0.037 A 
ATOM     35  C19 NON d   1      26.861  -9.985   2.173  0.00  0.00     0.102 A 
ATOM     36  C20 NON d   1      27.037 -10.417   0.855  0.00  0.00     0.037 A 
ATOM     37  C21 NON d   1      27.638 -11.655   0.610  0.00  0.00     0.012 A 
BRANCH  35  38
ATOM     38  N3  NON d   1      26.176  -8.712   2.439  0.00  0.00    -0.116 N 
ATOM     39  O4  NON d   1      26.648  -7.974   3.317  0.00  0.00    -0.532 OA
ATOM     40  O5  NON d   1      25.157  -8.457   1.779  0.00  0.00    -0.532 OA
ENDBRANCH  35  38
ENDBRANCH  31  32
ENDBRANCH  30  31
ENDBRANCH  28  30
ENDBRANCH   1  28
TORSDOF 18
ENDMDL
MODEL 6
REMARK VINA RESULT:   -31.496      3.557      6.113
REMARK INTER + INTRA:         -39.874
REMARK INTER:                 -36.865
REMARK INTRA:                  -3.009
REMARK CONF_INDEPENDENT:        5.369
REMARK UNBOUND:                -3.009
REMARK  18 active torsions:
REMARK  status: ('A' for Active; 'I' for Inactive)
REMARK       I    between atoms: C1_2  and  N1_3 
REMARK    1  A    between atoms: C1_2  and  O6_32 
REMARK    2  A    between atoms: C2_4  and  N1_3 
REMARK    3  A    between atoms: C2_4  and  C3_5 
REMARK    4  A    between atoms: C2_4  and  C14_19 
REMARK    5  A    between atoms: C3_5  and  C4_6 
REMARK    6  A    between atoms: C4_6  and  C5_7 
REMARK    7  A    between atoms: C5_7  and  C6_8 
REMARK    8  A    between atoms: C6_8  and  C7_9 
REMARK    9  A    between atoms: C7_9  and  C8_10 
REMARK   10  A    between atoms: C8_10  and  S1_11 
REMARK   11  A    between atoms: S1_11  and  S2_12 
REMARK   12  A    between atoms: S2_12  and  C9_13 
REMARK   13  A    between atoms: C14_19  and  O3_21 
REMARK   14  A    between atoms: O3_21  and  C15_22 
REMARK   15  A    between atoms: C15_22  and  C16_23 
REMARK   16  A    between atoms: C19_26  and  N3_27 
REMARK   17  A    between atoms: O6_32  and  C22_33 
REMARK   18  A    between atoms: C22_33  and  C23_34 
ROOT
ATOM      1  C2  NON d   1      29.103 -14.852   0.443  0.00  0.00     0.186 C 
ENDROOT
BRANCH   1   2
ATOM      2  N1  NON d   1      28.128 -14.382   1.434  0.00  0.00    -0.323 N 
ATOM      3  C1  NON d   1      27.111 -13.510   1.211  0.00  0.00     0.361 C 
ATOM      4  O1  NON d   1      26.799 -13.027   0.135  0.00  0.00    -0.238 OA
ATOM      5  H1  NON d   1      28.190 -14.724   2.382  0.00  0.00     0.165 HD
BRANCH   3   6
ATOM      6  O6  NON d   1      26.572 -13.174   2.410  0.00  0.00    -0.299 OA
BRANCH   6   7
ATOM      7  C22 NON d   1      27.323 -12.178   3.117  0.00  0.00     0.219 C 
BRANCH   7   8
ATOM      8  C23 NON d   1      27.889 -12.684   4.424  0.00  0.00    -0.034 A 
ATOM      9  C24 NON d   1      28.162 -11.763   5.451  0.00  0.00     0.009 A 
ATOM     10  C25 NON d   1      28.627 -12.193   6.693  0.00  0.00     0.001 A 
ATOM     11  C26 NON d   1      28.818 -13.552   6.929  0.00  0.00     0.000 A 
ATOM     12  C27 NON d   1      28.543 -14.478   5.924  0.00  0.00     0.001 A 
ATOM     13  C28 NON d   1      28.078 -14.048   4.678  0.00  0.00     0.009 A 
ENDBRANCH   7   8
ENDBRANCH   6   7
ENDBRANCH   3   6
ENDBRANCH   1   2
BRANCH   1  14
ATOM     14  C3  NON d   1      28.490 -15.908  -0.506  0.00  0.00     0.035 C 
BRANCH  14  15
ATOM     15  C4  NON d   1      28.261 -17.309   0.082  0.00  0.00     0.002 C 
BRANCH  15  16
ATOM     16  C5  NON d   1      26.835 -17.644   0.549  0.00  0.00     0.000 C 
BRANCH  16  17
ATOM     17  C6  NON d   1      25.885 -18.324  -0.446  0.00  0.00     0.001 C 
BRANCH  17  18
ATOM     18  C7  NON d   1      25.189 -17.343  -1.393  0.00  0.00     0.011 C 
BRANCH  18  19
ATOM     19  C8  NON d   1      24.448 -16.183  -0.730  0.00  0.00     0.086 C 
BRANCH  19  20
ATOM     20  S1  NON d   1      22.804 -16.678  -0.145  0.00  0.00    -0.091 SA
BRANCH  20  21
ATOM     21  S2  NON d   1      22.377 -18.296  -1.343  0.00  0.00    -0.038 SA
BRANCH  21  22
ATOM     22  C9  NON d   1      20.965 -19.026  -0.530  0.00  0.00     0.103 A 
ATOM     23  C10 NON d   1      21.030 -19.246   0.842  0.00  0.00     0.040 A 
ATOM     24  C11 NON d   1      19.914 -19.772   1.487  0.00  0.00     0.004 A 
ATOM     25  C12 NON d   1      18.775 -20.060   0.746  0.00  0.00     0.019 A 
ATOM     26  C13 NON d   1      18.802 -19.822  -0.617  0.00  0.00     0.118 A 
ATOM     27  N2  NON d   1      19.872 -19.325  -1.269  0.00  0.00    -0.253 NA
ENDBRANCH  21  22
ENDBRANCH  20  21
ENDBRANCH  19  20
ENDBRANCH  18  19
ENDBRANCH  17  18
ENDBRANCH  16  17
ENDBRANCH  15  16
ENDBRANCH  14  15
ENDBRANCH   1  14
BRANCH   1  28
ATOM     28  C14 NON d   1      29.993 -13.756  -0.207  0.00  0.00     0.282 C 
ATOM     29  O2  NON d   1      31.188 -13.630   0.045  0.00  0.00    -0.263 OA
BRANCH  28  30
ATOM     30  O3  NON d   1      29.330 -12.930  -1.062  0.00  0.00    -0.315 OA
BRANCH  30  31
ATOM     31  C15 NON d   1      29.804 -11.575  -1.027  0.00  0.00     0.217 C 
BRANCH  31  32
ATOM     32  C16 NON d   1      28.862 -10.642  -0.292  0.00  0.00    -0.034 A 
ATOM     33  C17 NON d   1      29.214 -10.188   0.992  0.00  0.00     0.012 A 
ATOM     34  C18 NON d   1      28.340  -9.390   1.738  0.00  0.00     0.037 A 
ATOM     35  C19 NON d   1      27.096  -9.041   1.199  0.00  0.00     0.102 A 
ATOM     36  C20 NON d   1      26.739  -9.463  -0.086  0.00  0.00     0.037 A 
ATOM     37  C21 NON d   1      27.622 -10.262  -0.819  0.00  0.00     0.012 A 
BRANCH  35  38
ATOM     38  N3  NON d   1      26.149  -8.251   1.997  0.00  0.00    -0.116 N 
ATOM     39  O4  NON d   1      26.318  -8.214   3.225  0.00  0.00    -0.532 OA
ATOM     40  O5  NON d   1      25.226  -7.679   1.397  0.00  0.00    -0.532 OA
ENDBRANCH  35  38
ENDBRANCH  31  32
ENDBRANCH  30  31
ENDBRANCH  28  30
ENDBRANCH   1  28
TORSDOF 18
ENDMDL
MODEL 7
REMARK VINA RESULT:   -31.246      1.757      2.421
REMARK INTER + INTRA:         -39.433
REMARK INTER:                 -36.616
REMARK INTRA:                  -2.817
REMARK CONF_INDEPENDENT:        5.369
REMARK UNBOUND:                -2.817
REMARK  18 active torsions:
REMARK  status: ('A' for Active; 'I' for Inactive)
REMARK       I    between atoms: C1_2  and  N1_3 
REMARK    1  A    between atoms: C1_2  and  O6_32 
REMARK    2  A    between atoms: C2_4  and  N1_3 
REMARK    3  A    between atoms: C2_4  and  C3_5 
REMARK    4  A    between atoms: C2_4  and  C14_19 
REMARK    5  A    between atoms: C3_5  and  C4_6 
REMARK    6  A    between atoms: C4_6  and  C5_7 
REMARK    7  A    between atoms: C5_7  and  C6_8 
REMARK    8  A    between atoms: C6_8  and  C7_9 
REMARK    9  A    between atoms: C7_9  and  C8_10 
REMARK   10  A    between atoms: C8_10  and  S1_11 
REMARK   11  A    between atoms: S1_11  and  S2_12 
REMARK   12  A    between atoms: S2_12  and  C9_13 
REMARK   13  A    between atoms: C14_19  and  O3_21 
REMARK   14  A    between atoms: O3_21  and  C15_22 
REMARK   15  A    between atoms: C15_22  and  C16_23 
REMARK   16  A    between atoms: C19_26  and  N3_27 
REMARK   17  A    between atoms: O6_32  and  C22_33 
REMARK   18  A    between atoms: C22_33  and  C23_34 
ROOT
ATOM      1  C2  NON d   1      27.236 -13.520  -5.347  0.00  0.00     0.186 C 
ENDROOT
BRANCH   1   2
ATOM      2  N1  NON d   1      28.665 -13.841  -5.255  0.00  0.00    -0.323 N 
ATOM      3  C1  NON d   1      29.268 -14.967  -5.715  0.00  0.00     0.361 C 
ATOM      4  O1  NON d   1      28.732 -15.868  -6.340  0.00  0.00    -0.238 OA
ATOM      5  H1  NON d   1      29.289 -13.178  -4.816  0.00  0.00     0.165 HD
BRANCH   3   6
ATOM      6  O6  NON d   1      30.546 -14.979  -5.257  0.00  0.00    -0.299 OA
BRANCH   6   7
ATOM      7  C22 NON d   1      30.712 -14.306  -4.003  0.00  0.00     0.219 C 
BRANCH   7   8
ATOM      8  C23 NON d   1      30.104 -15.063  -2.844  0.00  0.00    -0.034 A 
ATOM      9  C24 NON d   1      29.700 -14.351  -1.700  0.00  0.00     0.009 A 
ATOM     10  C25 NON d   1      29.079 -15.001  -0.634  0.00  0.00     0.001 A 
ATOM     11  C26 NON d   1      28.847 -16.372  -0.699  0.00  0.00     0.000 A 
ATOM     12  C27 NON d   1      29.234 -17.091  -1.830  0.00  0.00     0.001 A 
ATOM     13  C28 NON d   1      29.857 -16.441  -2.898  0.00  0.00     0.009 A 
ENDBRANCH   7   8
ENDBRANCH   6   7
ENDBRANCH   3   6
ENDBRANCH   1   2
BRANCH   1  14
ATOM     14  C3  NON d   1      26.352 -14.729  -4.965  0.00  0.00     0.035 C 
BRANCH  14  15
ATOM     15  C4  NON d   1      26.528 -15.286  -3.542  0.00  0.00     0.002 C 
BRANCH  15  16
ATOM     16  C5  NON d   1      25.559 -14.767  -2.467  0.00  0.00     0.000 C 
BRANCH  16  17
ATOM     17  C6  NON d   1      24.416 -15.685  -2.015  0.00  0.00     0.001 C 
BRANCH  17  18
ATOM     18  C7  NON d   1      24.796 -17.167  -1.988  0.00  0.00     0.011 C 
BRANCH  18  19
ATOM     19  C8  NON d   1      24.987 -17.784  -0.604  0.00  0.00     0.086 C 
BRANCH  19  20
ATOM     20  S1  NON d   1      23.664 -18.958  -0.200  0.00  0.00    -0.091 SA
BRANCH  20  21
ATOM     21  S2  NON d   1      21.967 -17.867  -0.602  0.00  0.00    -0.038 SA
BRANCH  21  22
ATOM     22  C9  NON d   1      20.660 -18.959  -0.064  0.00  0.00     0.103 A 
ATOM     23  C10 NON d   1      20.653 -19.383   1.260  0.00  0.00     0.040 A 
ATOM     24  C11 NON d   1      19.611 -20.196   1.695  0.00  0.00     0.004 A 
ATOM     25  C12 NON d   1      18.613 -20.559   0.798  0.00  0.00     0.019 A 
ATOM     26  C13 NON d   1      18.706 -20.103  -0.505  0.00  0.00     0.118 A 
ATOM     27  N2  NON d   1      19.710 -19.324  -0.956  0.00  0.00    -0.253 NA
ENDBRANCH  21  22
ENDBRANCH  20  21
ENDBRANCH  19  20
ENDBRANCH  18  19
ENDBRANCH  17  18
ENDBRANCH  16  17
ENDBRANCH  15  16
ENDBRANCH  14  15
ENDBRANCH   1  14
BRANCH   1  28
ATOM     28  C14 NON d   1      26.815 -12.135  -4.781  0.00  0.00     0.282 C 
ATOM     29  O2  NON d   1      26.301 -11.260  -5.471  0.00  0.00    -0.263 OA
BRANCH  28  30
ATOM     30  O3  NON d   1      27.085 -11.964  -3.458  0.00  0.00    -0.315 OA
BRANCH  30  31
ATOM     31  C15 NON d   1      27.915 -10.824  -3.189  0.00  0.00     0.217 C 
BRANCH  31  32
ATOM     32  C16 NON d   1      27.445 -10.024  -1.990  0.00  0.00    -0.034 A 
ATOM     33  C17 NON d   1      27.790 -10.462  -0.699  0.00  0.00     0.012 A 
ATOM     34  C18 NON d   1      27.312  -9.800   0.437  0.00  0.00     0.037 A 
ATOM     35  C19 NON d   1      26.475  -8.688   0.285  0.00  0.00     0.102 A 
ATOM     36  C20 NON d   1      26.141  -8.224  -0.991  0.00  0.00     0.037 A 
ATOM     37  C21 NON d   1      26.624  -8.896  -2.117  0.00  0.00     0.012 A 
BRANCH  35  38
ATOM     38  N3  NON d   1      25.923  -8.021   1.472  0.00  0.00    -0.116 N 
ATOM     39  O4  NON d   1      25.149  -7.070   1.293  0.00  0.00    -0.532 OA
ATOM     40  O5  NON d   1      26.276  -8.441   2.586  0.00  0.00    -0.532 OA
ENDBRANCH  35  38
ENDBRANCH  31  32
ENDBRANCH  30  31
ENDBRANCH  28  30
ENDBRANCH   1  28
TORSDOF 18
ENDMDL
MODEL 8
REMARK VINA RESULT:   -31.145      3.780      5.569
REMARK INTER + INTRA:         -39.466
REMARK INTER:                 -36.514
REMARK INTRA:                  -2.952
REMARK CONF_INDEPENDENT:        5.369
REMARK UNBOUND:                -2.952
REMARK  18 active torsions:
REMARK  status: ('A' for Active; 'I' for Inactive)
REMARK       I    between atoms: C1_2  and  N1_3 
REMARK    1  A    between atoms: C1_2  and  O6_32 
REMARK    2  A    between atoms: C2_4  and  N1_3 
REMARK    3  A    between atoms: C2_4  and  C3_5 
REMARK    4  A    between atoms: C2_4  and  C14_19 
REMARK    5  A    between atoms: C3_5  and  C4_6 
REMARK    6  A    between atoms: C4_6  and  C5_7 
REMARK    7  A    between atoms: C5_7  and  C6_8 
REMARK    8  A    between atoms: C6_8  and  C7_9 
REMARK    9  A    between atoms: C7_9  and  C8_10 
REMARK   10  A    between atoms: C8_10  and  S1_11 
REMARK   11  A    between atoms: S1_11  and  S2_12 
REMARK   12  A    between atoms: S2_12  and  C9_13 
REMARK   13  A    between atoms: C14_19  and  O3_21 
REMARK   14  A    between atoms: O3_21  and  C15_22 
REMARK   15  A    between atoms: C15_22  and  C16_23 
REMARK   16  A    between atoms: C19_26  and  N3_27 
REMARK   17  A    between atoms: O6_32  and  C22_33 
REMARK   18  A    between atoms: C22_33  and  C23_34 
ROOT
ATOM      1  C2  NON d   1      29.191 -15.210  -0.107  0.00  0.00     0.186 C 
ENDROOT
BRANCH   1   2
ATOM      2  N1  NON d   1      30.417 -15.245   0.700  0.00  0.00    -0.323 N 
ATOM      3  C1  NON d   1      31.309 -14.233   0.851  0.00  0.00     0.361 C 
ATOM      4  O1  NON d   1      31.205 -13.106   0.394  0.00  0.00    -0.238 OA
ATOM      5  H1  NON d   1      30.644 -16.087   1.209  0.00  0.00     0.165 HD
BRANCH   3   6
ATOM      6  O6  NON d   1      32.398 -14.723   1.497  0.00  0.00    -0.299 OA
BRANCH   6   7
ATOM      7  C22 NON d   1      32.424 -14.405   2.895  0.00  0.00     0.219 C 
BRANCH   7   8
ATOM      8  C23 NON d   1      31.109 -13.857   3.399  0.00  0.00    -0.034 A 
ATOM      9  C24 NON d   1      30.216 -14.723   4.057  0.00  0.00     0.009 A 
ATOM     10  C25 NON d   1      29.020 -14.246   4.592  0.00  0.00     0.001 A 
ATOM     11  C26 NON d   1      28.701 -12.895   4.482  0.00  0.00     0.000 A 
ATOM     12  C27 NON d   1      29.580 -12.023   3.841  0.00  0.00     0.001 A 
ATOM     13  C28 NON d   1      30.778 -12.499   3.303  0.00  0.00     0.009 A 
ENDBRANCH   7   8
ENDBRANCH   6   7
ENDBRANCH   3   6
ENDBRANCH   1   2
BRANCH   1  14
ATOM     14  C3  NON d   1      29.049 -16.474  -0.986  0.00  0.00     0.035 C 
BRANCH  14  15
ATOM     15  C4  NON d   1      28.251 -16.317  -2.290  0.00  0.00     0.002 C 
BRANCH  15  16
ATOM     16  C5  NON d   1      27.017 -15.401  -2.246  0.00  0.00     0.000 C 
BRANCH  16  17
ATOM     17  C6  NON d   1      25.740 -15.932  -1.583  0.00  0.00     0.001 C 
BRANCH  17  18
ATOM     18  C7  NON d   1      25.897 -17.337  -0.993  0.00  0.00     0.011 C 
BRANCH  18  19
ATOM     19  C8  NON d   1      24.938 -17.698   0.139  0.00  0.00     0.086 C 
BRANCH  19  20
ATOM     20  S1  NON d   1      23.756 -18.981  -0.360  0.00  0.00    -0.091 SA
BRANCH  20  21
ATOM     21  S2  NON d   1      22.060 -17.887  -0.763  0.00  0.00    -0.038 SA
BRANCH  21  22
ATOM     22  C9  NON d   1      20.757 -18.941  -0.148  0.00  0.00     0.103 A 
ATOM     23  C10 NON d   1      20.788 -19.324   1.188  0.00  0.00     0.040 A 
ATOM     24  C11 NON d   1      19.749 -20.107   1.683  0.00  0.00     0.004 A 
ATOM     25  C12 NON d   1      18.717 -20.481   0.832  0.00  0.00     0.019 A 
ATOM     26  C13 NON d   1      18.772 -20.067  -0.487  0.00  0.00     0.118 A 
ATOM     27  N2  NON d   1      19.772 -19.318  -0.996  0.00  0.00    -0.253 NA
ENDBRANCH  21  22
ENDBRANCH  20  21
ENDBRANCH  19  20
ENDBRANCH  18  19
ENDBRANCH  17  18
ENDBRANCH  16  17
ENDBRANCH  15  16
ENDBRANCH  14  15
ENDBRANCH   1  14
BRANCH   1  28
ATOM     28  C14 NON d   1      27.912 -14.717   0.625  0.00  0.00     0.282 C 
ATOM     29  O2  NON d   1      27.340 -15.377   1.488  0.00  0.00    -0.263 OA
BRANCH  28  30
ATOM     30  O3  NON d   1      27.462 -13.501   0.212  0.00  0.00    -0.315 OA
BRANCH  30  31
ATOM     31  C15 NON d   1      28.417 -12.446   0.398  0.00  0.00     0.217 C 
BRANCH  31  32
ATOM     32  C16 NON d   1      27.771 -11.127   0.771  0.00  0.00    -0.034 A 
ATOM     33  C17 NON d   1      27.015 -11.047   1.955  0.00  0.00     0.012 A 
ATOM     34  C18 NON d   1      26.336  -9.873   2.297  0.00  0.00     0.037 A 
ATOM     35  C19 NON d   1      26.408  -8.762   1.448  0.00  0.00     0.102 A 
ATOM     36  C20 NON d   1      27.174  -8.816   0.279  0.00  0.00     0.037 A 
ATOM     37  C21 NON d   1      27.846  -9.996  -0.052  0.00  0.00     0.012 A 
BRANCH  35  38
ATOM     38  N3  NON d   1      25.652  -7.544   1.771  0.00  0.00    -0.116 N 
ATOM     39  O4  NON d   1      24.829  -7.137   0.938  0.00  0.00    -0.532 OA
ATOM     40  O5  NON d   1      25.894  -6.986   2.852  0.00  0.00    -0.532 OA
ENDBRANCH  35  38
ENDBRANCH  31  32
ENDBRANCH  30  31
ENDBRANCH  28  30
ENDBRANCH   1  28
TORSDOF 18
ENDMDL
MODEL 9
REMARK VINA RESULT:   -31.006      2.435      4.533
REMARK INTER + INTRA:         -39.317
REMARK INTER:                 -36.376
REMARK INTRA:                  -2.942
REMARK CONF_INDEPENDENT:        5.369
REMARK UNBOUND:                -2.942
REMARK  18 active torsions:
REMARK  status: ('A' for Active; 'I' for Inactive)
REMARK       I    between atoms: C1_2  and  N1_3 
REMARK    1  A    between atoms: C1_2  and  O6_32 
REMARK    2  A    between atoms: C2_4  and  N1_3 
REMARK    3  A    between atoms: C2_4  and  C3_5 
REMARK    4  A    between atoms: C2_4  and  C14_19 
REMARK    5  A    between atoms: C3_5  and  C4_6 
REMARK    6  A    between atoms: C4_6  and  C5_7 
REMARK    7  A    between atoms: C5_7  and  C6_8 
REMARK    8  A    between atoms: C6_8  and  C7_9 
REMARK    9  A    between atoms: C7_9  and  C8_10 
REMARK   10  A    between atoms: C8_10  and  S1_11 
REMARK   11  A    between atoms: S1_11  and  S2_12 
REMARK   12  A    between atoms: S2_12  and  C9_13 
REMARK   13  A    between atoms: C14_19  and  O3_21 
REMARK   14  A    between atoms: O3_21  and  C15_22 
REMARK   15  A    between atoms: C15_22  and  C16_23 
REMARK   16  A    between atoms: C19_26  and  N3_27 
REMARK   17  A    between atoms: O6_32  and  C22_33 
REMARK   18  A    between atoms: C22_33  and  C23_34 
ROOT
ATOM      1  C2  NON d   1      26.516 -14.890  -2.181  0.00  0.00     0.186 C 
ENDROOT
BRANCH   1   2
ATOM      2  N1  NON d   1      26.560 -14.043  -3.379  0.00  0.00    -0.323 N 
ATOM      3  C1  NON d   1      26.820 -14.453  -4.647  0.00  0.00     0.361 C 
ATOM      4  O1  NON d   1      26.995 -15.606  -5.009  0.00  0.00    -0.238 OA
ATOM      5  H1  NON d   1      26.378 -13.053  -3.286  0.00  0.00     0.165 HD
BRANCH   3   6
ATOM      6  O6  NON d   1      26.971 -13.352  -5.426  0.00  0.00    -0.299 OA
BRANCH   6   7
ATOM      7  C22 NON d   1      25.955 -12.362  -5.221  0.00  0.00     0.219 C 
BRANCH   7   8
ATOM      8  C23 NON d   1      26.486 -11.097  -4.587  0.00  0.00    -0.034 A 
ATOM      9  C24 NON d   1      25.612 -10.011  -4.397  0.00  0.00     0.009 A 
ATOM     10  C25 NON d   1      26.044  -8.848  -3.760  0.00  0.00     0.001 A 
ATOM     11  C26 NON d   1      27.354  -8.756  -3.299  0.00  0.00     0.000 A 
ATOM     12  C27 NON d   1      28.230  -9.827  -3.472  0.00  0.00     0.001 A 
ATOM     13  C28 NON d   1      27.799 -10.993  -4.111  0.00  0.00     0.009 A 
ENDBRANCH   7   8
ENDBRANCH   6   7
ENDBRANCH   3   6
ENDBRANCH   1   2
BRANCH   1  14
ATOM     14  C3  NON d   1      27.598 -15.994  -2.222  0.00  0.00     0.035 C 
BRANCH  14  15
ATOM     15  C4  NON d   1      28.427 -16.191  -0.943  0.00  0.00     0.002 C 
BRANCH  15  16
ATOM     16  C5  NON d   1      27.970 -17.300   0.019  0.00  0.00     0.000 C 
BRANCH  16  17
ATOM     17  C6  NON d   1      26.701 -18.088  -0.330  0.00  0.00     0.001 C 
BRANCH  17  18
ATOM     18  C7  NON d   1      25.425 -17.485   0.262  0.00  0.00     0.011 C 
BRANCH  18  19
ATOM     19  C8  NON d   1      24.229 -18.427   0.376  0.00  0.00     0.086 C 
BRANCH  19  20
ATOM     20  S1  NON d   1      23.510 -18.807  -1.246  0.00  0.00    -0.091 SA
BRANCH  20  21
ATOM     21  S2  NON d   1      21.739 -17.758  -1.200  0.00  0.00    -0.038 SA
BRANCH  21  22
ATOM     22  C9  NON d   1      20.621 -18.909  -0.418  0.00  0.00     0.103 A 
ATOM     23  C10 NON d   1      20.898 -19.328   0.879  0.00  0.00     0.040 A 
ATOM     24  C11 NON d   1      20.004 -20.188   1.509  0.00  0.00     0.004 A 
ATOM     25  C12 NON d   1      18.866 -20.603   0.827  0.00  0.00     0.019 A 
ATOM     26  C13 NON d   1      18.675 -20.148  -0.466  0.00  0.00     0.118 A 
ATOM     27  N2  NON d   1      19.530 -19.324  -1.104  0.00  0.00    -0.253 NA
ENDBRANCH  21  22
ENDBRANCH  20  21
ENDBRANCH  19  20
ENDBRANCH  18  19
ENDBRANCH  17  18
ENDBRANCH  16  17
ENDBRANCH  15  16
ENDBRANCH  14  15
ENDBRANCH   1  14
BRANCH   1  28
ATOM     28  C14 NON d   1      26.325 -14.145  -0.831  0.00  0.00     0.282 C 
ATOM     29  O2  NON d   1      26.198 -14.729   0.242  0.00  0.00    -0.263 OA
BRANCH  28  30
ATOM     30  O3  NON d   1      26.284 -12.789  -0.939  0.00  0.00    -0.315 OA
BRANCH  30  31
ATOM     31  C15 NON d   1      27.517 -12.151  -0.573  0.00  0.00     0.217 C 
BRANCH  31  32
ATOM     32  C16 NON d   1      27.310 -10.928   0.298  0.00  0.00    -0.034 A 
ATOM     33  C17 NON d   1      27.317 -11.077   1.697  0.00  0.00     0.012 A 
ATOM     34  C18 NON d   1      27.052  -9.990   2.537  0.00  0.00     0.037 A 
ATOM     35  C19 NON d   1      26.772  -8.738   1.978  0.00  0.00     0.102 A 
ATOM     36  C20 NON d   1      26.784  -8.566   0.590  0.00  0.00     0.037 A 
ATOM     37  C21 NON d   1      27.049  -9.661  -0.238  0.00  0.00     0.012 A 
BRANCH  35  38
ATOM     38  N3  NON d   1      26.437  -7.605   2.851  0.00  0.00    -0.116 N 
ATOM     39  O4  NON d   1      25.594  -6.792   2.445  0.00  0.00    -0.532 OA
ATOM     40  O5  NON d   1      27.029  -7.520   3.938  0.00  0.00    -0.532 OA
ENDBRANCH  35  38
ENDBRANCH  31  32
ENDBRANCH  30  31
ENDBRANCH  28  30
ENDBRANCH   1  28
TORSDOF 18
ENDMDL
