MODEL 1
REMARK VINA RESULT:   -33.792      0.000      0.000
REMARK INTER + INTRA:         -38.276
REMARK INTER:                 -36.179
REMARK INTRA:                  -2.097
REMARK CONF_INDEPENDENT:        2.386
REMARK UNBOUND:                -2.097
REMARK  8 active torsions:
REMARK  status: ('A' for Active; 'I' for Inactive)
REMARK    1  A    between atoms: N1_1  and  C1_2 
REMARK    2  A    between atoms: C6_7  and  N2_8 
REMARK       I    between atoms: N2_8  and  C7_9 
REMARK    3  A    between atoms: C7_9  and  C8_11 
REMARK    4  A    between atoms: C11_14  and  C12_15 
REMARK    5  A    between atoms: C12_15  and  C13_16 
REMARK    6  A    between atoms: C12_15  and  C20_25 
REMARK       I    between atoms: C13_16  and  N3_18 
REMARK    7  A    between atoms: N3_18  and  C14_19 
REMARK       I    between atoms: C20_25  and  N4_27 
REMARK    8  A    between atoms: N4_27  and  C21_28 
ROOT
ATOM      1  C12 NON d   1      26.458 -14.923  -2.246  0.00  0.00     0.203 C 
ENDROOT
BRANCH   1   2
ATOM      2  C11 NON d   1      25.511 -15.960  -1.611  0.00  0.00    -0.036 A 
ATOM      3  C10 NON d   1      25.942 -17.148  -1.003  0.00  0.00     0.009 A 
ATOM      4  C9  NON d   1      25.014 -18.092  -0.536  0.00  0.00     0.017 A 
ATOM      5  C8  NON d   1      23.633 -17.855  -0.610  0.00  0.00     0.032 A 
ATOM      6  C28 NON d   1      23.192 -16.656  -1.173  0.00  0.00     0.017 A 
ATOM      7  C27 NON d   1      24.120 -15.733  -1.675  0.00  0.00     0.009 A 
BRANCH   5   8
ATOM      8  C7  NON d   1      22.703 -18.926  -0.127  0.00  0.00     0.256 C 
ATOM      9  N2  NON d   1      21.583 -18.507   0.560  0.00  0.00    -0.321 N 
ATOM     10  H7  NON d   1      21.466 -17.525   0.784  0.00  0.00     0.169 HD
ATOM     11  O1  NON d   1      23.007 -20.092  -0.365  0.00  0.00    -0.267 OA
BRANCH   9  12
ATOM     12  C6  NON d   1      20.513 -19.298   1.042  0.00  0.00     0.056 A 
ATOM     13  C5  NON d   1      20.333 -19.644   2.382  0.00  0.00     0.031 A 
ATOM     14  C4  NON d   1      19.254 -20.446   2.763  0.00  0.00     0.002 A 
ATOM     15  C3  NON d   1      18.343 -20.901   1.811  0.00  0.00     0.002 A 
ATOM     16  C2  NON d   1      18.508 -20.556   0.470  0.00  0.00     0.025 A 
ATOM     17  C1  NON d   1      19.602 -19.778   0.073  0.00  0.00     0.033 A 
BRANCH  17  18
ATOM     18  N1  NON d   1      19.701 -19.325  -1.270  0.00  0.00    -0.301 NA
ATOM     19  H1  NON d   1      20.528 -19.707  -1.726  0.00  0.00     0.124 HD
ATOM     20  H2  NON d   1      18.873 -19.623  -1.786  0.00  0.00     0.124 HD
ENDBRANCH  17  18
ENDBRANCH   9  12
ENDBRANCH   5   8
ENDBRANCH   1   2
BRANCH   1  21
ATOM     21  C13 NON d   1      27.753 -15.549  -2.832  0.00  0.00     0.239 C 
ATOM     22  O2  NON d   1      28.691 -15.900  -2.117  0.00  0.00    -0.272 OA
ATOM     23  N3  NON d   1      27.790 -15.550  -4.220  0.00  0.00    -0.326 N 
ATOM     24  H11 NON d   1      26.885 -15.582  -4.685  0.00  0.00     0.169 HD
BRANCH  23  25
ATOM     25  C14 NON d   1      28.906 -15.765  -5.051  0.00  0.00     0.034 A 
ATOM     26  C15 NON d   1      29.739 -16.847  -4.739  0.00  0.00     0.029 A 
ATOM     27  C16 NON d   1      30.846 -17.152  -5.538  0.00  0.00     0.002 A 
ATOM     28  C17 NON d   1      31.127 -16.375  -6.661  0.00  0.00     0.000 A 
ATOM     29  C18 NON d   1      30.299 -15.304  -6.983  0.00  0.00     0.002 A 
ATOM     30  C19 NON d   1      29.191 -15.003  -6.183  0.00  0.00     0.029 A 
ENDBRANCH  23  25
ENDBRANCH   1  21
BRANCH   1  31
ATOM     31  C20 NON d   1      25.823 -13.901  -3.198  0.00  0.00     0.239 C 
ATOM     32  O3  NON d   1      24.998 -14.253  -4.041  0.00  0.00    -0.272 OA
ATOM     33  N4  NON d   1      26.332 -12.612  -3.106  0.00  0.00    -0.326 N 
ATOM     34  H17 NON d   1      26.869 -12.382  -2.277  0.00  0.00     0.169 HD
BRANCH  33  35
ATOM     35  C21 NON d   1      26.001 -11.529  -3.954  0.00  0.00     0.034 A 
ATOM     36  C22 NON d   1      26.087 -11.733  -5.336  0.00  0.00     0.029 A 
ATOM     37  C23 NON d   1      25.793 -10.696  -6.227  0.00  0.00     0.002 A 
ATOM     38  C24 NON d   1      25.382  -9.455  -5.746  0.00  0.00     0.000 A 
ATOM     39  C25 NON d   1      25.267  -9.252  -4.374  0.00  0.00     0.002 A 
ATOM     40  C26 NON d   1      25.579 -10.283  -3.483  0.00  0.00     0.029 A 
ENDBRANCH  33  35
ENDBRANCH   1  31
TORSDOF 8
ENDMDL
MODEL 2
REMARK VINA RESULT:   -33.740      2.787      4.163
REMARK INTER + INTRA:         -38.471
REMARK INTER:                 -36.127
REMARK INTRA:                  -2.344
REMARK CONF_INDEPENDENT:        2.386
REMARK UNBOUND:                -2.344
REMARK  8 active torsions:
REMARK  status: ('A' for Active; 'I' for Inactive)
REMARK    1  A    between atoms: N1_1  and  C1_2 
REMARK    2  A    between atoms: C6_7  and  N2_8 
REMARK       I    between atoms: N2_8  and  C7_9 
REMARK    3  A    between atoms: C7_9  and  C8_11 
REMARK    4  A    between atoms: C11_14  and  C12_15 
REMARK    5  A    between atoms: C12_15  and  C13_16 
REMARK    6  A    between atoms: C12_15  and  C20_25 
REMARK       I    between atoms: C13_16  and  N3_18 
REMARK    7  A    between atoms: N3_18  and  C14_19 
REMARK       I    between atoms: C20_25  and  N4_27 
REMARK    8  A    between atoms: N4_27  and  C21_28 
ROOT
ATOM      1  C12 NON d   1      26.607 -14.933  -1.724  0.00  0.00     0.203 C 
ENDROOT
BRANCH   1   2
ATOM      2  C11 NON d   1      25.511 -15.934  -1.311  0.00  0.00    -0.036 A 
ATOM      3  C10 NON d   1      25.768 -17.199  -0.764  0.00  0.00     0.009 A 
ATOM      4  C9  NON d   1      24.719 -18.096  -0.507  0.00  0.00     0.017 A 
ATOM      5  C8  NON d   1      23.382 -17.738  -0.732  0.00  0.00     0.032 A 
ATOM      6  C28 NON d   1      23.109 -16.464  -1.235  0.00  0.00     0.017 A 
ATOM      7  C27 NON d   1      24.161 -15.586  -1.529  0.00  0.00     0.009 A 
BRANCH   5   8
ATOM      8  C7  NON d   1      22.319 -18.762  -0.471  0.00  0.00     0.256 C 
ATOM      9  N2  NON d   1      21.541 -18.570   0.652  0.00  0.00    -0.321 N 
ATOM     10  H7  NON d   1      21.755 -17.814   1.292  0.00  0.00     0.169 HD
ATOM     11  O1  NON d   1      22.226 -19.697  -1.261  0.00  0.00    -0.267 OA
BRANCH   9  12
ATOM     12  C6  NON d   1      20.426 -19.332   1.075  0.00  0.00     0.056 A 
ATOM     13  C5  NON d   1      20.177 -19.688   2.402  0.00  0.00     0.031 A 
ATOM     14  C4  NON d   1      19.057 -20.459   2.725  0.00  0.00     0.002 A 
ATOM     15  C3  NON d   1      18.174 -20.872   1.727  0.00  0.00     0.002 A 
ATOM     16  C2  NON d   1      18.410 -20.517   0.400  0.00  0.00     0.025 A 
ATOM     17  C1  NON d   1      19.544 -19.771   0.062  0.00  0.00     0.033 A 
BRANCH  17  18
ATOM     18  N1  NON d   1      19.716 -19.305  -1.270  0.00  0.00    -0.301 NA
ATOM     19  H1  NON d   1      20.306 -19.938  -1.807  0.00  0.00     0.124 HD
ATOM     20  H2  NON d   1      18.804 -19.240  -1.723  0.00  0.00     0.124 HD
ENDBRANCH  17  18
ENDBRANCH   9  12
ENDBRANCH   5   8
ENDBRANCH   1   2
BRANCH   1  21
ATOM     21  C13 NON d   1      26.408 -14.357  -3.152  0.00  0.00     0.239 C 
ATOM     22  O2  NON d   1      25.358 -14.506  -3.778  0.00  0.00    -0.272 OA
ATOM     23  N3  NON d   1      27.556 -13.784  -3.685  0.00  0.00    -0.326 N 
ATOM     24  H11 NON d   1      28.213 -13.404  -3.008  0.00  0.00     0.169 HD
BRANCH  23  25
ATOM     25  C14 NON d   1      27.803 -13.442  -5.029  0.00  0.00     0.034 A 
ATOM     26  C15 NON d   1      27.581 -12.111  -5.404  0.00  0.00     0.029 A 
ATOM     27  C16 NON d   1      27.840 -11.682  -6.709  0.00  0.00     0.002 A 
ATOM     28  C17 NON d   1      28.328 -12.584  -7.652  0.00  0.00     0.000 A 
ATOM     29  C18 NON d   1      28.561 -13.907  -7.286  0.00  0.00     0.002 A 
ATOM     30  C19 NON d   1      28.302 -14.333  -5.979  0.00  0.00     0.029 A 
ENDBRANCH  23  25
ENDBRANCH   1  21
BRANCH   1  31
ATOM     31  C20 NON d   1      26.968 -13.846  -0.703  0.00  0.00     0.239 C 
ATOM     32  O3  NON d   1      27.430 -12.765  -1.070  0.00  0.00    -0.272 OA
ATOM     33  N4  NON d   1      26.844 -14.221   0.628  0.00  0.00    -0.326 N 
ATOM     34  H17 NON d   1      26.296 -15.050   0.829  0.00  0.00     0.169 HD
BRANCH  33  35
ATOM     35  C21 NON d   1      27.229 -13.445   1.746  0.00  0.00     0.034 A 
ATOM     36  C22 NON d   1      27.780 -14.114   2.846  0.00  0.00     0.029 A 
ATOM     37  C23 NON d   1      28.161 -13.407   3.990  0.00  0.00     0.002 A 
ATOM     38  C24 NON d   1      28.025 -12.021   4.036  0.00  0.00     0.000 A 
ATOM     39  C25 NON d   1      27.504 -11.344   2.936  0.00  0.00     0.002 A 
ATOM     40  C26 NON d   1      27.104 -12.053   1.799  0.00  0.00     0.029 A 
ENDBRANCH  33  35
ENDBRANCH   1  31
TORSDOF 8
ENDMDL
MODEL 3
REMARK VINA RESULT:   -33.426      2.783      3.989
REMARK INTER + INTRA:         -38.552
REMARK INTER:                 -35.812
REMARK INTRA:                  -2.740
REMARK CONF_INDEPENDENT:        2.386
REMARK UNBOUND:                -2.740
REMARK  8 active torsions:
REMARK  status: ('A' for Active; 'I' for Inactive)
REMARK    1  A    between atoms: N1_1  and  C1_2 
REMARK    2  A    between atoms: C6_7  and  N2_8 
REMARK       I    between atoms: N2_8  and  C7_9 
REMARK    3  A    between atoms: C7_9  and  C8_11 
REMARK    4  A    between atoms: C11_14  and  C12_15 
REMARK    5  A    between atoms: C12_15  and  C13_16 
REMARK    6  A    between atoms: C12_15  and  C20_25 
REMARK       I    between atoms: C13_16  and  N3_18 
REMARK    7  A    between atoms: N3_18  and  C14_19 
REMARK       I    between atoms: C20_25  and  N4_27 
REMARK    8  A    between atoms: N4_27  and  C21_28 
ROOT
ATOM      1  C12 NON d   1      27.484 -16.114  -1.180  0.00  0.00     0.203 C 
ENDROOT
BRANCH   1   2
ATOM      2  C11 NON d   1      26.049 -16.568  -0.849  0.00  0.00    -0.036 A 
ATOM      3  C10 NON d   1      25.738 -17.755  -0.171  0.00  0.00     0.009 A 
ATOM      4  C9  NON d   1      24.402 -18.152   0.004  0.00  0.00     0.017 A 
ATOM      5  C8  NON d   1      23.339 -17.350  -0.438  0.00  0.00     0.032 A 
ATOM      6  C28 NON d   1      23.636 -16.143  -1.074  0.00  0.00     0.017 A 
ATOM      7  C27 NON d   1      24.970 -15.769  -1.285  0.00  0.00     0.009 A 
BRANCH   5   8
ATOM      8  C7  NON d   1      21.942 -17.857  -0.249  0.00  0.00     0.256 C 
ATOM      9  N2  NON d   1      21.778 -18.895   0.645  0.00  0.00    -0.321 N 
ATOM     10  H7  NON d   1      22.590 -19.326   1.073  0.00  0.00     0.169 HD
ATOM     11  O1  NON d   1      21.052 -17.326  -0.907  0.00  0.00    -0.267 OA
BRANCH   9  12
ATOM     12  C6  NON d   1      20.568 -19.494   1.067  0.00  0.00     0.056 A 
ATOM     13  C5  NON d   1      20.279 -19.832   2.391  0.00  0.00     0.031 A 
ATOM     14  C4  NON d   1      19.062 -20.437   2.712  0.00  0.00     0.002 A 
ATOM     15  C3  NON d   1      18.121 -20.702   1.717  0.00  0.00     0.002 A 
ATOM     16  C2  NON d   1      18.395 -20.362   0.393  0.00  0.00     0.025 A 
ATOM     17  C1  NON d   1      19.624 -19.783   0.055  0.00  0.00     0.033 A 
BRANCH  17  18
ATOM     18  N1  NON d   1      19.852 -19.324  -1.270  0.00  0.00    -0.301 NA
ATOM     19  H1  NON d   1      19.547 -18.359  -1.381  0.00  0.00     0.124 HD
ATOM     20  H2  NON d   1      20.849 -19.380  -1.477  0.00  0.00     0.124 HD
ENDBRANCH  17  18
ENDBRANCH   9  12
ENDBRANCH   5   8
ENDBRANCH   1   2
BRANCH   1  21
ATOM     21  C13 NON d   1      27.686 -15.759  -2.678  0.00  0.00     0.239 C 
ATOM     22  O2  NON d   1      26.739 -15.606  -3.449  0.00  0.00    -0.272 OA
ATOM     23  N3  NON d   1      29.018 -15.761  -3.075  0.00  0.00    -0.326 N 
ATOM     24  H11 NON d   1      29.694 -15.547  -2.346  0.00  0.00     0.169 HD
BRANCH  23  25
ATOM     25  C14 NON d   1      29.525 -15.773  -4.388  0.00  0.00     0.034 A 
ATOM     26  C15 NON d   1      30.170 -16.941  -4.817  0.00  0.00     0.029 A 
ATOM     27  C16 NON d   1      30.666 -17.047  -6.120  0.00  0.00     0.002 A 
ATOM     28  C17 NON d   1      30.517 -15.984  -7.009  0.00  0.00     0.000 A 
ATOM     29  C18 NON d   1      29.869 -14.824  -6.594  0.00  0.00     0.002 A 
ATOM     30  C19 NON d   1      29.372 -14.721  -5.290  0.00  0.00     0.029 A 
ENDBRANCH  23  25
ENDBRANCH   1  21
BRANCH   1  31
ATOM     31  C20 NON d   1      28.110 -15.071  -0.245  0.00  0.00     0.239 C 
ATOM     32  O3  NON d   1      29.297 -14.761  -0.351  0.00  0.00    -0.272 OA
ATOM     33  N4  NON d   1      27.280 -14.615   0.771  0.00  0.00    -0.326 N 
ATOM     34  H17 NON d   1      26.286 -14.786   0.672  0.00  0.00     0.169 HD
BRANCH  33  35
ATOM     35  C21 NON d   1      27.660 -13.751   1.825  0.00  0.00     0.034 A 
ATOM     36  C22 NON d   1      28.223 -14.328   2.969  0.00  0.00     0.029 A 
ATOM     37  C23 NON d   1      28.600 -13.531   4.055  0.00  0.00     0.002 A 
ATOM     38  C24 NON d   1      28.446 -12.148   3.996  0.00  0.00     0.000 A 
ATOM     39  C25 NON d   1      27.914 -11.563   2.850  0.00  0.00     0.002 A 
ATOM     40  C26 NON d   1      27.518 -12.361   1.772  0.00  0.00     0.029 A 
ENDBRANCH  33  35
ENDBRANCH   1  31
TORSDOF 8
ENDMDL
MODEL 4
REMARK VINA RESULT:   -33.397      3.594      5.074
REMARK INTER + INTRA:         -38.105
REMARK INTER:                 -35.783
REMARK INTRA:                  -2.322
REMARK CONF_INDEPENDENT:        2.386
REMARK UNBOUND:                -2.322
REMARK  8 active torsions:
REMARK  status: ('A' for Active; 'I' for Inactive)
REMARK    1  A    between atoms: N1_1  and  C1_2 
REMARK    2  A    between atoms: C6_7  and  N2_8 
REMARK       I    between atoms: N2_8  and  C7_9 
REMARK    3  A    between atoms: C7_9  and  C8_11 
REMARK    4  A    between atoms: C11_14  and  C12_15 
REMARK    5  A    between atoms: C12_15  and  C13_16 
REMARK    6  A    between atoms: C12_15  and  C20_25 
REMARK       I    between atoms: C13_16  and  N3_18 
REMARK    7  A    between atoms: N3_18  and  C14_19 
REMARK       I    between atoms: C20_25  and  N4_27 
REMARK    8  A    between atoms: N4_27  and  C21_28 
ROOT
ATOM      1  C12 NON d   1      27.263 -15.396   0.177  0.00  0.00     0.203 C 
ENDROOT
BRANCH   1   2
ATOM      2  C11 NON d   1      26.022 -16.275  -0.074  0.00  0.00    -0.036 A 
ATOM      3  C10 NON d   1      24.806 -15.791  -0.575  0.00  0.00     0.009 A 
ATOM      4  C9  NON d   1      23.688 -16.635  -0.683  0.00  0.00     0.017 A 
ATOM      5  C8  NON d   1      23.767 -17.996  -0.350  0.00  0.00     0.032 A 
ATOM      6  C28 NON d   1      24.987 -18.499   0.107  0.00  0.00     0.017 A 
ATOM      7  C27 NON d   1      26.089 -17.646   0.253  0.00  0.00     0.009 A 
BRANCH   5   8
ATOM      8  C7  NON d   1      22.523 -18.825  -0.454  0.00  0.00     0.256 C 
ATOM      9  N2  NON d   1      21.782 -18.972   0.700  0.00  0.00    -0.321 N 
ATOM     10  H7  NON d   1      22.131 -18.597   1.575  0.00  0.00     0.169 HD
ATOM     11  O1  NON d   1      22.261 -19.320  -1.546  0.00  0.00    -0.267 OA
BRANCH   9  12
ATOM     12  C6  NON d   1      20.536 -19.623   0.854  0.00  0.00     0.056 A 
ATOM     13  C5  NON d   1      20.190 -20.407   1.957  0.00  0.00     0.031 A 
ATOM     14  C4  NON d   1      18.939 -21.027   2.014  0.00  0.00     0.002 A 
ATOM     15  C3  NON d   1      18.022 -20.862   0.976  0.00  0.00     0.002 A 
ATOM     16  C2  NON d   1      18.354 -20.076  -0.126  0.00  0.00     0.025 A 
ATOM     17  C1  NON d   1      19.615 -19.475  -0.208  0.00  0.00     0.033 A 
BRANCH  17  18
ATOM     18  N1  NON d   1      19.905 -18.575  -1.269  0.00  0.00    -0.301 NA
ATOM     19  H1  NON d   1      20.655 -17.935  -1.013  0.00  0.00     0.124 HD
ATOM     20  H2  NON d   1      20.193 -19.107  -2.091  0.00  0.00     0.124 HD
ENDBRANCH  17  18
ENDBRANCH   9  12
ENDBRANCH   5   8
ENDBRANCH   1   2
BRANCH   1  21
ATOM     21  C13 NON d   1      27.740 -14.630  -1.087  0.00  0.00     0.239 C 
ATOM     22  O2  NON d   1      27.960 -13.419  -1.075  0.00  0.00    -0.272 OA
ATOM     23  N3  NON d   1      27.766 -15.414  -2.234  0.00  0.00    -0.326 N 
ATOM     24  H11 NON d   1      27.917 -16.408  -2.084  0.00  0.00     0.169 HD
BRANCH  23  25
ATOM     25  C14 NON d   1      27.862 -14.980  -3.570  0.00  0.00     0.034 A 
ATOM     26  C15 NON d   1      28.827 -15.596  -4.377  0.00  0.00     0.029 A 
ATOM     27  C16 NON d   1      28.959 -15.251  -5.726  0.00  0.00     0.002 A 
ATOM     28  C17 NON d   1      28.121 -14.286  -6.280  0.00  0.00     0.000 A 
ATOM     29  C18 NON d   1      27.152 -13.676  -5.489  0.00  0.00     0.002 A 
ATOM     30  C19 NON d   1      27.021 -14.025  -4.140  0.00  0.00     0.029 A 
ENDBRANCH  23  25
ENDBRANCH   1  21
BRANCH   1  31
ATOM     31  C20 NON d   1      27.233 -14.501   1.423  0.00  0.00     0.239 C 
ATOM     32  O3  NON d   1      26.559 -13.471   1.443  0.00  0.00    -0.272 OA
ATOM     33  N4  NON d   1      28.095 -14.880   2.443  0.00  0.00    -0.326 N 
ATOM     34  H17 NON d   1      28.468 -15.823   2.412  0.00  0.00     0.169 HD
BRANCH  33  35
ATOM     35  C21 NON d   1      28.339 -14.155   3.633  0.00  0.00     0.034 A 
ATOM     36  C22 NON d   1      28.322 -14.861   4.842  0.00  0.00     0.029 A 
ATOM     37  C23 NON d   1      28.534 -14.199   6.055  0.00  0.00     0.002 A 
ATOM     38  C24 NON d   1      28.796 -12.830   6.070  0.00  0.00     0.000 A 
ATOM     39  C25 NON d   1      28.842 -12.125   4.871  0.00  0.00     0.002 A 
ATOM     40  C26 NON d   1      28.610 -12.784   3.659  0.00  0.00     0.029 A 
ENDBRANCH  33  35
ENDBRANCH   1  31
TORSDOF 8
ENDMDL
MODEL 5
REMARK VINA RESULT:   -33.091      2.779      4.987
REMARK INTER + INTRA:         -38.003
REMARK INTER:                 -35.478
REMARK INTRA:                  -2.525
REMARK CONF_INDEPENDENT:        2.386
REMARK UNBOUND:                -2.525
REMARK  8 active torsions:
REMARK  status: ('A' for Active; 'I' for Inactive)
REMARK    1  A    between atoms: N1_1  and  C1_2 
REMARK    2  A    between atoms: C6_7  and  N2_8 
REMARK       I    between atoms: N2_8  and  C7_9 
REMARK    3  A    between atoms: C7_9  and  C8_11 
REMARK    4  A    between atoms: C11_14  and  C12_15 
REMARK    5  A    between atoms: C12_15  and  C13_16 
REMARK    6  A    between atoms: C12_15  and  C20_25 
REMARK       I    between atoms: C13_16  and  N3_18 
REMARK    7  A    between atoms: N3_18  and  C14_19 
REMARK       I    between atoms: C20_25  and  N4_27 
REMARK    8  A    between atoms: N4_27  and  C21_28 
ROOT
ATOM      1  C12 NON d   1      26.809 -15.006  -1.330  0.00  0.00     0.203 C 
ENDROOT
BRANCH   1   2
ATOM      2  C11 NON d   1      25.667 -15.987  -1.001  0.00  0.00    -0.036 A 
ATOM      3  C10 NON d   1      25.837 -17.176  -0.278  0.00  0.00     0.009 A 
ATOM      4  C9  NON d   1      24.768 -18.070  -0.104  0.00  0.00     0.017 A 
ATOM      5  C8  NON d   1      23.486 -17.777  -0.595  0.00  0.00     0.032 A 
ATOM      6  C28 NON d   1      23.294 -16.574  -1.277  0.00  0.00     0.017 A 
ATOM      7  C27 NON d   1      24.372 -15.704  -1.485  0.00  0.00     0.009 A 
BRANCH   5   8
ATOM      8  C7  NON d   1      22.404 -18.796  -0.404  0.00  0.00     0.256 C 
ATOM      9  N2  NON d   1      21.594 -18.636   0.700  0.00  0.00    -0.321 N 
ATOM     10  H7  NON d   1      21.797 -17.906   1.374  0.00  0.00     0.169 HD
ATOM     11  O1  NON d   1      22.325 -19.700  -1.231  0.00  0.00    -0.267 OA
BRANCH   9  12
ATOM     12  C6  NON d   1      20.457 -19.398   1.060  0.00  0.00     0.056 A 
ATOM     13  C5  NON d   1      20.200 -19.863   2.352  0.00  0.00     0.031 A 
ATOM     14  C4  NON d   1      19.058 -20.625   2.610  0.00  0.00     0.002 A 
ATOM     15  C3  NON d   1      18.161 -20.921   1.585  0.00  0.00     0.002 A 
ATOM     16  C2  NON d   1      18.403 -20.456   0.293  0.00  0.00     0.025 A 
ATOM     17  C1  NON d   1      19.559 -19.717   0.016  0.00  0.00     0.033 A 
BRANCH  17  18
ATOM     18  N1  NON d   1      19.742 -19.140  -1.269  0.00  0.00    -0.301 NA
ATOM     19  H1  NON d   1      20.336 -19.726  -1.853  0.00  0.00     0.124 HD
ATOM     20  H2  NON d   1      18.834 -19.037  -1.722  0.00  0.00     0.124 HD
ENDBRANCH  17  18
ENDBRANCH   9  12
ENDBRANCH   5   8
ENDBRANCH   1   2
BRANCH   1  21
ATOM     21  C13 NON d   1      27.987 -15.072  -0.320  0.00  0.00     0.239 C 
ATOM     22  O2  NON d   1      28.912 -15.874  -0.444  0.00  0.00    -0.272 OA
ATOM     23  N3  NON d   1      27.821 -14.240   0.781  0.00  0.00    -0.326 N 
ATOM     24  H11 NON d   1      27.256 -13.409   0.623  0.00  0.00     0.169 HD
BRANCH  23  25
ATOM     25  C14 NON d   1      28.531 -14.270   1.996  0.00  0.00     0.034 A 
ATOM     26  C15 NON d   1      27.781 -14.359   3.176  0.00  0.00     0.029 A 
ATOM     27  C16 NON d   1      28.413 -14.433   4.422  0.00  0.00     0.002 A 
ATOM     28  C17 NON d   1      29.804 -14.422   4.497  0.00  0.00     0.000 A 
ATOM     29  C18 NON d   1      30.557 -14.343   3.329  0.00  0.00     0.002 A 
ATOM     30  C19 NON d   1      29.923 -14.270   2.084  0.00  0.00     0.029 A 
ENDBRANCH  23  25
ENDBRANCH   1  21
BRANCH   1  31
ATOM     31  C20 NON d   1      27.292 -14.973  -2.786  0.00  0.00     0.239 C 
ATOM     32  O3  NON d   1      26.488 -15.008  -3.717  0.00  0.00    -0.272 OA
ATOM     33  N4  NON d   1      28.670 -15.020  -2.953  0.00  0.00    -0.326 N 
ATOM     34  H17 NON d   1      29.244 -14.811  -2.143  0.00  0.00     0.169 HD
BRANCH  33  35
ATOM     35  C21 NON d   1      29.351 -15.125  -4.188  0.00  0.00     0.034 A 
ATOM     36  C22 NON d   1      29.856 -16.379  -4.550  0.00  0.00     0.029 A 
ATOM     37  C23 NON d   1      30.558 -16.544  -5.748  0.00  0.00     0.002 A 
ATOM     38  C24 NON d   1      30.736 -15.464  -6.610  0.00  0.00     0.000 A 
ATOM     39  C25 NON d   1      30.213 -14.219  -6.271  0.00  0.00     0.002 A 
ATOM     40  C26 NON d   1      29.528 -14.050  -5.064  0.00  0.00     0.029 A 
ENDBRANCH  33  35
ENDBRANCH   1  31
TORSDOF 8
ENDMDL
MODEL 6
REMARK VINA RESULT:   -32.986      2.810      5.742
REMARK INTER + INTRA:         -38.201
REMARK INTER:                 -35.372
REMARK INTRA:                  -2.829
REMARK CONF_INDEPENDENT:        2.386
REMARK UNBOUND:                -2.829
REMARK  8 active torsions:
REMARK  status: ('A' for Active; 'I' for Inactive)
REMARK    1  A    between atoms: N1_1  and  C1_2 
REMARK    2  A    between atoms: C6_7  and  N2_8 
REMARK       I    between atoms: N2_8  and  C7_9 
REMARK    3  A    between atoms: C7_9  and  C8_11 
REMARK    4  A    between atoms: C11_14  and  C12_15 
REMARK    5  A    between atoms: C12_15  and  C13_16 
REMARK    6  A    between atoms: C12_15  and  C20_25 
REMARK       I    between atoms: C13_16  and  N3_18 
REMARK    7  A    between atoms: N3_18  and  C14_19 
REMARK       I    between atoms: C20_25  and  N4_27 
REMARK    8  A    between atoms: N4_27  and  C21_28 
ROOT
ATOM      1  C12 NON d   1      26.859 -14.990  -1.414  0.00  0.00     0.203 C 
ENDROOT
BRANCH   1   2
ATOM      2  C11 NON d   1      25.725 -15.971  -1.055  0.00  0.00    -0.036 A 
ATOM      3  C10 NON d   1      25.917 -17.174  -0.363  0.00  0.00     0.009 A 
ATOM      4  C9  NON d   1      24.850 -18.064  -0.161  0.00  0.00     0.017 A 
ATOM      5  C8  NON d   1      23.551 -17.753  -0.590  0.00  0.00     0.032 A 
ATOM      6  C28 NON d   1      23.338 -16.536  -1.241  0.00  0.00     0.017 A 
ATOM      7  C27 NON d   1      24.413 -15.669  -1.477  0.00  0.00     0.009 A 
BRANCH   5   8
ATOM      8  C7  NON d   1      22.471 -18.769  -0.374  0.00  0.00     0.256 C 
ATOM      9  N2  NON d   1      21.652 -18.575   0.720  0.00  0.00    -0.321 N 
ATOM     10  H7  NON d   1      21.849 -17.823   1.371  0.00  0.00     0.169 HD
ATOM     11  O1  NON d   1      22.399 -19.700  -1.170  0.00  0.00    -0.267 OA
BRANCH   9  12
ATOM     12  C6  NON d   1      20.516 -19.328   1.098  0.00  0.00     0.056 A 
ATOM     13  C5  NON d   1      20.216 -19.694   2.412  0.00  0.00     0.031 A 
ATOM     14  C4  NON d   1      19.078 -20.455   2.688  0.00  0.00     0.002 A 
ATOM     15  C3  NON d   1      18.226 -20.850   1.657  0.00  0.00     0.002 A 
ATOM     16  C2  NON d   1      18.511 -20.485   0.342  0.00  0.00     0.025 A 
ATOM     17  C1  NON d   1      19.665 -19.748   0.050  0.00  0.00     0.033 A 
BRANCH  17  18
ATOM     18  N1  NON d   1      19.887 -19.272  -1.270  0.00  0.00    -0.301 NA
ATOM     19  H1  NON d   1      20.594 -18.538  -1.281  0.00  0.00     0.124 HD
ATOM     20  H2  NON d   1      20.207 -20.045  -1.856  0.00  0.00     0.124 HD
ENDBRANCH  17  18
ENDBRANCH   9  12
ENDBRANCH   5   8
ENDBRANCH   1   2
BRANCH   1  21
ATOM     21  C13 NON d   1      27.737 -14.593  -0.195  0.00  0.00     0.239 C 
ATOM     22  O2  NON d   1      28.895 -14.989  -0.066  0.00  0.00    -0.272 OA
ATOM     23  N3  NON d   1      27.049 -13.870   0.771  0.00  0.00    -0.326 N 
ATOM     24  H11 NON d   1      26.266 -13.315   0.433  0.00  0.00     0.169 HD
BRANCH  23  25
ATOM     25  C14 NON d   1      27.447 -13.611   2.098  0.00  0.00     0.034 A 
ATOM     26  C15 NON d   1      27.440 -12.276   2.521  0.00  0.00     0.029 A 
ATOM     27  C16 NON d   1      27.783 -11.940   3.834  0.00  0.00     0.002 A 
ATOM     28  C17 NON d   1      28.133 -12.941   4.738  0.00  0.00     0.000 A 
ATOM     29  C18 NON d   1      28.133 -14.271   4.329  0.00  0.00     0.002 A 
ATOM     30  C19 NON d   1      27.788 -14.605   3.015  0.00  0.00     0.029 A 
ENDBRANCH  23  25
ENDBRANCH   1  21
BRANCH   1  31
ATOM     31  C20 NON d   1      27.700 -15.332  -2.650  0.00  0.00     0.239 C 
ATOM     32  O3  NON d   1      27.368 -14.934  -3.767  0.00  0.00    -0.272 OA
ATOM     33  N4  NON d   1      28.762 -16.197  -2.423  0.00  0.00    -0.326 N 
ATOM     34  H17 NON d   1      29.060 -16.325  -1.462  0.00  0.00     0.169 HD
BRANCH  33  35
ATOM     35  C21 NON d   1      29.604 -16.753  -3.414  0.00  0.00     0.034 A 
ATOM     36  C22 NON d   1      30.417 -17.832  -3.048  0.00  0.00     0.029 A 
ATOM     37  C23 NON d   1      31.287 -18.413  -3.976  0.00  0.00     0.002 A 
ATOM     38  C24 NON d   1      31.331 -17.942  -5.286  0.00  0.00     0.000 A 
ATOM     39  C25 NON d   1      30.506 -16.888  -5.666  0.00  0.00     0.002 A 
ATOM     40  C26 NON d   1      29.650 -16.294  -4.733  0.00  0.00     0.029 A 
ENDBRANCH  33  35
ENDBRANCH   1  31
TORSDOF 8
ENDMDL
MODEL 7
REMARK VINA RESULT:   -32.957      3.138      4.976
REMARK INTER + INTRA:         -38.179
REMARK INTER:                 -35.343
REMARK INTRA:                  -2.836
REMARK CONF_INDEPENDENT:        2.386
REMARK UNBOUND:                -2.836
REMARK  8 active torsions:
REMARK  status: ('A' for Active; 'I' for Inactive)
REMARK    1  A    between atoms: N1_1  and  C1_2 
REMARK    2  A    between atoms: C6_7  and  N2_8 
REMARK       I    between atoms: N2_8  and  C7_9 
REMARK    3  A    between atoms: C7_9  and  C8_11 
REMARK    4  A    between atoms: C11_14  and  C12_15 
REMARK    5  A    between atoms: C12_15  and  C13_16 
REMARK    6  A    between atoms: C12_15  and  C20_25 
REMARK       I    between atoms: C13_16  and  N3_18 
REMARK    7  A    between atoms: N3_18  and  C14_19 
REMARK       I    between atoms: C20_25  and  N4_27 
REMARK    8  A    between atoms: N4_27  and  C21_28 
ROOT
ATOM      1  C12 NON d   1      27.294 -15.568  -1.019  0.00  0.00     0.203 C 
ENDROOT
BRANCH   1   2
ATOM      2  C11 NON d   1      25.881 -16.173  -0.916  0.00  0.00    -0.036 A 
ATOM      3  C10 NON d   1      24.741 -15.612  -1.507  0.00  0.00     0.009 A 
ATOM      4  C9  NON d   1      23.470 -16.167  -1.285  0.00  0.00     0.017 A 
ATOM      5  C8  NON d   1      23.306 -17.329  -0.516  0.00  0.00     0.032 A 
ATOM      6  C28 NON d   1      24.440 -17.923   0.042  0.00  0.00     0.017 A 
ATOM      7  C27 NON d   1      25.702 -17.344  -0.148  0.00  0.00     0.009 A 
BRANCH   5   8
ATOM      8  C7  NON d   1      21.916 -17.840  -0.290  0.00  0.00     0.256 C 
ATOM      9  N2  NON d   1      21.781 -18.888   0.597  0.00  0.00    -0.321 N 
ATOM     10  H7  NON d   1      22.605 -19.322   0.995  0.00  0.00     0.169 HD
ATOM     11  O1  NON d   1      21.006 -17.303  -0.914  0.00  0.00    -0.267 OA
BRANCH   9  12
ATOM     12  C6  NON d   1      20.584 -19.493   1.049  0.00  0.00     0.056 A 
ATOM     13  C5  NON d   1      20.332 -19.835   2.379  0.00  0.00     0.031 A 
ATOM     14  C4  NON d   1      19.126 -20.447   2.731  0.00  0.00     0.002 A 
ATOM     15  C3  NON d   1      18.160 -20.713   1.761  0.00  0.00     0.002 A 
ATOM     16  C2  NON d   1      18.399 -20.369   0.431  0.00  0.00     0.025 A 
ATOM     17  C1  NON d   1      19.616 -19.784   0.062  0.00  0.00     0.033 A 
BRANCH  17  18
ATOM     18  N1  NON d   1      19.807 -19.322  -1.268  0.00  0.00    -0.301 NA
ATOM     19  H1  NON d   1      19.534 -18.345  -1.359  0.00  0.00     0.124 HD
ATOM     20  H2  NON d   1      20.792 -19.413  -1.516  0.00  0.00     0.124 HD
ENDBRANCH  17  18
ENDBRANCH   9  12
ENDBRANCH   5   8
ENDBRANCH   1   2
BRANCH   1  21
ATOM     21  C13 NON d   1      27.340 -14.251  -1.842  0.00  0.00     0.239 C 
ATOM     22  O2  NON d   1      26.927 -13.183  -1.392  0.00  0.00    -0.272 OA
ATOM     23  N3  NON d   1      27.764 -14.431  -3.153  0.00  0.00    -0.326 N 
ATOM     24  H11 NON d   1      28.388 -15.219  -3.310  0.00  0.00     0.169 HD
BRANCH  23  25
ATOM     25  C14 NON d   1      27.645 -13.528  -4.227  0.00  0.00     0.034 A 
ATOM     26  C15 NON d   1      28.268 -13.879  -5.432  0.00  0.00     0.029 A 
ATOM     27  C16 NON d   1      28.163 -13.056  -6.558  0.00  0.00     0.002 A 
ATOM     28  C17 NON d   1      27.429 -11.874  -6.488  0.00  0.00     0.000 A 
ATOM     29  C18 NON d   1      26.799 -11.522  -5.298  0.00  0.00     0.002 A 
ATOM     30  C19 NON d   1      26.904 -12.349  -4.173  0.00  0.00     0.029 A 
ENDBRANCH  23  25
ENDBRANCH   1  21
BRANCH   1  31
ATOM     31  C20 NON d   1      28.099 -15.468   0.283  0.00  0.00     0.239 C 
ATOM     32  O3  NON d   1      28.906 -16.345   0.593  0.00  0.00    -0.272 OA
ATOM     33  N4  NON d   1      27.760 -14.403   1.107  0.00  0.00    -0.326 N 
ATOM     34  H17 NON d   1      27.224 -13.648   0.695  0.00  0.00     0.169 HD
BRANCH  33  35
ATOM     35  C21 NON d   1      28.268 -14.168   2.406  0.00  0.00     0.034 A 
ATOM     36  C22 NON d   1      27.347 -13.940   3.435  0.00  0.00     0.029 A 
ATOM     37  C23 NON d   1      27.786 -13.680   4.738  0.00  0.00     0.002 A 
ATOM     38  C24 NON d   1      29.148 -13.674   5.030  0.00  0.00     0.000 A 
ATOM     39  C25 NON d   1      30.070 -13.926   4.019  0.00  0.00     0.002 A 
ATOM     40  C26 NON d   1      29.632 -14.167   2.713  0.00  0.00     0.029 A 
ENDBRANCH  33  35
ENDBRANCH   1  31
TORSDOF 8
ENDMDL
MODEL 8
REMARK VINA RESULT:   -32.430      2.444      2.992
REMARK INTER + INTRA:         -37.161
REMARK INTER:                 -34.816
REMARK INTRA:                  -2.345
REMARK CONF_INDEPENDENT:        2.386
REMARK UNBOUND:                -2.345
REMARK  8 active torsions:
REMARK  status: ('A' for Active; 'I' for Inactive)
REMARK    1  A    between atoms: N1_1  and  C1_2 
REMARK    2  A    between atoms: C6_7  and  N2_8 
REMARK       I    between atoms: N2_8  and  C7_9 
REMARK    3  A    between atoms: C7_9  and  C8_11 
REMARK    4  A    between atoms: C11_14  and  C12_15 
REMARK    5  A    between atoms: C12_15  and  C13_16 
REMARK    6  A    between atoms: C12_15  and  C20_25 
REMARK       I    between atoms: C13_16  and  N3_18 
REMARK    7  A    between atoms: N3_18  and  C14_19 
REMARK       I    between atoms: C20_25  and  N4_27 
REMARK    8  A    between atoms: N4_27  and  C21_28 
ROOT
ATOM      1  C12 NON d   1      27.504 -16.016  -1.127  0.00  0.00     0.203 C 
ENDROOT
BRANCH   1   2
ATOM      2  C11 NON d   1      26.063 -16.549  -1.004  0.00  0.00    -0.036 A 
ATOM      3  C10 NON d   1      24.956 -15.975  -1.645  0.00  0.00     0.009 A 
ATOM      4  C9  NON d   1      23.659 -16.456  -1.403  0.00  0.00     0.017 A 
ATOM      5  C8  NON d   1      23.433 -17.556  -0.563  0.00  0.00     0.032 A 
ATOM      6  C28 NON d   1      24.533 -18.165   0.046  0.00  0.00     0.017 A 
ATOM      7  C27 NON d   1      25.822 -17.657  -0.164  0.00  0.00     0.009 A 
BRANCH   5   8
ATOM      8  C7  NON d   1      22.019 -17.988  -0.323  0.00  0.00     0.256 C 
ATOM      9  N2  NON d   1      21.833 -19.025   0.567  0.00  0.00    -0.321 N 
ATOM     10  H7  NON d   1      22.635 -19.505   0.959  0.00  0.00     0.169 HD
ATOM     11  O1  NON d   1      21.134 -17.401  -0.940  0.00  0.00    -0.267 OA
BRANCH   9  12
ATOM     12  C6  NON d   1      20.609 -19.560   1.033  0.00  0.00     0.056 A 
ATOM     13  C5  NON d   1      20.355 -19.899   2.364  0.00  0.00     0.031 A 
ATOM     14  C4  NON d   1      19.119 -20.439   2.729  0.00  0.00     0.002 A 
ATOM     15  C3  NON d   1      18.126 -20.638   1.770  0.00  0.00     0.002 A 
ATOM     16  C2  NON d   1      18.365 -20.297   0.440  0.00  0.00     0.025 A 
ATOM     17  C1  NON d   1      19.610 -19.783   0.058  0.00  0.00     0.033 A 
BRANCH  17  18
ATOM     18  N1  NON d   1      19.809 -19.321  -1.271  0.00  0.00    -0.301 NA
ATOM     19  H1  NON d   1      19.324 -18.439  -1.429  0.00  0.00     0.124 HD
ATOM     20  H2  NON d   1      20.807 -19.181  -1.431  0.00  0.00     0.124 HD
ENDBRANCH  17  18
ENDBRANCH   9  12
ENDBRANCH   5   8
ENDBRANCH   1   2
BRANCH   1  21
ATOM     21  C13 NON d   1      28.027 -15.994  -2.589  0.00  0.00     0.239 C 
ATOM     22  O2  NON d   1      27.331 -15.609  -3.528  0.00  0.00    -0.272 OA
ATOM     23  N3  NON d   1      29.286 -16.564  -2.737  0.00  0.00    -0.326 N 
ATOM     24  H11 NON d   1      29.889 -16.517  -1.919  0.00  0.00     0.169 HD
BRANCH  23  25
ATOM     25  C14 NON d   1      29.914 -16.965  -3.932  0.00  0.00     0.034 A 
ATOM     26  C15 NON d   1      30.470 -18.251  -3.964  0.00  0.00     0.029 A 
ATOM     27  C16 NON d   1      31.076 -18.739  -5.126  0.00  0.00     0.002 A 
ATOM     28  C17 NON d   1      31.129 -17.944  -6.268  0.00  0.00     0.000 A 
ATOM     29  C18 NON d   1      30.571 -16.669  -6.248  0.00  0.00     0.002 A 
ATOM     30  C19 NON d   1      29.963 -16.184  -5.085  0.00  0.00     0.029 A 
ENDBRANCH  23  25
ENDBRANCH   1  21
BRANCH   1  31
ATOM     31  C20 NON d   1      27.827 -14.720  -0.373  0.00  0.00     0.239 C 
ATOM     32  O3  NON d   1      28.014 -14.729   0.843  0.00  0.00    -0.272 OA
ATOM     33  N4  NON d   1      27.774 -13.562  -1.138  0.00  0.00    -0.326 N 
ATOM     34  H17 NON d   1      27.790 -13.670  -2.147  0.00  0.00     0.169 HD
BRANCH  33  35
ATOM     35  C21 NON d   1      27.911 -12.241  -0.652  0.00  0.00     0.034 A 
ATOM     36  C22 NON d   1      27.192 -11.893   0.498  0.00  0.00     0.029 A 
ATOM     37  C23 NON d   1      27.268 -10.596   1.017  0.00  0.00     0.002 A 
ATOM     38  C24 NON d   1      28.086  -9.645   0.411  0.00  0.00     0.000 A 
ATOM     39  C25 NON d   1      28.825  -9.991  -0.716  0.00  0.00     0.002 A 
ATOM     40  C26 NON d   1      28.734 -11.282  -1.247  0.00  0.00     0.029 A 
ENDBRANCH  33  35
ENDBRANCH   1  31
TORSDOF 8
ENDMDL
MODEL 9
REMARK VINA RESULT:   -32.347      2.425      3.044
REMARK INTER + INTRA:         -37.185
REMARK INTER:                 -34.733
REMARK INTRA:                  -2.451
REMARK CONF_INDEPENDENT:        2.386
REMARK UNBOUND:                -2.451
REMARK  8 active torsions:
REMARK  status: ('A' for Active; 'I' for Inactive)
REMARK    1  A    between atoms: N1_1  and  C1_2 
REMARK    2  A    between atoms: C6_7  and  N2_8 
REMARK       I    between atoms: N2_8  and  C7_9 
REMARK    3  A    between atoms: C7_9  and  C8_11 
REMARK    4  A    between atoms: C11_14  and  C12_15 
REMARK    5  A    between atoms: C12_15  and  C13_16 
REMARK    6  A    between atoms: C12_15  and  C20_25 
REMARK       I    between atoms: C13_16  and  N3_18 
REMARK    7  A    between atoms: N3_18  and  C14_19 
REMARK       I    between atoms: C20_25  and  N4_27 
REMARK    8  A    between atoms: N4_27  and  C21_28 
ROOT
ATOM      1  C12 NON d   1      27.328 -15.229  -0.749  0.00  0.00     0.203 C 
ENDROOT
BRANCH   1   2
ATOM      2  C11 NON d   1      26.084 -16.121  -0.570  0.00  0.00    -0.036 A 
ATOM      3  C10 NON d   1      26.078 -17.325   0.147  0.00  0.00     0.009 A 
ATOM      4  C9  NON d   1      24.931 -18.134   0.181  0.00  0.00     0.017 A 
ATOM      5  C8  NON d   1      23.741 -17.738  -0.448  0.00  0.00     0.032 A 
ATOM      6  C28 NON d   1      23.721 -16.519  -1.128  0.00  0.00     0.017 A 
ATOM      7  C27 NON d   1      24.879 -15.733  -1.195  0.00  0.00     0.009 A 
BRANCH   5   8
ATOM      8  C7  NON d   1      22.569 -18.672  -0.401  0.00  0.00     0.256 C 
ATOM      9  N2  NON d   1      21.785 -18.620   0.732  0.00  0.00    -0.321 N 
ATOM     10  H7  NON d   1      22.060 -18.032   1.510  0.00  0.00     0.169 HD
ATOM     11  O1  NON d   1      22.400 -19.418  -1.361  0.00  0.00    -0.267 OA
BRANCH   9  12
ATOM     12  C6  NON d   1      20.585 -19.324   0.990  0.00  0.00     0.056 A 
ATOM     13  C5  NON d   1      20.284 -19.948   2.202  0.00  0.00     0.031 A 
ATOM     14  C4  NON d   1      19.079 -20.636   2.359  0.00  0.00     0.002 A 
ATOM     15  C3  NON d   1      18.161 -20.700   1.311  0.00  0.00     0.002 A 
ATOM     16  C2  NON d   1      18.447 -20.074   0.098  0.00  0.00     0.025 A 
ATOM     17  C1  NON d   1      19.665 -19.408  -0.081  0.00  0.00     0.033 A 
BRANCH  17  18
ATOM     18  N1  NON d   1      19.901 -18.668  -1.270  0.00  0.00    -0.301 NA
ATOM     19  H1  NON d   1      20.330 -19.251  -1.986  0.00  0.00     0.124 HD
ATOM     20  H2  NON d   1      19.013 -18.311  -1.625  0.00  0.00     0.124 HD
ENDBRANCH  17  18
ENDBRANCH   9  12
ENDBRANCH   5   8
ENDBRANCH   1   2
BRANCH   1  21
ATOM     21  C13 NON d   1      28.558 -15.994  -1.309  0.00  0.00     0.239 C 
ATOM     22  O2  NON d   1      28.663 -16.282  -2.501  0.00  0.00    -0.272 OA
ATOM     23  N3  NON d   1      29.440 -16.423  -0.325  0.00  0.00    -0.326 N 
ATOM     24  H11 NON d   1      29.461 -15.860   0.523  0.00  0.00     0.169 HD
BRANCH  23  25
ATOM     25  C14 NON d   1      30.474 -17.371  -0.449  0.00  0.00     0.034 A 
ATOM     26  C15 NON d   1      31.729 -17.022   0.064  0.00  0.00     0.029 A 
ATOM     27  C16 NON d   1      32.798 -17.923   0.016  0.00  0.00     0.002 A 
ATOM     28  C17 NON d   1      32.617 -19.185  -0.545  0.00  0.00     0.000 A 
ATOM     29  C18 NON d   1      31.370 -19.544  -1.049  0.00  0.00     0.002 A 
ATOM     30  C19 NON d   1      30.302 -18.641  -0.998  0.00  0.00     0.029 A 
ENDBRANCH  23  25
ENDBRANCH   1  21
BRANCH   1  31
ATOM     31  C20 NON d   1      27.114 -13.880  -1.448  0.00  0.00     0.239 C 
ATOM     32  O3  NON d   1      27.016 -12.841  -0.794  0.00  0.00    -0.272 OA
ATOM     33  N4  NON d   1      26.929 -13.948  -2.822  0.00  0.00    -0.326 N 
ATOM     34  H17 NON d   1      27.202 -14.808  -3.286  0.00  0.00     0.169 HD
BRANCH  33  35
ATOM     35  C21 NON d   1      26.595 -12.865  -3.668  0.00  0.00     0.034 A 
ATOM     36  C22 NON d   1      26.170 -11.675  -3.065  0.00  0.00     0.029 A 
ATOM     37  C23 NON d   1      25.805 -10.574  -3.846  0.00  0.00     0.002 A 
ATOM     38  C24 NON d   1      25.889 -10.641  -5.235  0.00  0.00     0.000 A 
ATOM     39  C25 NON d   1      26.337 -11.811  -5.842  0.00  0.00     0.002 A 
ATOM     40  C26 NON d   1      26.683 -12.919  -5.062  0.00  0.00     0.029 A 
ENDBRANCH  33  35
ENDBRANCH   1  31
TORSDOF 8
ENDMDL
