MODEL 1
REMARK VINA RESULT:   -31.889      0.000      0.000
REMARK INTER + INTRA:         -35.761
REMARK INTER:                 -33.977
REMARK INTRA:                  -1.784
REMARK CONF_INDEPENDENT:        2.088
REMARK UNBOUND:                -1.784
REMARK  7 active torsions:
REMARK  status: ('A' for Active; 'I' for Inactive)
REMARK    1  A    between atoms: N1_4  and  C4_5 
REMARK    2  A    between atoms: C7_8  and  C8_9 
REMARK       I    between atoms: C8_9  and  N2_11 
REMARK    3  A    between atoms: N2_11  and  C9_12 
REMARK    4  A    between atoms: C14_17  and  N3_18 
REMARK       I    between atoms: N5_23  and  C18_24 
REMARK    5  A    between atoms: C18_24  and  O3_26 
REMARK    6  A    between atoms: O3_26  and  C19_27 
REMARK    7  A    between atoms: C19_27  and  C20_28 
ROOT
ATOM      1  C4  NON d   1      25.942 -16.700  -1.256  0.00  0.00     0.125 A 
ATOM      2  C5  NON d   1      24.859 -15.881  -1.585  0.00  0.00     0.051 A 
ATOM      3  C6  NON d   1      23.555 -16.260  -1.260  0.00  0.00     0.022 A 
ATOM      4  C7  NON d   1      23.326 -17.477  -0.629  0.00  0.00     0.050 A 
ATOM      5  C15 NON d   1      24.439 -18.245  -0.338  0.00  0.00     0.136 A 
ATOM      6  N4  NON d   1      25.719 -17.886  -0.640  0.00  0.00    -0.242 NA
ENDROOT
BRANCH   1   7
ATOM      7  N1  NON d   1      27.243 -16.341  -1.566  0.00  0.00    -0.362 N 
ATOM      8  C3  NON d   1      28.387 -16.917  -0.850  0.00  0.00     0.149 C 
ATOM      9  C2  NON d   1      29.634 -17.133  -1.765  0.00  0.00     0.103 C 
ATOM     10  C1  NON d   1      30.779 -17.793  -0.975  0.00  0.00     0.034 C 
ATOM     11  N5  NON d   1      30.003 -15.902  -2.501  0.00  0.00    -0.321 N 
ATOM     12  C17 NON d   1      28.877 -15.030  -2.880  0.00  0.00     0.148 C 
ATOM     13  C18 NON d   1      31.237 -15.603  -3.066  0.00  0.00     0.363 C 
ATOM     14  C16 NON d   1      27.504 -15.729  -2.871  0.00  0.00     0.144 C 
ATOM     15  O2  NON d   1      31.411 -14.630  -3.796  0.00  0.00    -0.238 OA
BRANCH  13  16
ATOM     16  O3  NON d   1      32.242 -16.463  -2.732  0.00  0.00    -0.299 OA
BRANCH  16  17
ATOM     17  C19 NON d   1      33.002 -16.907  -3.870  0.00  0.00     0.219 C 
BRANCH  17  18
ATOM     18  C20 NON d   1      32.197 -17.704  -4.879  0.00  0.00    -0.034 A 
ATOM     19  C21 NON d   1      32.057 -17.197  -6.183  0.00  0.00     0.009 A 
ATOM     20  C22 NON d   1      31.343 -17.902  -7.154  0.00  0.00     0.001 A 
ATOM     21  C23 NON d   1      30.756 -19.125  -6.839  0.00  0.00     0.000 A 
ATOM     22  C24 NON d   1      30.876 -19.634  -5.549  0.00  0.00     0.001 A 
ATOM     23  C25 NON d   1      31.583 -18.922  -4.575  0.00  0.00     0.009 A 
ENDBRANCH  17  18
ENDBRANCH  16  17
ENDBRANCH  13  16
ENDBRANCH   1   7
BRANCH   4  24
ATOM     24  C8  NON d   1      21.931 -17.860  -0.291  0.00  0.00     0.257 C 
ATOM     25  O1  NON d   1      21.027 -17.295  -0.900  0.00  0.00    -0.267 OA
ATOM     26  N2  NON d   1      21.778 -18.845   0.660  0.00  0.00    -0.321 N 
ATOM     27  H9  NON d   1      22.590 -19.292   1.076  0.00  0.00     0.169 HD
BRANCH  26  28
ATOM     28  C9  NON d   1      20.573 -19.456   1.080  0.00  0.00     0.056 A 
ATOM     29  C10 NON d   1      20.315 -19.879   2.384  0.00  0.00     0.031 A 
ATOM     30  C11 NON d   1      19.084 -20.457   2.702  0.00  0.00     0.002 A 
ATOM     31  C12 NON d   1      18.114 -20.628   1.718  0.00  0.00     0.002 A 
ATOM     32  C13 NON d   1      18.367 -20.217   0.410  0.00  0.00     0.025 A 
ATOM     33  C14 NON d   1      19.576 -19.591   0.091  0.00  0.00     0.033 A 
BRANCH  33  34
ATOM     34  N3  NON d   1      19.905 -19.325  -1.270  0.00  0.00    -0.301 NA
ATOM     35  H14 NON d   1      19.722 -18.337  -1.452  0.00  0.00     0.124 HD
ATOM     36  H15 NON d   1      20.896 -19.494  -1.434  0.00  0.00     0.124 HD
ENDBRANCH  33  34
ENDBRANCH  26  28
ENDBRANCH   4  24
TORSDOF 7
ENDMDL
MODEL 2
REMARK VINA RESULT:   -31.569      3.687      5.794
REMARK INTER + INTRA:         -35.991
REMARK INTER:                 -33.657
REMARK INTRA:                  -2.334
REMARK CONF_INDEPENDENT:        2.088
REMARK UNBOUND:                -2.334
REMARK  7 active torsions:
REMARK  status: ('A' for Active; 'I' for Inactive)
REMARK    1  A    between atoms: N1_4  and  C4_5 
REMARK    2  A    between atoms: C7_8  and  C8_9 
REMARK       I    between atoms: C8_9  and  N2_11 
REMARK    3  A    between atoms: N2_11  and  C9_12 
REMARK    4  A    between atoms: C14_17  and  N3_18 
REMARK       I    between atoms: N5_23  and  C18_24 
REMARK    5  A    between atoms: C18_24  and  O3_26 
REMARK    6  A    between atoms: O3_26  and  C19_27 
REMARK    7  A    between atoms: C19_27  and  C20_28 
ROOT
ATOM      1  C4  NON d   1      25.882 -16.366  -0.155  0.00  0.00     0.125 A 
ATOM      2  C5  NON d   1      24.776 -16.054  -0.949  0.00  0.00     0.051 A 
ATOM      3  C6  NON d   1      23.650 -16.880  -0.958  0.00  0.00     0.022 A 
ATOM      4  C7  NON d   1      23.638 -18.040  -0.192  0.00  0.00     0.050 A 
ATOM      5  C15 NON d   1      24.768 -18.296   0.565  0.00  0.00     0.136 A 
ATOM      6  N4  NON d   1      25.871 -17.496   0.592  0.00  0.00    -0.242 NA
ENDROOT
BRANCH   1   7
ATOM      7  N1  NON d   1      27.007 -15.557  -0.129  0.00  0.00    -0.362 N 
ATOM      8  C3  NON d   1      26.898 -14.099  -0.015  0.00  0.00     0.149 C 
ATOM      9  C2  NON d   1      28.049 -13.465   0.828  0.00  0.00     0.103 C 
ATOM     10  C1  NON d   1      27.849 -11.944   0.962  0.00  0.00     0.034 C 
ATOM     11  N5  NON d   1      29.386 -13.885   0.349  0.00  0.00    -0.321 N 
ATOM     12  C17 NON d   1      29.459 -15.250  -0.202  0.00  0.00     0.148 C 
ATOM     13  C18 NON d   1      30.596 -13.240   0.572  0.00  0.00     0.363 C 
ATOM     14  C16 NON d   1      28.293 -16.166   0.217  0.00  0.00     0.144 C 
ATOM     15  O2  NON d   1      31.677 -13.742   0.274  0.00  0.00    -0.238 OA
BRANCH  13  16
ATOM     16  O3  NON d   1      30.488 -12.000   1.131  0.00  0.00    -0.299 OA
BRANCH  16  17
ATOM     17  C19 NON d   1      30.879 -11.972   2.515  0.00  0.00     0.219 C 
BRANCH  17  18
ATOM     18  C20 NON d   1      29.906 -12.668   3.447  0.00  0.00    -0.034 A 
ATOM     19  C21 NON d   1      28.955 -11.891   4.133  0.00  0.00     0.009 A 
ATOM     20  C22 NON d   1      28.023 -12.486   4.987  0.00  0.00     0.001 A 
ATOM     21  C23 NON d   1      28.025 -13.866   5.169  0.00  0.00     0.000 A 
ATOM     22  C24 NON d   1      28.967 -14.647   4.506  0.00  0.00     0.001 A 
ATOM     23  C25 NON d   1      29.906 -14.049   3.660  0.00  0.00     0.009 A 
ENDBRANCH  17  18
ENDBRANCH  16  17
ENDBRANCH  13  16
ENDBRANCH   1   7
BRANCH   4  24
ATOM     24  C8  NON d   1      22.430 -18.904  -0.215  0.00  0.00     0.257 C 
ATOM     25  O1  NON d   1      22.319 -19.696  -1.146  0.00  0.00    -0.267 OA
ATOM     26  N2  NON d   1      21.552 -18.758   0.837  0.00  0.00    -0.321 N 
ATOM     27  H9  NON d   1      21.753 -18.108   1.592  0.00  0.00     0.169 HD
BRANCH  26  28
ATOM     28  C9  NON d   1      20.392 -19.524   1.102  0.00  0.00     0.056 A 
ATOM     29  C10 NON d   1      20.092 -20.101   2.336  0.00  0.00     0.031 A 
ATOM     30  C11 NON d   1      18.910 -20.827   2.501  0.00  0.00     0.002 A 
ATOM     31  C12 NON d   1      18.032 -20.991   1.432  0.00  0.00     0.002 A 
ATOM     32  C13 NON d   1      18.330 -20.426   0.192  0.00  0.00     0.025 A 
ATOM     33  C14 NON d   1      19.485 -19.655   0.029  0.00  0.00     0.033 A 
BRANCH  33  34
ATOM     34  N3  NON d   1      19.877 -19.221  -1.270  0.00  0.00    -0.301 NA
ATOM     35  H14 NON d   1      20.485 -18.408  -1.162  0.00  0.00     0.124 HD
ATOM     36  H15 NON d   1      20.410 -19.950  -1.742  0.00  0.00     0.124 HD
ENDBRANCH  33  34
ENDBRANCH  26  28
ENDBRANCH   4  24
TORSDOF 7
ENDMDL
MODEL 3
REMARK VINA RESULT:   -31.499      1.597      1.970
REMARK INTER + INTRA:         -35.145
REMARK INTER:                 -33.587
REMARK INTRA:                  -1.558
REMARK CONF_INDEPENDENT:        2.088
REMARK UNBOUND:                -1.558
REMARK  7 active torsions:
REMARK  status: ('A' for Active; 'I' for Inactive)
REMARK    1  A    between atoms: N1_4  and  C4_5 
REMARK    2  A    between atoms: C7_8  and  C8_9 
REMARK       I    between atoms: C8_9  and  N2_11 
REMARK    3  A    between atoms: N2_11  and  C9_12 
REMARK    4  A    between atoms: C14_17  and  N3_18 
REMARK       I    between atoms: N5_23  and  C18_24 
REMARK    5  A    between atoms: C18_24  and  O3_26 
REMARK    6  A    between atoms: O3_26  and  C19_27 
REMARK    7  A    between atoms: C19_27  and  C20_28 
ROOT
ATOM      1  C4  NON d   1      25.877 -16.562  -1.028  0.00  0.00     0.125 A 
ATOM      2  C5  NON d   1      24.776 -15.768  -1.355  0.00  0.00     0.051 A 
ATOM      3  C6  NON d   1      23.477 -16.207  -1.088  0.00  0.00     0.022 A 
ATOM      4  C7  NON d   1      23.274 -17.458  -0.518  0.00  0.00     0.050 A 
ATOM      5  C15 NON d   1      24.406 -18.199  -0.226  0.00  0.00     0.136 A 
ATOM      6  N4  NON d   1      25.680 -17.781  -0.473  0.00  0.00    -0.242 NA
ENDROOT
BRANCH   1   7
ATOM      7  N1  NON d   1      27.173 -16.143  -1.282  0.00  0.00    -0.362 N 
ATOM      8  C3  NON d   1      28.294 -17.091  -1.298  0.00  0.00     0.149 C 
ATOM      9  C2  NON d   1      29.381 -16.732  -2.359  0.00  0.00     0.103 C 
ATOM     10  C1  NON d   1      30.499 -17.791  -2.370  0.00  0.00     0.034 C 
ATOM     11  N5  NON d   1      29.842 -15.330  -2.231  0.00  0.00    -0.321 N 
ATOM     12  C17 NON d   1      28.821 -14.368  -1.779  0.00  0.00     0.148 C 
ATOM     13  C18 NON d   1      31.034 -14.794  -2.704  0.00  0.00     0.363 C 
ATOM     14  C16 NON d   1      27.370 -14.856  -1.952  0.00  0.00     0.144 C 
ATOM     15  O2  NON d   1      31.264 -13.588  -2.696  0.00  0.00    -0.238 OA
BRANCH  13  16
ATOM     16  O3  NON d   1      31.932 -15.713  -3.162  0.00  0.00    -0.299 OA
BRANCH  16  17
ATOM     17  C19 NON d   1      32.101 -15.669  -4.591  0.00  0.00     0.219 C 
BRANCH  17  18
ATOM     18  C20 NON d   1      30.910 -15.100  -5.337  0.00  0.00    -0.034 A 
ATOM     19  C21 NON d   1      31.046 -13.856  -5.978  0.00  0.00     0.009 A 
ATOM     20  C22 NON d   1      29.986 -13.298  -6.696  0.00  0.00     0.001 A 
ATOM     21  C23 NON d   1      28.772 -13.974  -6.786  0.00  0.00     0.000 A 
ATOM     22  C24 NON d   1      28.617 -15.201  -6.147  0.00  0.00     0.001 A 
ATOM     23  C25 NON d   1      29.677 -15.753  -5.420  0.00  0.00     0.009 A 
ENDBRANCH  17  18
ENDBRANCH  16  17
ENDBRANCH  13  16
ENDBRANCH   1   7
BRANCH   4  24
ATOM     24  C8  NON d   1      21.885 -17.905  -0.241  0.00  0.00     0.257 C 
ATOM     25  O1  NON d   1      20.984 -17.387  -0.895  0.00  0.00    -0.267 OA
ATOM     26  N2  NON d   1      21.735 -18.890   0.710  0.00  0.00    -0.321 N 
ATOM     27  H9  NON d   1      22.547 -19.295   1.167  0.00  0.00     0.169 HD
BRANCH  26  28
ATOM     28  C9  NON d   1      20.543 -19.555   1.081  0.00  0.00     0.056 A 
ATOM     29  C10 NON d   1      20.278 -20.050   2.357  0.00  0.00     0.031 A 
ATOM     30  C11 NON d   1      19.060 -20.678   2.627  0.00  0.00     0.002 A 
ATOM     31  C12 NON d   1      18.109 -20.826   1.620  0.00  0.00     0.002 A 
ATOM     32  C13 NON d   1      18.369 -20.343   0.338  0.00  0.00     0.025 A 
ATOM     33  C14 NON d   1      19.564 -19.668   0.070  0.00  0.00     0.033 A 
BRANCH  33  34
ATOM     34  N3  NON d   1      19.905 -19.325  -1.270  0.00  0.00    -0.301 NA
ATOM     35  H14 NON d   1      19.671 -18.341  -1.414  0.00  0.00     0.124 HD
ATOM     36  H15 NON d   1      20.907 -19.433  -1.419  0.00  0.00     0.124 HD
ENDBRANCH  33  34
ENDBRANCH  26  28
ENDBRANCH   4  24
TORSDOF 7
ENDMDL
MODEL 4
REMARK VINA RESULT:   -31.332      2.957      4.905
REMARK INTER + INTRA:         -35.371
REMARK INTER:                 -33.420
REMARK INTRA:                  -1.951
REMARK CONF_INDEPENDENT:        2.088
REMARK UNBOUND:                -1.951
REMARK  7 active torsions:
REMARK  status: ('A' for Active; 'I' for Inactive)
REMARK    1  A    between atoms: N1_4  and  C4_5 
REMARK    2  A    between atoms: C7_8  and  C8_9 
REMARK       I    between atoms: C8_9  and  N2_11 
REMARK    3  A    between atoms: N2_11  and  C9_12 
REMARK    4  A    between atoms: C14_17  and  N3_18 
REMARK       I    between atoms: N5_23  and  C18_24 
REMARK    5  A    between atoms: C18_24  and  O3_26 
REMARK    6  A    between atoms: O3_26  and  C19_27 
REMARK    7  A    between atoms: C19_27  and  C20_28 
ROOT
ATOM      1  C4  NON d   1      25.679 -16.144  -0.921  0.00  0.00     0.125 A 
ATOM      2  C5  NON d   1      25.850 -17.425  -0.391  0.00  0.00     0.051 A 
ATOM      3  C6  NON d   1      24.761 -18.288  -0.248  0.00  0.00     0.022 A 
ATOM      4  C7  NON d   1      23.488 -17.859  -0.609  0.00  0.00     0.050 A 
ATOM      5  C15 NON d   1      23.385 -16.577  -1.118  0.00  0.00     0.136 A 
ATOM      6  N4  NON d   1      24.439 -15.727  -1.272  0.00  0.00    -0.242 NA
ENDROOT
BRANCH   1   7
ATOM      7  N1  NON d   1      26.747 -15.275  -1.074  0.00  0.00    -0.362 N 
ATOM      8  C3  NON d   1      27.704 -15.426  -2.176  0.00  0.00     0.149 C 
ATOM      9  C2  NON d   1      28.226 -14.060  -2.723  0.00  0.00     0.103 C 
ATOM     10  C1  NON d   1      29.178 -14.280  -3.913  0.00  0.00     0.034 C 
ATOM     11  N5  NON d   1      28.755 -13.195  -1.643  0.00  0.00    -0.321 N 
ATOM     12  C17 NON d   1      28.080 -13.326  -0.340  0.00  0.00     0.148 C 
ATOM     13  C18 NON d   1      29.637 -12.130  -1.781  0.00  0.00     0.363 C 
ATOM     14  C16 NON d   1      26.682 -13.970  -0.412  0.00  0.00     0.144 C 
ATOM     15  O2  NON d   1      29.899 -11.366  -0.856  0.00  0.00    -0.238 OA
BRANCH  13  16
ATOM     16  O3  NON d   1      30.201 -12.011  -3.017  0.00  0.00    -0.299 OA
BRANCH  16  17
ATOM     17  C19 NON d   1      29.805 -10.809  -3.703  0.00  0.00     0.219 C 
BRANCH  17  18
ATOM     18  C20 NON d   1      28.330 -10.480  -3.569  0.00  0.00    -0.034 A 
ATOM     19  C21 NON d   1      27.396 -11.269  -4.263  0.00  0.00     0.009 A 
ATOM     20  C22 NON d   1      26.026 -11.020  -4.157  0.00  0.00     0.001 A 
ATOM     21  C23 NON d   1      25.566  -9.977  -3.357  0.00  0.00     0.000 A 
ATOM     22  C24 NON d   1      26.479  -9.179  -2.673  0.00  0.00     0.001 A 
ATOM     23  C25 NON d   1      27.851  -9.424  -2.788  0.00  0.00     0.009 A 
ENDBRANCH  17  18
ENDBRANCH  16  17
ENDBRANCH  13  16
ENDBRANCH   1   7
BRANCH   4  24
ATOM     24  C8  NON d   1      22.344 -18.794  -0.449  0.00  0.00     0.257 C 
ATOM     25  O1  NON d   1      22.236 -19.700  -1.270  0.00  0.00    -0.267 OA
ATOM     26  N2  NON d   1      21.520 -18.575   0.633  0.00  0.00    -0.321 N 
ATOM     27  H9  NON d   1      21.718 -17.826   1.290  0.00  0.00     0.169 HD
BRANCH  26  28
ATOM     28  C9  NON d   1      20.435 -19.374   1.064  0.00  0.00     0.056 A 
ATOM     29  C10 NON d   1      20.274 -19.855   2.363  0.00  0.00     0.031 A 
ATOM     30  C11 NON d   1      19.156 -20.624   2.692  0.00  0.00     0.002 A 
ATOM     31  C12 NON d   1      18.202 -20.927   1.723  0.00  0.00     0.002 A 
ATOM     32  C13 NON d   1      18.360 -20.458   0.419  0.00  0.00     0.025 A 
ATOM     33  C14 NON d   1      19.449 -19.645   0.090  0.00  0.00     0.033 A 
BRANCH  33  34
ATOM     34  N3  NON d   1      19.703 -19.307  -1.270  0.00  0.00    -0.301 NA
ATOM     35  H14 NON d   1      20.432 -19.930  -1.620  0.00  0.00     0.124 HD
ATOM     36  H15 NON d   1      18.867 -19.454  -1.834  0.00  0.00     0.124 HD
ENDBRANCH  33  34
ENDBRANCH  26  28
ENDBRANCH   4  24
TORSDOF 7
ENDMDL
MODEL 5
REMARK VINA RESULT:   -31.275      2.222      2.972
REMARK INTER + INTRA:         -35.665
REMARK INTER:                 -33.363
REMARK INTRA:                  -2.301
REMARK CONF_INDEPENDENT:        2.088
REMARK UNBOUND:                -2.301
REMARK  7 active torsions:
REMARK  status: ('A' for Active; 'I' for Inactive)
REMARK    1  A    between atoms: N1_4  and  C4_5 
REMARK    2  A    between atoms: C7_8  and  C8_9 
REMARK       I    between atoms: C8_9  and  N2_11 
REMARK    3  A    between atoms: N2_11  and  C9_12 
REMARK    4  A    between atoms: C14_17  and  N3_18 
REMARK       I    between atoms: N5_23  and  C18_24 
REMARK    5  A    between atoms: C18_24  and  O3_26 
REMARK    6  A    between atoms: O3_26  and  C19_27 
REMARK    7  A    between atoms: C19_27  and  C20_28 
ROOT
ATOM      1  C4  NON d   1      25.751 -16.163  -0.755  0.00  0.00     0.125 A 
ATOM      2  C5  NON d   1      25.801 -17.300   0.055  0.00  0.00     0.051 A 
ATOM      3  C6  NON d   1      24.698 -18.151   0.156  0.00  0.00     0.022 A 
ATOM      4  C7  NON d   1      23.528 -17.850  -0.532  0.00  0.00     0.050 A 
ATOM      5  C15 NON d   1      23.541 -16.706  -1.309  0.00  0.00     0.136 A 
ATOM      6  N4  NON d   1      24.611 -15.871  -1.426  0.00  0.00    -0.242 NA
ENDROOT
BRANCH   1   7
ATOM      7  N1  NON d   1      26.835 -15.309  -0.873  0.00  0.00    -0.362 N 
ATOM      8  C3  NON d   1      28.202 -15.822  -1.018  0.00  0.00     0.149 C 
ATOM      9  C2  NON d   1      29.090 -14.938  -1.949  0.00  0.00     0.103 C 
ATOM     10  C1  NON d   1      30.491 -15.557  -2.110  0.00  0.00     0.034 C 
ATOM     11  N5  NON d   1      29.074 -13.514  -1.542  0.00  0.00    -0.321 N 
ATOM     12  C17 NON d   1      27.806 -13.037  -0.962  0.00  0.00     0.148 C 
ATOM     13  C18 NON d   1      30.017 -12.542  -1.858  0.00  0.00     0.363 C 
ATOM     14  C16 NON d   1      26.589 -13.924  -1.283  0.00  0.00     0.144 C 
ATOM     15  O2  NON d   1      29.844 -11.351  -1.615  0.00  0.00    -0.238 OA
BRANCH  13  16
ATOM     16  O3  NON d   1      31.154 -13.018  -2.442  0.00  0.00    -0.299 OA
BRANCH  16  17
ATOM     17  C19 NON d   1      31.203 -12.774  -3.859  0.00  0.00     0.219 C 
BRANCH  17  18
ATOM     18  C20 NON d   1      30.100 -13.460  -4.642  0.00  0.00    -0.034 A 
ATOM     19  C21 NON d   1      30.393 -14.665  -5.306  0.00  0.00     0.009 A 
ATOM     20  C22 NON d   1      29.408 -15.347  -6.024  0.00  0.00     0.001 A 
ATOM     21  C23 NON d   1      28.114 -14.837  -6.091  0.00  0.00     0.000 A 
ATOM     22  C24 NON d   1      27.812 -13.639  -5.450  0.00  0.00     0.001 A 
ATOM     23  C25 NON d   1      28.802 -12.953  -4.740  0.00  0.00     0.009 A 
ENDBRANCH  17  18
ENDBRANCH  16  17
ENDBRANCH  13  16
ENDBRANCH   1   7
BRANCH   4  24
ATOM     24  C8  NON d   1      22.367 -18.770  -0.410  0.00  0.00     0.257 C 
ATOM     25  O1  NON d   1      22.238 -19.633  -1.273  0.00  0.00    -0.267 OA
ATOM     26  N2  NON d   1      21.554 -18.589   0.687  0.00  0.00    -0.321 N 
ATOM     27  H9  NON d   1      21.769 -17.876   1.378  0.00  0.00     0.169 HD
BRANCH  26  28
ATOM     28  C9  NON d   1      20.456 -19.387   1.085  0.00  0.00     0.056 A 
ATOM     29  C10 NON d   1      20.256 -19.866   2.380  0.00  0.00     0.031 A 
ATOM     30  C11 NON d   1      19.128 -20.635   2.676  0.00  0.00     0.002 A 
ATOM     31  C12 NON d   1      18.205 -20.940   1.679  0.00  0.00     0.002 A 
ATOM     32  C13 NON d   1      18.402 -20.474   0.379  0.00  0.00     0.025 A 
ATOM     33  C14 NON d   1      19.501 -19.661   0.083  0.00  0.00     0.033 A 
BRANCH  33  34
ATOM     34  N3  NON d   1      19.797 -19.325  -1.270  0.00  0.00    -0.301 NA
ATOM     35  H14 NON d   1      20.365 -18.477  -1.269  0.00  0.00     0.124 HD
ATOM     36  H15 NON d   1      20.342 -20.066  -1.708  0.00  0.00     0.124 HD
ENDBRANCH  33  34
ENDBRANCH  26  28
ENDBRANCH   4  24
TORSDOF 7
ENDMDL
MODEL 6
REMARK VINA RESULT:   -31.057      3.998      6.142
REMARK INTER + INTRA:         -35.412
REMARK INTER:                 -33.145
REMARK INTRA:                  -2.267
REMARK CONF_INDEPENDENT:        2.088
REMARK UNBOUND:                -2.267
REMARK  7 active torsions:
REMARK  status: ('A' for Active; 'I' for Inactive)
REMARK    1  A    between atoms: N1_4  and  C4_5 
REMARK    2  A    between atoms: C7_8  and  C8_9 
REMARK       I    between atoms: C8_9  and  N2_11 
REMARK    3  A    between atoms: N2_11  and  C9_12 
REMARK    4  A    between atoms: C14_17  and  N3_18 
REMARK       I    between atoms: N5_23  and  C18_24 
REMARK    5  A    between atoms: C18_24  and  O3_26 
REMARK    6  A    between atoms: O3_26  and  C19_27 
REMARK    7  A    between atoms: C19_27  and  C20_28 
ROOT
ATOM      1  C4  NON d   1      25.714 -15.998  -0.611  0.00  0.00     0.125 A 
ATOM      2  C5  NON d   1      24.548 -15.807  -1.357  0.00  0.00     0.051 A 
ATOM      3  C6  NON d   1      23.484 -16.705  -1.257  0.00  0.00     0.022 A 
ATOM      4  C7  NON d   1      23.593 -17.816  -0.429  0.00  0.00     0.050 A 
ATOM      5  C15 NON d   1      24.775 -17.952   0.276  0.00  0.00     0.136 A 
ATOM      6  N4  NON d   1      25.820 -17.080   0.196  0.00  0.00    -0.242 NA
ENDROOT
BRANCH   1   7
ATOM      7  N1  NON d   1      26.780 -15.116  -0.693  0.00  0.00    -0.362 N 
ATOM      8  C3  NON d   1      26.818 -14.055  -1.706  0.00  0.00     0.149 C 
ATOM      9  C2  NON d   1      27.488 -12.743  -1.190  0.00  0.00     0.103 C 
ATOM     10  C1  NON d   1      27.447 -11.650  -2.274  0.00  0.00     0.034 C 
ATOM     11  N5  NON d   1      28.824 -12.996  -0.601  0.00  0.00    -0.321 N 
ATOM     12  C17 NON d   1      28.977 -14.292   0.083  0.00  0.00     0.148 C 
ATOM     13  C18 NON d   1      29.847 -12.073  -0.420  0.00  0.00     0.363 C 
ATOM     14  C16 NON d   1      27.647 -14.963   0.477  0.00  0.00     0.144 C 
ATOM     15  O2  NON d   1      30.862 -12.330   0.222  0.00  0.00    -0.238 OA
BRANCH  13  16
ATOM     16  O3  NON d   1      29.643 -10.867  -1.025  0.00  0.00    -0.299 OA
BRANCH  16  17
ATOM     17  C19 NON d   1      29.640  -9.767  -0.098  0.00  0.00     0.219 C 
BRANCH  17  18
ATOM     18  C20 NON d   1      28.295  -9.514   0.557  0.00  0.00    -0.034 A 
ATOM     19  C21 NON d   1      28.012 -10.145   1.781  0.00  0.00     0.009 A 
ATOM     20  C22 NON d   1      26.796  -9.930   2.435  0.00  0.00     0.001 A 
ATOM     21  C23 NON d   1      25.844  -9.080   1.877  0.00  0.00     0.000 A 
ATOM     22  C24 NON d   1      26.106  -8.457   0.660  0.00  0.00     0.001 A 
ATOM     23  C25 NON d   1      27.319  -8.682   0.002  0.00  0.00     0.009 A 
ENDBRANCH  17  18
ENDBRANCH  16  17
ENDBRANCH  13  16
ENDBRANCH   1   7
BRANCH   4  24
ATOM     24  C8  NON d   1      22.447 -18.758  -0.337  0.00  0.00     0.257 C 
ATOM     25  O1  NON d   1      22.366 -19.635  -1.192  0.00  0.00    -0.267 OA
ATOM     26  N2  NON d   1      21.591 -18.579   0.728  0.00  0.00    -0.321 N 
ATOM     27  H9  NON d   1      21.767 -17.853   1.416  0.00  0.00     0.169 HD
BRANCH  26  28
ATOM     28  C9  NON d   1      20.496 -19.395   1.098  0.00  0.00     0.056 A 
ATOM     29  C10 NON d   1      20.276 -19.886   2.384  0.00  0.00     0.031 A 
ATOM     30  C11 NON d   1      19.152 -20.672   2.651  0.00  0.00     0.002 A 
ATOM     31  C12 NON d   1      18.254 -20.982   1.633  0.00  0.00     0.002 A 
ATOM     32  C13 NON d   1      18.472 -20.503   0.341  0.00  0.00     0.025 A 
ATOM     33  C14 NON d   1      19.566 -19.674   0.073  0.00  0.00     0.033 A 
BRANCH  33  34
ATOM     34  N3  NON d   1      19.885 -19.324  -1.270  0.00  0.00    -0.301 NA
ATOM     35  H14 NON d   1      20.522 -18.527  -1.247  0.00  0.00     0.124 HD
ATOM     36  H15 NON d   1      20.366 -20.095  -1.732  0.00  0.00     0.124 HD
ENDBRANCH  33  34
ENDBRANCH  26  28
ENDBRANCH   4  24
TORSDOF 7
ENDMDL
MODEL 7
REMARK VINA RESULT:   -30.794      3.012      3.795
REMARK INTER + INTRA:         -34.712
REMARK INTER:                 -32.882
REMARK INTRA:                  -1.830
REMARK CONF_INDEPENDENT:        2.088
REMARK UNBOUND:                -1.830
REMARK  7 active torsions:
REMARK  status: ('A' for Active; 'I' for Inactive)
REMARK    1  A    between atoms: N1_4  and  C4_5 
REMARK    2  A    between atoms: C7_8  and  C8_9 
REMARK       I    between atoms: C8_9  and  N2_11 
REMARK    3  A    between atoms: N2_11  and  C9_12 
REMARK    4  A    between atoms: C14_17  and  N3_18 
REMARK       I    between atoms: N5_23  and  C18_24 
REMARK    5  A    between atoms: C18_24  and  O3_26 
REMARK    6  A    between atoms: O3_26  and  C19_27 
REMARK    7  A    between atoms: C19_27  and  C20_28 
ROOT
ATOM      1  C4  NON d   1      25.808 -16.151  -0.684  0.00  0.00     0.125 A 
ATOM      2  C5  NON d   1      24.627 -15.903  -1.388  0.00  0.00     0.051 A 
ATOM      3  C6  NON d   1      23.536 -16.766  -1.274  0.00  0.00     0.022 A 
ATOM      4  C7  NON d   1      23.632 -17.900  -0.475  0.00  0.00     0.050 A 
ATOM      5  C15 NON d   1      24.830 -18.092   0.189  0.00  0.00     0.136 A 
ATOM      6  N4  NON d   1      25.901 -17.255   0.095  0.00  0.00    -0.242 NA
ENDROOT
BRANCH   1   7
ATOM      7  N1  NON d   1      26.901 -15.305  -0.781  0.00  0.00    -0.362 N 
ATOM      8  C3  NON d   1      27.383 -14.543   0.376  0.00  0.00     0.149 C 
ATOM      9  C2  NON d   1      28.936 -14.385   0.399  0.00  0.00     0.103 C 
ATOM     10  C1  NON d   1      29.387 -13.630   1.663  0.00  0.00     0.034 C 
ATOM     11  N5  NON d   1      29.459 -13.845  -0.878  0.00  0.00    -0.321 N 
ATOM     12  C17 NON d   1      28.716 -14.247  -2.085  0.00  0.00     0.148 C 
ATOM     13  C18 NON d   1      30.679 -13.212  -1.082  0.00  0.00     0.363 C 
ATOM     14  C16 NON d   1      27.829 -15.493  -1.898  0.00  0.00     0.144 C 
ATOM     15  O2  NON d   1      31.102 -12.939  -2.202  0.00  0.00    -0.238 OA
BRANCH  13  16
ATOM     16  O3  NON d   1      31.361 -12.903   0.059  0.00  0.00    -0.299 OA
BRANCH  16  17
ATOM     17  C19 NON d   1      32.653 -13.533   0.129  0.00  0.00     0.219 C 
BRANCH  17  18
ATOM     18  C20 NON d   1      32.620 -14.955   0.656  0.00  0.00    -0.034 A 
ATOM     19  C21 NON d   1      32.132 -15.974  -0.182  0.00  0.00     0.009 A 
ATOM     20  C22 NON d   1      32.100 -17.303   0.248  0.00  0.00     0.001 A 
ATOM     21  C23 NON d   1      32.554 -17.635   1.521  0.00  0.00     0.000 A 
ATOM     22  C24 NON d   1      33.029 -16.637   2.366  0.00  0.00     0.001 A 
ATOM     23  C25 NON d   1      33.051 -15.306   1.938  0.00  0.00     0.009 A 
ENDBRANCH  17  18
ENDBRANCH  16  17
ENDBRANCH  13  16
ENDBRANCH   1   7
BRANCH   4  24
ATOM     24  C8  NON d   1      22.457 -18.804  -0.366  0.00  0.00     0.257 C 
ATOM     25  O1  NON d   1      22.348 -19.691  -1.207  0.00  0.00    -0.267 OA
ATOM     26  N2  NON d   1      21.609 -18.581   0.696  0.00  0.00    -0.321 N 
ATOM     27  H9  NON d   1      21.808 -17.850   1.373  0.00  0.00     0.169 HD
BRANCH  26  28
ATOM     28  C9  NON d   1      20.489 -19.356   1.079  0.00  0.00     0.056 A 
ATOM     29  C10 NON d   1      20.281 -19.863   2.362  0.00  0.00     0.031 A 
ATOM     30  C11 NON d   1      19.131 -20.605   2.644  0.00  0.00     0.002 A 
ATOM     31  C12 NON d   1      18.195 -20.856   1.644  0.00  0.00     0.002 A 
ATOM     32  C13 NON d   1      18.400 -20.362   0.356  0.00  0.00     0.025 A 
ATOM     33  C14 NON d   1      19.521 -19.575   0.075  0.00  0.00     0.033 A 
BRANCH  33  34
ATOM     34  N3  NON d   1      19.821 -19.213  -1.270  0.00  0.00    -0.301 NA
ATOM     35  H14 NON d   1      20.680 -19.691  -1.542  0.00  0.00     0.124 HD
ATOM     36  H15 NON d   1      19.078 -19.525  -1.894  0.00  0.00     0.124 HD
ENDBRANCH  33  34
ENDBRANCH  26  28
ENDBRANCH   4  24
TORSDOF 7
ENDMDL
MODEL 8
REMARK VINA RESULT:   -30.370      3.223      5.065
REMARK INTER + INTRA:         -34.245
REMARK INTER:                 -32.458
REMARK INTRA:                  -1.787
REMARK CONF_INDEPENDENT:        2.088
REMARK UNBOUND:                -1.787
REMARK  7 active torsions:
REMARK  status: ('A' for Active; 'I' for Inactive)
REMARK    1  A    between atoms: N1_4  and  C4_5 
REMARK    2  A    between atoms: C7_8  and  C8_9 
REMARK       I    between atoms: C8_9  and  N2_11 
REMARK    3  A    between atoms: N2_11  and  C9_12 
REMARK    4  A    between atoms: C14_17  and  N3_18 
REMARK       I    between atoms: N5_23  and  C18_24 
REMARK    5  A    between atoms: C18_24  and  O3_26 
REMARK    6  A    between atoms: O3_26  and  C19_27 
REMARK    7  A    between atoms: C19_27  and  C20_28 
ROOT
ATOM      1  C4  NON d   1      25.917 -16.240  -0.558  0.00  0.00     0.125 A 
ATOM      2  C5  NON d   1      26.006 -17.496   0.046  0.00  0.00     0.051 A 
ATOM      3  C6  NON d   1      24.890 -18.333   0.114  0.00  0.00     0.022 A 
ATOM      4  C7  NON d   1      23.671 -17.903  -0.397  0.00  0.00     0.050 A 
ATOM      5  C15 NON d   1      23.649 -16.646  -0.974  0.00  0.00     0.136 A 
ATOM      6  N4  NON d   1      24.730 -15.821  -1.056  0.00  0.00    -0.242 NA
ENDROOT
BRANCH   1   7
ATOM      7  N1  NON d   1      27.014 -15.396  -0.638  0.00  0.00    -0.362 N 
ATOM      8  C3  NON d   1      27.537 -14.706   0.546  0.00  0.00     0.149 C 
ATOM      9  C2  NON d   1      29.091 -14.560   0.530  0.00  0.00     0.103 C 
ATOM     10  C1  NON d   1      29.586 -13.883   1.822  0.00  0.00     0.034 C 
ATOM     11  N5  NON d   1      29.579 -13.949  -0.728  0.00  0.00    -0.321 N 
ATOM     12  C17 NON d   1      28.796 -14.275  -1.934  0.00  0.00     0.148 C 
ATOM     13  C18 NON d   1      30.798 -13.313  -0.932  0.00  0.00     0.363 C 
ATOM     14  C16 NON d   1      27.906 -15.524  -1.793  0.00  0.00     0.144 C 
ATOM     15  O2  NON d   1      31.188 -12.976  -2.047  0.00  0.00    -0.238 OA
BRANCH  13  16
ATOM     16  O3  NON d   1      31.516 -13.076   0.203  0.00  0.00    -0.299 OA
BRANCH  16  17
ATOM     17  C19 NON d   1      31.627 -11.676   0.516  0.00  0.00     0.219 C 
BRANCH  17  18
ATOM     18  C20 NON d   1      30.323 -10.910   0.396  0.00  0.00    -0.034 A 
ATOM     19  C21 NON d   1      30.024 -10.272  -0.821  0.00  0.00     0.009 A 
ATOM     20  C22 NON d   1      28.827  -9.572  -0.989  0.00  0.00     0.001 A 
ATOM     21  C23 NON d   1      27.909  -9.497   0.055  0.00  0.00     0.000 A 
ATOM     22  C24 NON d   1      28.196 -10.114   1.270  0.00  0.00     0.001 A 
ATOM     23  C25 NON d   1      29.399 -10.806   1.440  0.00  0.00     0.009 A 
ENDBRANCH  17  18
ENDBRANCH  16  17
ENDBRANCH  13  16
ENDBRANCH   1   7
BRANCH   4  24
ATOM     24  C8  NON d   1      22.497 -18.810  -0.315  0.00  0.00     0.257 C 
ATOM     25  O1  NON d   1      22.411 -19.700  -1.156  0.00  0.00    -0.267 OA
ATOM     26  N2  NON d   1      21.622 -18.588   0.726  0.00  0.00    -0.321 N 
ATOM     27  H9  NON d   1      21.803 -17.855   1.405  0.00  0.00     0.169 HD
BRANCH  26  28
ATOM     28  C9  NON d   1      20.496 -19.365   1.083  0.00  0.00     0.056 A 
ATOM     29  C10 NON d   1      20.272 -19.893   2.355  0.00  0.00     0.031 A 
ATOM     30  C11 NON d   1      19.117 -20.635   2.612  0.00  0.00     0.002 A 
ATOM     31  C12 NON d   1      18.191 -20.866   1.598  0.00  0.00     0.002 A 
ATOM     32  C13 NON d   1      18.411 -20.351   0.321  0.00  0.00     0.025 A 
ATOM     33  C14 NON d   1      19.538 -19.563   0.065  0.00  0.00     0.033 A 
BRANCH  33  34
ATOM     34  N3  NON d   1      19.854 -19.179  -1.270  0.00  0.00    -0.301 NA
ATOM     35  H14 NON d   1      20.812 -19.471  -1.465  0.00  0.00     0.124 HD
ATOM     36  H15 NON d   1      19.241 -19.657  -1.930  0.00  0.00     0.124 HD
ENDBRANCH  33  34
ENDBRANCH  26  28
ENDBRANCH   4  24
TORSDOF 7
ENDMDL
MODEL 9
REMARK VINA RESULT:   -30.256      2.954      4.615
REMARK INTER + INTRA:         -34.390
REMARK INTER:                 -32.344
REMARK INTRA:                  -2.045
REMARK CONF_INDEPENDENT:        2.088
REMARK UNBOUND:                -2.045
REMARK  7 active torsions:
REMARK  status: ('A' for Active; 'I' for Inactive)
REMARK    1  A    between atoms: N1_4  and  C4_5 
REMARK    2  A    between atoms: C7_8  and  C8_9 
REMARK       I    between atoms: C8_9  and  N2_11 
REMARK    3  A    between atoms: N2_11  and  C9_12 
REMARK    4  A    between atoms: C14_17  and  N3_18 
REMARK       I    between atoms: N5_23  and  C18_24 
REMARK    5  A    between atoms: C18_24  and  O3_26 
REMARK    6  A    between atoms: O3_26  and  C19_27 
REMARK    7  A    between atoms: C19_27  and  C20_28 
ROOT
ATOM      1  C4  NON d   1      25.870 -16.394  -0.409  0.00  0.00     0.125 A 
ATOM      2  C5  NON d   1      25.873 -17.611   0.277  0.00  0.00     0.051 A 
ATOM      3  C6  NON d   1      24.735 -18.419   0.297  0.00  0.00     0.022 A 
ATOM      4  C7  NON d   1      23.577 -17.998  -0.346  0.00  0.00     0.050 A 
ATOM      5  C15 NON d   1      23.637 -16.780  -0.999  0.00  0.00     0.136 A 
ATOM      6  N4  NON d   1      24.742 -15.984  -1.036  0.00  0.00    -0.242 NA
ENDROOT
BRANCH   1   7
ATOM      7  N1  NON d   1      26.991 -15.579  -0.445  0.00  0.00    -0.362 N 
ATOM      8  C3  NON d   1      28.345 -16.143  -0.489  0.00  0.00     0.149 C 
ATOM      9  C2  NON d   1      29.331 -15.293  -1.350  0.00  0.00     0.103 C 
ATOM     10  C1  NON d   1      30.717 -15.963  -1.407  0.00  0.00     0.034 C 
ATOM     11  N5  NON d   1      29.337 -13.868  -0.945  0.00  0.00    -0.321 N 
ATOM     12  C17 NON d   1      28.047 -13.344  -0.460  0.00  0.00     0.148 C 
ATOM     13  C18 NON d   1      30.335 -12.932  -1.189  0.00  0.00     0.363 C 
ATOM     14  C16 NON d   1      26.825 -14.188  -0.871  0.00  0.00     0.144 C 
ATOM     15  O2  NON d   1      30.187 -11.735  -0.959  0.00  0.00    -0.238 OA
BRANCH  13  16
ATOM     16  O3  NON d   1      31.495 -13.450  -1.687  0.00  0.00    -0.299 OA
BRANCH  16  17
ATOM     17  C19 NON d   1      32.571 -13.438  -0.732  0.00  0.00     0.219 C 
BRANCH  17  18
ATOM     18  C20 NON d   1      32.123 -13.222   0.701  0.00  0.00    -0.034 A 
ATOM     19  C21 NON d   1      32.201 -11.928   1.246  0.00  0.00     0.009 A 
ATOM     20  C22 NON d   1      31.782 -11.673   2.554  0.00  0.00     0.001 A 
ATOM     21  C23 NON d   1      31.278 -12.706   3.339  0.00  0.00     0.000 A 
ATOM     22  C24 NON d   1      31.205 -13.995   2.819  0.00  0.00     0.001 A 
ATOM     23  C25 NON d   1      31.634 -14.251   1.513  0.00  0.00     0.009 A 
ENDBRANCH  17  18
ENDBRANCH  16  17
ENDBRANCH  13  16
ENDBRANCH   1   7
BRANCH   4  24
ATOM     24  C8  NON d   1      22.377 -18.874  -0.312  0.00  0.00     0.257 C 
ATOM     25  O1  NON d   1      22.234 -19.672  -1.233  0.00  0.00    -0.267 OA
ATOM     26  N2  NON d   1      21.544 -18.732   0.777  0.00  0.00    -0.321 N 
ATOM     27  H9  NON d   1      21.771 -18.076   1.519  0.00  0.00     0.169 HD
BRANCH  26  28
ATOM     28  C9  NON d   1      20.406 -19.508   1.096  0.00  0.00     0.056 A 
ATOM     29  C10 NON d   1      20.147 -20.051   2.354  0.00  0.00     0.031 A 
ATOM     30  C11 NON d   1      18.983 -20.790   2.573  0.00  0.00     0.002 A 
ATOM     31  C12 NON d   1      18.081 -21.003   1.533  0.00  0.00     0.002 A 
ATOM     32  C13 NON d   1      18.336 -20.473   0.268  0.00  0.00     0.025 A 
ATOM     33  C14 NON d   1      19.473 -19.688   0.052  0.00  0.00     0.033 A 
BRANCH  33  34
ATOM     34  N3  NON d   1      19.824 -19.288  -1.270  0.00  0.00    -0.301 NA
ATOM     35  H14 NON d   1      20.301 -18.387  -1.212  0.00  0.00     0.124 HD
ATOM     36  H15 NON d   1      20.470 -19.959  -1.683  0.00  0.00     0.124 HD
ENDBRANCH  33  34
ENDBRANCH  26  28
ENDBRANCH   4  24
TORSDOF 7
ENDMDL
