MODEL 1
REMARK VINA RESULT:    -9.690      0.000      0.000
REMARK INTER + INTRA:         -14.683
REMARK INTER:                 -12.971
REMARK INTRA:                  -1.711
REMARK CONF_INDEPENDENT:        3.281
REMARK UNBOUND:                -1.711
REMARK  11 active torsions:
REMARK  status: ('A' for Active; 'I' for Inactive)
REMARK    1  A    between atoms: C1_2  and  C2_3 
REMARK       I    between atoms: C1_2  and  N5_30 
REMARK    2  A    between atoms: C2_3  and  C3_4 
REMARK    3  A    between atoms: C3_4  and  C4_5 
REMARK    4  A    between atoms: C4_5  and  C5_6 
REMARK    5  A    between atoms: C5_6  and  C6_7 
REMARK    6  A    between atoms: C6_7  and  C7_8 
REMARK    7  A    between atoms: C7_8  and  C8_9 
REMARK       I    between atoms: C8_9  and  N1_11 
REMARK    8  A    between atoms: N1_11  and  C9_12 
REMARK    9  A    between atoms: C13_16  and  C14_17 
REMARK   10  A    between atoms: N2_19  and  C16_20 
REMARK   11  A    between atoms: N5_30  and  O3_31 
ROOT
ATOM      1  C9  NON d   1      26.027 -10.978  -5.071  0.00  0.00     0.035 A 
ATOM      2  C10 NON d   1      27.244 -11.017  -5.760  0.00  0.00     0.029 A 
ATOM      3  C11 NON d   1      28.103 -12.104  -5.648  0.00  0.00     0.003 A 
ATOM      4  C12 NON d   1      27.758 -13.180  -4.840  0.00  0.00     0.014 A 
ATOM      5  C13 NON d   1      26.546 -13.188  -4.130  0.00  0.00    -0.003 A 
ATOM      6  C22 NON d   1      25.684 -12.078  -4.255  0.00  0.00     0.043 A 
ENDROOT
BRANCH   1   7
ATOM      7  N1  NON d   1      25.136  -9.871  -5.164  0.00  0.00    -0.327 N 
ATOM      8  C8  NON d   1      25.172  -8.721  -4.381  0.00  0.00     0.222 C 
ATOM      9  O2  NON d   1      25.986  -8.487  -3.490  0.00  0.00    -0.273 OA
ATOM     10  H13 NON d   1      24.403  -9.940  -5.861  0.00  0.00     0.169 HD
BRANCH   8  11
ATOM     11  C7  NON d   1      24.072  -7.713  -4.704  0.00  0.00     0.103 C 
BRANCH  11  12
ATOM     12  C6  NON d   1      23.546  -7.936  -6.132  0.00  0.00     0.009 C 
BRANCH  12  13
ATOM     13  C5  NON d   1      23.061  -6.694  -6.889  0.00  0.00     0.000 C 
BRANCH  13  14
ATOM     14  C4  NON d   1      22.141  -6.971  -8.085  0.00  0.00     0.000 C 
BRANCH  14  15
ATOM     15  C3  NON d   1      21.113  -5.864  -8.321  0.00  0.00     0.009 C 
BRANCH  15  16
ATOM     16  C2  NON d   1      19.949  -5.910  -7.333  0.00  0.00     0.105 C 
BRANCH  16  17
ATOM     17  C1  NON d   1      18.711  -6.640  -7.826  0.00  0.00     0.240 C 
ATOM     18  O1  NON d   1      18.014  -6.271  -8.760  0.00  0.00    -0.271 OA
ATOM     19  N5  NON d   1      18.509  -7.804  -7.090  0.00  0.00    -0.237 N 
ATOM     20  H23 NON d   1      18.865  -7.858  -6.140  0.00  0.00     0.197 HD
BRANCH  19  21
ATOM     21  O3  NON d   1      17.270  -8.449  -7.295  0.00  0.00    -0.287 OA
ATOM     22  H24 NON d   1      16.980  -8.074  -8.147  0.00  0.00     0.244 HD
ENDBRANCH  19  21
ENDBRANCH  16  17
ENDBRANCH  15  16
ENDBRANCH  14  15
ENDBRANCH  13  14
ENDBRANCH  12  13
ENDBRANCH  11  12
ENDBRANCH   8  11
ENDBRANCH   1   7
BRANCH   5  23
ATOM     23  C14 NON d   1      26.216 -14.334  -3.286  0.00  0.00     0.102 A 
ATOM     24  C15 NON d   1      24.947 -14.812  -3.046  0.00  0.00     0.148 A 
ATOM     25  N2  NON d   1      25.107 -15.890  -2.211  0.00  0.00    -0.247 N 
ATOM     26  N3  NON d   1      26.429 -16.059  -1.956  0.00  0.00     0.010 NA
ATOM     27  N4  NON d   1      27.110 -15.115  -2.606  0.00  0.00    -0.158 NA
BRANCH  25  28
ATOM     28  C16 NON d   1      24.093 -16.731  -1.670  0.00  0.00     0.054 A 
ATOM     29  C17 NON d   1      24.025 -18.090  -2.023  0.00  0.00     0.032 A 
ATOM     30  C18 NON d   1      23.028 -18.913  -1.489  0.00  0.00     0.020 A 
ATOM     31  C19 NON d   1      22.096 -18.384  -0.600  0.00  0.00     0.006 A 
ATOM     32  I1  NON d   1      20.617 -19.613   0.189  0.00  0.00    -0.045 I 
ATOM     33  C20 NON d   1      22.152 -17.038  -0.242  0.00  0.00     0.020 A 
ATOM     34  C21 NON d   1      23.149 -16.210  -0.775  0.00  0.00     0.032 A 
ENDBRANCH  25  28
ENDBRANCH   5  23
TORSDOF 11
ENDMDL
MODEL 2
REMARK VINA RESULT:    -9.083      5.138      6.768
REMARK INTER + INTRA:         -15.798
REMARK INTER:                 -12.365
REMARK INTRA:                  -3.434
REMARK CONF_INDEPENDENT:        3.281
REMARK UNBOUND:                -3.434
REMARK  11 active torsions:
REMARK  status: ('A' for Active; 'I' for Inactive)
REMARK    1  A    between atoms: C1_2  and  C2_3 
REMARK       I    between atoms: C1_2  and  N5_30 
REMARK    2  A    between atoms: C2_3  and  C3_4 
REMARK    3  A    between atoms: C3_4  and  C4_5 
REMARK    4  A    between atoms: C4_5  and  C5_6 
REMARK    5  A    between atoms: C5_6  and  C6_7 
REMARK    6  A    between atoms: C6_7  and  C7_8 
REMARK    7  A    between atoms: C7_8  and  C8_9 
REMARK       I    between atoms: C8_9  and  N1_11 
REMARK    8  A    between atoms: N1_11  and  C9_12 
REMARK    9  A    between atoms: C13_16  and  C14_17 
REMARK   10  A    between atoms: N2_19  and  C16_20 
REMARK   11  A    between atoms: N5_30  and  O3_31 
ROOT
ATOM      1  C9  NON d   1      28.480 -15.972  -2.629  0.00  0.00     0.035 A 
ATOM      2  C10 NON d   1      29.250 -16.099  -1.468  0.00  0.00     0.029 A 
ATOM      3  C11 NON d   1      28.663 -16.381  -0.240  0.00  0.00     0.003 A 
ATOM      4  C12 NON d   1      27.287 -16.544  -0.150  0.00  0.00     0.014 A 
ATOM      5  C13 NON d   1      26.472 -16.428  -1.288  0.00  0.00    -0.003 A 
ATOM      6  C22 NON d   1      27.082 -16.143  -2.528  0.00  0.00     0.043 A 
ENDROOT
BRANCH   1   7
ATOM      7  N1  NON d   1      29.058 -15.674  -3.896  0.00  0.00    -0.327 N 
ATOM      8  C8  NON d   1      28.368 -15.516  -5.095  0.00  0.00     0.222 C 
ATOM      9  O2  NON d   1      27.151 -15.608  -5.238  0.00  0.00    -0.273 OA
ATOM     10  H13 NON d   1      30.067 -15.579  -3.920  0.00  0.00     0.169 HD
BRANCH   8  11
ATOM     11  C7  NON d   1      29.265 -15.215  -6.294  0.00  0.00     0.103 C 
BRANCH  11  12
ATOM     12  C6  NON d   1      29.396 -13.696  -6.495  0.00  0.00     0.009 C 
BRANCH  12  13
ATOM     13  C5  NON d   1      29.121 -12.813  -5.274  0.00  0.00     0.000 C 
BRANCH  13  14
ATOM     14  C4  NON d   1      27.640 -12.629  -4.916  0.00  0.00     0.000 C 
BRANCH  14  15
ATOM     15  C3  NON d   1      27.342 -11.279  -4.263  0.00  0.00     0.009 C 
BRANCH  15  16
ATOM     16  C2  NON d   1      26.197 -11.344  -3.254  0.00  0.00     0.105 C 
BRANCH  16  17
ATOM     17  C1  NON d   1      25.656 -12.736  -2.980  0.00  0.00     0.240 C 
ATOM     18  O1  NON d   1      25.973 -13.429  -2.024  0.00  0.00    -0.271 OA
ATOM     19  N5  NON d   1      24.722 -13.092  -3.948  0.00  0.00    -0.237 N 
ATOM     20  H23 NON d   1      24.779 -12.672  -4.871  0.00  0.00     0.197 HD
BRANCH  19  21
ATOM     21  O3  NON d   1      24.317 -14.444  -3.939  0.00  0.00    -0.287 OA
ATOM     22  H24 NON d   1      24.916 -14.835  -3.276  0.00  0.00     0.244 HD
ENDBRANCH  19  21
ENDBRANCH  16  17
ENDBRANCH  15  16
ENDBRANCH  14  15
ENDBRANCH  13  14
ENDBRANCH  12  13
ENDBRANCH  11  12
ENDBRANCH   8  11
ENDBRANCH   1   7
BRANCH   5  23
ATOM     23  C14 NON d   1      25.027 -16.602  -1.157  0.00  0.00     0.102 A 
ATOM     24  C15 NON d   1      24.397 -17.728  -0.678  0.00  0.00     0.148 A 
ATOM     25  N2  NON d   1      23.053 -17.452  -0.728  0.00  0.00    -0.247 N 
ATOM     26  N3  NON d   1      22.877 -16.200  -1.220  0.00  0.00     0.010 NA
ATOM     27  N4  NON d   1      24.074 -15.676  -1.484  0.00  0.00    -0.158 NA
BRANCH  25  28
ATOM     28  C16 NON d   1      21.974 -18.298  -0.342  0.00  0.00     0.054 A 
ATOM     29  C17 NON d   1      21.730 -18.573   1.015  0.00  0.00     0.032 A 
ATOM     30  C18 NON d   1      20.669 -19.404   1.390  0.00  0.00     0.020 A 
ATOM     31  C19 NON d   1      19.847 -19.963   0.414  0.00  0.00     0.006 A 
ATOM     32  I1  NON d   1      18.273 -21.197   0.980  0.00  0.00    -0.045 I 
ATOM     33  C20 NON d   1      20.079 -19.698  -0.935  0.00  0.00     0.020 A 
ATOM     34  C21 NON d   1      21.141 -18.866  -1.315  0.00  0.00     0.032 A 
ENDBRANCH  25  28
ENDBRANCH   5  23
TORSDOF 11
ENDMDL
MODEL 3
REMARK VINA RESULT:    -8.994      8.193     10.236
REMARK INTER + INTRA:         -15.454
REMARK INTER:                 -12.275
REMARK INTRA:                  -3.179
REMARK CONF_INDEPENDENT:        3.281
REMARK UNBOUND:                -3.179
REMARK  11 active torsions:
REMARK  status: ('A' for Active; 'I' for Inactive)
REMARK    1  A    between atoms: C1_2  and  C2_3 
REMARK       I    between atoms: C1_2  and  N5_30 
REMARK    2  A    between atoms: C2_3  and  C3_4 
REMARK    3  A    between atoms: C3_4  and  C4_5 
REMARK    4  A    between atoms: C4_5  and  C5_6 
REMARK    5  A    between atoms: C5_6  and  C6_7 
REMARK    6  A    between atoms: C6_7  and  C7_8 
REMARK    7  A    between atoms: C7_8  and  C8_9 
REMARK       I    between atoms: C8_9  and  N1_11 
REMARK    8  A    between atoms: N1_11  and  C9_12 
REMARK    9  A    between atoms: C13_16  and  C14_17 
REMARK   10  A    between atoms: N2_19  and  C16_20 
REMARK   11  A    between atoms: N5_30  and  O3_31 
ROOT
ATOM      1  C9  NON d   1      28.568 -15.260   0.623  0.00  0.00     0.035 A 
ATOM      2  C10 NON d   1      29.446 -15.964  -0.206  0.00  0.00     0.029 A 
ATOM      3  C11 NON d   1      28.978 -16.860  -1.160  0.00  0.00     0.003 A 
ATOM      4  C12 NON d   1      27.612 -17.068  -1.304  0.00  0.00     0.014 A 
ATOM      5  C13 NON d   1      26.690 -16.384  -0.496  0.00  0.00    -0.003 A 
ATOM      6  C22 NON d   1      27.181 -15.476   0.467  0.00  0.00     0.043 A 
ENDROOT
BRANCH   1   7
ATOM      7  N1  NON d   1      29.025 -14.344   1.614  0.00  0.00    -0.327 N 
ATOM      8  C8  NON d   1      28.741 -12.982   1.665  0.00  0.00     0.222 C 
ATOM      9  O2  NON d   1      28.047 -12.365   0.860  0.00  0.00    -0.273 OA
ATOM     10  H13 NON d   1      29.620 -14.726   2.340  0.00  0.00     0.169 HD
BRANCH   8  11
ATOM     11  C7  NON d   1      29.388 -12.256   2.842  0.00  0.00     0.103 C 
BRANCH  11  12
ATOM     12  C6  NON d   1      28.309 -11.674   3.770  0.00  0.00     0.009 C 
BRANCH  12  13
ATOM     13  C5  NON d   1      28.798 -10.989   5.051  0.00  0.00     0.000 C 
BRANCH  13  14
ATOM     14  C4  NON d   1      28.302 -11.613   6.361  0.00  0.00     0.000 C 
BRANCH  14  15
ATOM     15  C3  NON d   1      27.593 -12.952   6.159  0.00  0.00     0.009 C 
BRANCH  15  16
ATOM     16  C2  NON d   1      28.546 -14.145   6.202  0.00  0.00     0.105 C 
BRANCH  16  17
ATOM     17  C1  NON d   1      28.995 -14.663   4.847  0.00  0.00     0.240 C 
ATOM     18  O1  NON d   1      28.257 -15.187   4.024  0.00  0.00    -0.271 OA
ATOM     19  N5  NON d   1      30.352 -14.420   4.661  0.00  0.00    -0.237 N 
ATOM     20  H23 NON d   1      30.958 -14.342   5.473  0.00  0.00     0.197 HD
BRANCH  19  21
ATOM     21  O3  NON d   1      30.939 -15.056   3.545  0.00  0.00    -0.287 OA
ATOM     22  H24 NON d   1      30.553 -15.950   3.590  0.00  0.00     0.244 HD
ENDBRANCH  19  21
ENDBRANCH  16  17
ENDBRANCH  15  16
ENDBRANCH  14  15
ENDBRANCH  13  14
ENDBRANCH  12  13
ENDBRANCH  11  12
ENDBRANCH   8  11
ENDBRANCH   1   7
BRANCH   5  23
ATOM     23  C14 NON d   1      25.260 -16.629  -0.671  0.00  0.00     0.102 A 
ATOM     24  C15 NON d   1      24.553 -17.672  -0.115  0.00  0.00     0.148 A 
ATOM     25  N2  NON d   1      23.257 -17.509  -0.537  0.00  0.00    -0.247 N 
ATOM     26  N3  NON d   1      23.183 -16.404  -1.321  0.00  0.00     0.010 NA
ATOM     27  N4  NON d   1      24.398 -15.864  -1.408  0.00  0.00    -0.158 NA
BRANCH  25  28
ATOM     28  C16 NON d   1      22.133 -18.329  -0.235  0.00  0.00     0.054 A 
ATOM     29  C17 NON d   1      21.762 -18.575   1.099  0.00  0.00     0.032 A 
ATOM     30  C18 NON d   1      20.656 -19.381   1.390  0.00  0.00     0.020 A 
ATOM     31  C19 NON d   1      19.916 -19.944   0.354  0.00  0.00     0.006 A 
ATOM     32  I1  NON d   1      18.275 -21.140   0.797  0.00  0.00    -0.045 I 
ATOM     33  C20 NON d   1      20.273 -19.708  -0.973  0.00  0.00     0.020 A 
ATOM     34  C21 NON d   1      21.380 -18.901  -1.269  0.00  0.00     0.032 A 
ENDBRANCH  25  28
ENDBRANCH   5  23
TORSDOF 11
ENDMDL
MODEL 4
REMARK VINA RESULT:    -8.054      5.025      6.199
REMARK INTER + INTRA:         -15.040
REMARK INTER:                 -11.335
REMARK INTRA:                  -3.705
REMARK CONF_INDEPENDENT:        3.281
REMARK UNBOUND:                -3.705
REMARK  11 active torsions:
REMARK  status: ('A' for Active; 'I' for Inactive)
REMARK    1  A    between atoms: C1_2  and  C2_3 
REMARK       I    between atoms: C1_2  and  N5_30 
REMARK    2  A    between atoms: C2_3  and  C3_4 
REMARK    3  A    between atoms: C3_4  and  C4_5 
REMARK    4  A    between atoms: C4_5  and  C5_6 
REMARK    5  A    between atoms: C5_6  and  C6_7 
REMARK    6  A    between atoms: C6_7  and  C7_8 
REMARK    7  A    between atoms: C7_8  and  C8_9 
REMARK       I    between atoms: C8_9  and  N1_11 
REMARK    8  A    between atoms: N1_11  and  C9_12 
REMARK    9  A    between atoms: C13_16  and  C14_17 
REMARK   10  A    between atoms: N2_19  and  C16_20 
REMARK   11  A    between atoms: N5_30  and  O3_31 
ROOT
ATOM      1  C9  NON d   1      29.778 -14.821  -4.098  0.00  0.00     0.035 A 
ATOM      2  C10 NON d   1      30.981 -15.429  -3.724  0.00  0.00     0.029 A 
ATOM      3  C11 NON d   1      31.050 -16.278  -2.627  0.00  0.00     0.003 A 
ATOM      4  C12 NON d   1      29.910 -16.538  -1.878  0.00  0.00     0.014 A 
ATOM      5  C13 NON d   1      28.678 -15.954  -2.214  0.00  0.00    -0.003 A 
ATOM      6  C22 NON d   1      28.623 -15.094  -3.333  0.00  0.00     0.043 A 
ENDROOT
BRANCH   1   7
ATOM      7  N1  NON d   1      29.684 -13.940  -5.213  0.00  0.00    -0.327 N 
ATOM      8  C8  NON d   1      28.838 -14.090  -6.309  0.00  0.00     0.222 C 
ATOM      9  O2  NON d   1      28.041 -15.010  -6.475  0.00  0.00    -0.273 OA
ATOM     10  H13 NON d   1      30.301 -13.136  -5.205  0.00  0.00     0.169 HD
BRANCH   8  11
ATOM     11  C7  NON d   1      28.976 -12.988  -7.356  0.00  0.00     0.103 C 
BRANCH  11  12
ATOM     12  C6  NON d   1      27.661 -12.200  -7.479  0.00  0.00     0.009 C 
BRANCH  12  13
ATOM     13  C5  NON d   1      27.603 -10.843  -6.771  0.00  0.00     0.000 C 
BRANCH  13  14
ATOM     14  C4  NON d   1      26.761 -10.805  -5.489  0.00  0.00     0.000 C 
BRANCH  14  15
ATOM     15  C3  NON d   1      26.882 -12.079  -4.653  0.00  0.00     0.009 C 
BRANCH  15  16
ATOM     16  C2  NON d   1      25.588 -12.439  -3.924  0.00  0.00     0.105 C 
BRANCH  16  17
ATOM     17  C1  NON d   1      25.200 -13.906  -3.982  0.00  0.00     0.240 C 
ATOM     18  O1  NON d   1      24.394 -14.442  -3.235  0.00  0.00    -0.271 OA
ATOM     19  N5  NON d   1      25.861 -14.541  -5.029  0.00  0.00    -0.237 N 
ATOM     20  H23 NON d   1      26.751 -14.171  -5.350  0.00  0.00     0.197 HD
BRANCH  19  21
ATOM     21  O3  NON d   1      25.765 -15.949  -5.048  0.00  0.00    -0.287 OA
ATOM     22  H24 NON d   1      26.660 -16.214  -5.331  0.00  0.00     0.244 HD
ENDBRANCH  19  21
ENDBRANCH  16  17
ENDBRANCH  15  16
ENDBRANCH  14  15
ENDBRANCH  13  14
ENDBRANCH  12  13
ENDBRANCH  11  12
ENDBRANCH   8  11
ENDBRANCH   1   7
BRANCH   5  23
ATOM     23  C14 NON d   1      27.498 -16.246  -1.403  0.00  0.00     0.102 A 
ATOM     24  C15 NON d   1      26.344 -16.844  -1.856  0.00  0.00     0.148 A 
ATOM     25  N2  NON d   1      25.514 -16.924  -0.765  0.00  0.00    -0.247 N 
ATOM     26  N3  NON d   1      26.147 -16.393   0.311  0.00  0.00     0.010 NA
ATOM     27  N4  NON d   1      27.354 -15.977  -0.069  0.00  0.00    -0.158 NA
BRANCH  25  28
ATOM     28  C16 NON d   1      24.198 -17.465  -0.710  0.00  0.00     0.054 A 
ATOM     29  C17 NON d   1      23.078 -16.652  -0.950  0.00  0.00     0.032 A 
ATOM     30  C18 NON d   1      21.787 -17.188  -0.895  0.00  0.00     0.020 A 
ATOM     31  C19 NON d   1      21.608 -18.537  -0.601  0.00  0.00     0.006 A 
ATOM     32  I1  NON d   1      19.687 -19.325  -0.520  0.00  0.00    -0.045 I 
ATOM     33  C20 NON d   1      22.711 -19.355  -0.360  0.00  0.00     0.020 A 
ATOM     34  C21 NON d   1      24.006 -18.822  -0.414  0.00  0.00     0.032 A 
ENDBRANCH  25  28
ENDBRANCH   5  23
TORSDOF 11
ENDMDL
MODEL 5
REMARK VINA RESULT:    -7.613      5.932      8.036
REMARK INTER + INTRA:         -15.008
REMARK INTER:                 -10.894
REMARK INTRA:                  -4.114
REMARK CONF_INDEPENDENT:        3.281
REMARK UNBOUND:                -4.114
REMARK  11 active torsions:
REMARK  status: ('A' for Active; 'I' for Inactive)
REMARK    1  A    between atoms: C1_2  and  C2_3 
REMARK       I    between atoms: C1_2  and  N5_30 
REMARK    2  A    between atoms: C2_3  and  C3_4 
REMARK    3  A    between atoms: C3_4  and  C4_5 
REMARK    4  A    between atoms: C4_5  and  C5_6 
REMARK    5  A    between atoms: C5_6  and  C6_7 
REMARK    6  A    between atoms: C6_7  and  C7_8 
REMARK    7  A    between atoms: C7_8  and  C8_9 
REMARK       I    between atoms: C8_9  and  N1_11 
REMARK    8  A    between atoms: N1_11  and  C9_12 
REMARK    9  A    between atoms: C13_16  and  C14_17 
REMARK   10  A    between atoms: N2_19  and  C16_20 
REMARK   11  A    between atoms: N5_30  and  O3_31 
ROOT
ATOM      1  C9  NON d   1      31.021 -16.587  -2.412  0.00  0.00     0.035 A 
ATOM      2  C10 NON d   1      31.815 -16.450  -1.268  0.00  0.00     0.029 A 
ATOM      3  C11 NON d   1      31.249 -16.224  -0.019  0.00  0.00     0.003 A 
ATOM      4  C12 NON d   1      29.869 -16.132   0.111  0.00  0.00     0.014 A 
ATOM      5  C13 NON d   1      29.030 -16.264  -1.007  0.00  0.00    -0.003 A 
ATOM      6  C22 NON d   1      29.619 -16.495  -2.269  0.00  0.00     0.043 A 
ENDROOT
BRANCH   1   7
ATOM      7  N1  NON d   1      31.578 -16.810  -3.703  0.00  0.00    -0.327 N 
ATOM      8  C8  NON d   1      31.104 -17.705  -4.658  0.00  0.00     0.222 C 
ATOM      9  O2  NON d   1      30.127 -18.438  -4.528  0.00  0.00    -0.273 OA
ATOM     10  H13 NON d   1      32.403 -16.269  -3.937  0.00  0.00     0.169 HD
BRANCH   8  11
ATOM     11  C7  NON d   1      31.924 -17.733  -5.946  0.00  0.00     0.103 C 
BRANCH  11  12
ATOM     12  C6  NON d   1      31.718 -16.431  -6.738  0.00  0.00     0.009 C 
BRANCH  12  13
ATOM     13  C5  NON d   1      30.272 -15.956  -6.920  0.00  0.00     0.000 C 
BRANCH  13  14
ATOM     14  C4  NON d   1      29.740 -15.030  -5.819  0.00  0.00     0.000 C 
BRANCH  14  15
ATOM     15  C3  NON d   1      28.490 -15.574  -5.127  0.00  0.00     0.009 C 
BRANCH  15  16
ATOM     16  C2  NON d   1      27.893 -14.594  -4.119  0.00  0.00     0.105 C 
BRANCH  16  17
ATOM     17  C1  NON d   1      26.483 -14.122  -4.432  0.00  0.00     0.240 C 
ATOM     18  O1  NON d   1      26.182 -13.426  -5.392  0.00  0.00    -0.271 OA
ATOM     19  N5  NON d   1      25.584 -14.627  -3.498  0.00  0.00    -0.237 N 
ATOM     20  H23 NON d   1      25.915 -14.860  -2.567  0.00  0.00     0.197 HD
BRANCH  19  21
ATOM     21  O3  NON d   1      24.284 -14.077  -3.543  0.00  0.00    -0.287 OA
ATOM     22  H24 NON d   1      24.225 -13.762  -4.464  0.00  0.00     0.244 HD
ENDBRANCH  19  21
ENDBRANCH  16  17
ENDBRANCH  15  16
ENDBRANCH  14  15
ENDBRANCH  13  14
ENDBRANCH  12  13
ENDBRANCH  11  12
ENDBRANCH   8  11
ENDBRANCH   1   7
BRANCH   5  23
ATOM     23  C14 NON d   1      27.582 -16.158  -0.836  0.00  0.00     0.102 A 
ATOM     24  C15 NON d   1      26.693 -17.209  -0.870  0.00  0.00     0.148 A 
ATOM     25  N2  NON d   1      25.455 -16.655  -0.662  0.00  0.00    -0.247 N 
ATOM     26  N3  NON d   1      25.591 -15.314  -0.506  0.00  0.00     0.010 NA
ATOM     27  N4  NON d   1      26.883 -15.004  -0.612  0.00  0.00    -0.158 NA
BRANCH  25  28
ATOM     28  C16 NON d   1      24.199 -17.324  -0.606  0.00  0.00     0.054 A 
ATOM     29  C17 NON d   1      24.121 -18.670  -0.209  0.00  0.00     0.032 A 
ATOM     30  C18 NON d   1      22.885 -19.323  -0.155  0.00  0.00     0.020 A 
ATOM     31  C19 NON d   1      21.723 -18.637  -0.496  0.00  0.00     0.006 A 
ATOM     32  I1  NON d   1      19.890 -19.614  -0.414  0.00  0.00    -0.045 I 
ATOM     33  C20 NON d   1      21.786 -17.301  -0.892  0.00  0.00     0.020 A 
ATOM     34  C21 NON d   1      23.023 -16.643  -0.948  0.00  0.00     0.032 A 
ENDBRANCH  25  28
ENDBRANCH   5  23
TORSDOF 11
ENDMDL
MODEL 6
REMARK VINA RESULT:    -7.189      4.188      5.365
REMARK INTER + INTRA:         -14.762
REMARK INTER:                 -10.470
REMARK INTRA:                  -4.292
REMARK CONF_INDEPENDENT:        3.281
REMARK UNBOUND:                -4.292
REMARK  11 active torsions:
REMARK  status: ('A' for Active; 'I' for Inactive)
REMARK    1  A    between atoms: C1_2  and  C2_3 
REMARK       I    between atoms: C1_2  and  N5_30 
REMARK    2  A    between atoms: C2_3  and  C3_4 
REMARK    3  A    between atoms: C3_4  and  C4_5 
REMARK    4  A    between atoms: C4_5  and  C5_6 
REMARK    5  A    between atoms: C5_6  and  C6_7 
REMARK    6  A    between atoms: C6_7  and  C7_8 
REMARK    7  A    between atoms: C7_8  and  C8_9 
REMARK       I    between atoms: C8_9  and  N1_11 
REMARK    8  A    between atoms: N1_11  and  C9_12 
REMARK    9  A    between atoms: C13_16  and  C14_17 
REMARK   10  A    between atoms: N2_19  and  C16_20 
REMARK   11  A    between atoms: N5_30  and  O3_31 
ROOT
ATOM      1  C9  NON d   1      28.286 -10.938  -1.904  0.00  0.00     0.035 A 
ATOM      2  C10 NON d   1      29.203 -10.864  -0.850  0.00  0.00     0.029 A 
ATOM      3  C11 NON d   1      29.427 -11.948  -0.010  0.00  0.00     0.003 A 
ATOM      4  C12 NON d   1      28.734 -13.135  -0.210  0.00  0.00     0.014 A 
ATOM      5  C13 NON d   1      27.805 -13.259  -1.256  0.00  0.00    -0.003 A 
ATOM      6  C22 NON d   1      27.590 -12.150  -2.102  0.00  0.00     0.043 A 
ENDROOT
BRANCH   1   7
ATOM      7  N1  NON d   1      28.034  -9.837  -2.771  0.00  0.00    -0.327 N 
ATOM      8  C8  NON d   1      26.788  -9.281  -3.050  0.00  0.00     0.222 C 
ATOM      9  O2  NON d   1      25.716  -9.659  -2.584  0.00  0.00    -0.273 OA
ATOM     10  H13 NON d   1      28.841  -9.432  -3.232  0.00  0.00     0.169 HD
BRANCH   8  11
ATOM     11  C7  NON d   1      26.833  -8.115  -4.035  0.00  0.00     0.103 C 
BRANCH  11  12
ATOM     12  C6  NON d   1      26.889  -8.638  -5.480  0.00  0.00     0.009 C 
BRANCH  12  13
ATOM     13  C5  NON d   1      25.589  -9.210  -6.057  0.00  0.00     0.000 C 
BRANCH  13  14
ATOM     14  C4  NON d   1      25.673 -10.657  -6.559  0.00  0.00     0.000 C 
BRANCH  14  15
ATOM     15  C3  NON d   1      26.435 -11.581  -5.608  0.00  0.00     0.009 C 
BRANCH  15  16
ATOM     16  C2  NON d   1      25.534 -12.232  -4.560  0.00  0.00     0.105 C 
BRANCH  16  17
ATOM     17  C1  NON d   1      25.622 -13.746  -4.484  0.00  0.00     0.240 C 
ATOM     18  O1  NON d   1      24.826 -14.459  -3.889  0.00  0.00    -0.271 OA
ATOM     19  N5  NON d   1      26.709 -14.206  -5.219  0.00  0.00    -0.237 N 
ATOM     20  H23 NON d   1      27.507 -13.594  -5.361  0.00  0.00     0.197 HD
BRANCH  19  21
ATOM     21  O3  NON d   1      27.035 -15.569  -5.041  0.00  0.00    -0.287 OA
ATOM     22  H24 NON d   1      26.587 -15.780  -4.202  0.00  0.00     0.244 HD
ENDBRANCH  19  21
ENDBRANCH  16  17
ENDBRANCH  15  16
ENDBRANCH  14  15
ENDBRANCH  13  14
ENDBRANCH  12  13
ENDBRANCH  11  12
ENDBRANCH   8  11
ENDBRANCH   1   7
BRANCH   5  23
ATOM     23  C14 NON d   1      27.091 -14.522  -1.437  0.00  0.00     0.102 A 
ATOM     24  C15 NON d   1      25.913 -14.871  -0.816  0.00  0.00     0.148 A 
ATOM     25  N2  NON d   1      25.607 -16.126  -1.279  0.00  0.00    -0.247 N 
ATOM     26  N3  NON d   1      26.569 -16.523  -2.151  0.00  0.00     0.010 NA
ATOM     27  N4  NON d   1      27.475 -15.552  -2.251  0.00  0.00    -0.158 NA
BRANCH  25  28
ATOM     28  C16 NON d   1      24.482 -16.930  -0.938  0.00  0.00     0.054 A 
ATOM     29  C17 NON d   1      23.192 -16.376  -0.894  0.00  0.00     0.032 A 
ATOM     30  C18 NON d   1      22.089 -17.170  -0.560  0.00  0.00     0.020 A 
ATOM     31  C19 NON d   1      22.270 -18.519  -0.268  0.00  0.00     0.006 A 
ATOM     32  I1  NON d   1      20.627 -19.692   0.228  0.00  0.00    -0.045 I 
ATOM     33  C20 NON d   1      23.545 -19.082  -0.308  0.00  0.00     0.020 A 
ATOM     34  C21 NON d   1      24.652 -18.290  -0.643  0.00  0.00     0.032 A 
ENDBRANCH  25  28
ENDBRANCH   5  23
TORSDOF 11
ENDMDL
MODEL 7
REMARK VINA RESULT:    -7.147      5.594     10.399
REMARK INTER + INTRA:         -14.473
REMARK INTER:                 -10.429
REMARK INTRA:                  -4.045
REMARK CONF_INDEPENDENT:        3.281
REMARK UNBOUND:                -4.045
REMARK  11 active torsions:
REMARK  status: ('A' for Active; 'I' for Inactive)
REMARK    1  A    between atoms: C1_2  and  C2_3 
REMARK       I    between atoms: C1_2  and  N5_30 
REMARK    2  A    between atoms: C2_3  and  C3_4 
REMARK    3  A    between atoms: C3_4  and  C4_5 
REMARK    4  A    between atoms: C4_5  and  C5_6 
REMARK    5  A    between atoms: C5_6  and  C6_7 
REMARK    6  A    between atoms: C6_7  and  C7_8 
REMARK    7  A    between atoms: C7_8  and  C8_9 
REMARK       I    between atoms: C8_9  and  N1_11 
REMARK    8  A    between atoms: N1_11  and  C9_12 
REMARK    9  A    between atoms: C13_16  and  C14_17 
REMARK   10  A    between atoms: N2_19  and  C16_20 
REMARK   11  A    between atoms: N5_30  and  O3_31 
ROOT
ATOM      1  C9  NON d   1      27.895 -17.561  -0.611  0.00  0.00     0.035 A 
ATOM      2  C10 NON d   1      26.891 -17.950   0.280  0.00  0.00     0.029 A 
ATOM      3  C11 NON d   1      25.599 -17.449   0.177  0.00  0.00     0.003 A 
ATOM      4  C12 NON d   1      25.285 -16.543  -0.828  0.00  0.00     0.014 A 
ATOM      5  C13 NON d   1      26.258 -16.122  -1.748  0.00  0.00    -0.003 A 
ATOM      6  C22 NON d   1      27.566 -16.642  -1.632  0.00  0.00     0.043 A 
ENDROOT
BRANCH   1   7
ATOM      7  N1  NON d   1      29.228 -18.054  -0.520  0.00  0.00    -0.327 N 
ATOM      8  C8  NON d   1      30.380 -17.386  -0.926  0.00  0.00     0.222 C 
ATOM      9  O2  NON d   1      30.417 -16.264  -1.425  0.00  0.00    -0.273 OA
ATOM     10  H13 NON d   1      29.338 -18.983  -0.130  0.00  0.00     0.169 HD
BRANCH   8  11
ATOM     11  C7  NON d   1      31.667 -18.179  -0.714  0.00  0.00     0.103 C 
BRANCH  11  12
ATOM     12  C6  NON d   1      32.174 -18.742  -2.053  0.00  0.00     0.009 C 
BRANCH  12  13
ATOM     13  C5  NON d   1      31.160 -18.813  -3.199  0.00  0.00     0.000 C 
BRANCH  13  14
ATOM     14  C4  NON d   1      31.710 -18.464  -4.588  0.00  0.00     0.000 C 
BRANCH  14  15
ATOM     15  C3  NON d   1      30.642 -17.927  -5.541  0.00  0.00     0.009 C 
BRANCH  15  16
ATOM     16  C2  NON d   1      30.515 -16.405  -5.498  0.00  0.00     0.105 C 
BRANCH  16  17
ATOM     17  C1  NON d   1      29.132 -15.881  -5.155  0.00  0.00     0.240 C 
ATOM     18  O1  NON d   1      28.618 -15.950  -4.047  0.00  0.00    -0.271 OA
ATOM     19  N5  NON d   1      28.552 -15.280  -6.268  0.00  0.00    -0.237 N 
ATOM     20  H23 NON d   1      28.838 -15.575  -7.197  0.00  0.00     0.197 HD
BRANCH  19  21
ATOM     21  O3  NON d   1      27.182 -14.960  -6.145  0.00  0.00    -0.287 OA
ATOM     22  H24 NON d   1      26.996 -15.201  -5.218  0.00  0.00     0.244 HD
ENDBRANCH  19  21
ENDBRANCH  16  17
ENDBRANCH  15  16
ENDBRANCH  14  15
ENDBRANCH  13  14
ENDBRANCH  12  13
ENDBRANCH  11  12
ENDBRANCH   8  11
ENDBRANCH   1   7
BRANCH   5  23
ATOM     23  C14 NON d   1      25.895 -15.165  -2.791  0.00  0.00     0.102 A 
ATOM     24  C15 NON d   1      26.167 -13.815  -2.768  0.00  0.00     0.148 A 
ATOM     25  N2  NON d   1      25.654 -13.313  -3.939  0.00  0.00    -0.247 N 
ATOM     26  N3  NON d   1      25.092 -14.326  -4.645  0.00  0.00     0.010 NA
ATOM     27  N4  NON d   1      25.234 -15.455  -3.953  0.00  0.00    -0.158 NA
BRANCH  25  28
ATOM     28  C16 NON d   1      25.678 -11.964  -4.392  0.00  0.00     0.054 A 
ATOM     29  C17 NON d   1      25.531 -10.900  -3.486  0.00  0.00     0.032 A 
ATOM     30  C18 NON d   1      25.556  -9.576  -3.936  0.00  0.00     0.020 A 
ATOM     31  C19 NON d   1      25.729  -9.307  -5.292  0.00  0.00     0.006 A 
ATOM     32  I1  NON d   1      25.765  -7.337  -5.953  0.00  0.00    -0.045 I 
ATOM     33  C20 NON d   1      25.877 -10.353  -6.202  0.00  0.00     0.020 A 
ATOM     34  C21 NON d   1      25.852 -11.682  -5.754  0.00  0.00     0.032 A 
ENDBRANCH  25  28
ENDBRANCH   5  23
TORSDOF 11
ENDMDL
