MODEL 1
REMARK VINA RESULT:    -8.359      0.000      0.000
REMARK INTER + INTRA:         -13.841
REMARK INTER:                 -11.939
REMARK INTRA:                  -1.902
REMARK CONF_INDEPENDENT:        3.580
REMARK UNBOUND:                -1.902
REMARK  12 active torsions:
REMARK  status: ('A' for Active; 'I' for Inactive)
REMARK    1  A    between atoms: C2_2  and  O1_3 
REMARK    2  A    between atoms: O1_3  and  P1_4 
REMARK    3  A    between atoms: P1_4  and  C3_6 
REMARK    4  A    between atoms: P1_4  and  O4_30 
REMARK    5  A    between atoms: C3_6  and  N1_7 
REMARK    6  A    between atoms: N1_7  and  C4_8 
REMARK    7  A    between atoms: C4_8  and  C5_9 
REMARK    8  A    between atoms: C8_12  and  C9_13 
REMARK       I    between atoms: C9_13  and  N2_15 
REMARK    9  A    between atoms: N2_15  and  C10_16 
REMARK   10  A    between atoms: C12_18  and  C13_19 
REMARK   11  A    between atoms: C19_26  and  N3_27 
REMARK   12  A    between atoms: O4_30  and  C22_31 
ROOT
ATOM      1  C5  NON d   1      29.629 -14.168   5.963  0.00  0.00    -0.030 A 
ATOM      2  C6  NON d   1      30.312 -14.166   4.735  0.00  0.00     0.010 A 
ATOM      3  C7  NON d   1      29.632 -14.218   3.514  0.00  0.00     0.017 A 
ATOM      4  C8  NON d   1      28.239 -14.255   3.493  0.00  0.00     0.032 A 
ATOM      5  C20 NON d   1      27.548 -14.258   4.719  0.00  0.00     0.017 A 
ATOM      6  C21 NON d   1      28.232 -14.208   5.943  0.00  0.00     0.010 A 
ENDROOT
BRANCH   4   7
ATOM      7  C9  NON d   1      27.431 -14.311   2.229  0.00  0.00     0.256 C 
ATOM      8  O3  NON d   1      26.668 -13.371   2.013  0.00  0.00    -0.267 OA
ATOM      9  N2  NON d   1      27.592 -15.423   1.415  0.00  0.00    -0.321 N 
ATOM     10  H13 NON d   1      28.147 -16.188   1.781  0.00  0.00     0.169 HD
BRANCH   9  11
ATOM     11  C10 NON d   1      27.013 -15.681   0.140  0.00  0.00     0.057 A 
ATOM     12  C11 NON d   1      25.810 -16.431   0.161  0.00  0.00     0.044 A 
ATOM     13  C12 NON d   1      25.107 -16.776  -1.009  0.00  0.00    -0.017 A 
ATOM     14  C17 NON d   1      25.675 -16.376  -2.219  0.00  0.00     0.014 A 
ATOM     15  C18 NON d   1      26.874 -15.670  -2.259  0.00  0.00     0.026 A 
ATOM     16  C19 NON d   1      27.545 -15.275  -1.099  0.00  0.00     0.033 A 
BRANCH  13  17
ATOM     17  C13 NON d   1      23.836 -17.550  -0.941  0.00  0.00     0.015 A 
ATOM     18  C14 NON d   1      23.636 -18.924  -0.896  0.00  0.00     0.020 A 
ATOM     19  C15 NON d   1      22.257 -19.296  -0.836  0.00  0.00     0.008 A 
ATOM     20  C16 NON d   1      21.427 -18.204  -0.840  0.00  0.00     0.050 A 
ATOM     21  S1  NON d   1      22.305 -16.745  -0.894  0.00  0.00    -0.101 SA
ENDBRANCH  13  17
BRANCH  16  22
ATOM     22  N3  NON d   1      28.842 -14.755  -1.268  0.00  0.00    -0.301 NA
ATOM     23  H20 NON d   1      28.804 -13.751  -1.472  0.00  0.00     0.124 HD
ATOM     24  H21 NON d   1      29.377 -15.236  -1.990  0.00  0.00     0.124 HD
ENDBRANCH  16  22
ENDBRANCH   9  11
ENDBRANCH   4   7
BRANCH   1  25
ATOM     25  C4  NON d   1      30.474 -14.053   7.209  0.00  0.00     0.308 C 
BRANCH  25  26
ATOM     26  N1  NON d   1      31.314 -12.868   7.329  0.00  0.00     0.098 N 
ATOM     27  H8  NON d   1      32.173 -13.011   6.795  0.00  0.00     0.317 HD
BRANCH  26  28
ATOM     28  C3  NON d   1      30.555 -11.718   6.753  0.00  0.00     0.401 C 
BRANCH  28  29
ATOM     29  P1  NON d   1      29.072 -11.285   7.873  0.00  0.00     0.356 P 
ATOM     30  O2  NON d   1      28.172 -11.218   6.625  0.00  0.00    -0.257 OA
BRANCH  29  31
ATOM     31  O1  NON d   1      28.225 -12.597   8.406  0.00  0.00    -0.313 OA
BRANCH  31  32
ATOM     32  C2  NON d   1      28.406 -12.995   9.809  0.00  0.00     0.174 C 
ATOM     33  C1  NON d   1      28.997 -14.371  10.168  0.00  0.00     0.034 C 
ENDBRANCH  31  32
ENDBRANCH  29  31
BRANCH  29  34
ATOM     34  O4  NON d   1      29.972 -11.352   9.121  0.00  0.00    -0.313 OA
BRANCH  34  35
ATOM     35  C22 NON d   1      30.416 -10.153   9.723  0.00  0.00     0.174 C 
ATOM     36  C23 NON d   1      30.031  -8.991   8.831  0.00  0.00     0.034 C 
ENDBRANCH  34  35
ENDBRANCH  29  34
ENDBRANCH  28  29
ENDBRANCH  26  28
ENDBRANCH  25  26
ENDBRANCH   1  25
TORSDOF 12
ENDMDL
MODEL 2
REMARK VINA RESULT:    -8.262      1.819      2.625
REMARK INTER + INTRA:         -13.622
REMARK INTER:                 -11.841
REMARK INTRA:                  -1.781
REMARK CONF_INDEPENDENT:        3.580
REMARK UNBOUND:                -1.781
REMARK  12 active torsions:
REMARK  status: ('A' for Active; 'I' for Inactive)
REMARK    1  A    between atoms: C2_2  and  O1_3 
REMARK    2  A    between atoms: O1_3  and  P1_4 
REMARK    3  A    between atoms: P1_4  and  C3_6 
REMARK    4  A    between atoms: P1_4  and  O4_30 
REMARK    5  A    between atoms: C3_6  and  N1_7 
REMARK    6  A    between atoms: N1_7  and  C4_8 
REMARK    7  A    between atoms: C4_8  and  C5_9 
REMARK    8  A    between atoms: C8_12  and  C9_13 
REMARK       I    between atoms: C9_13  and  N2_15 
REMARK    9  A    between atoms: N2_15  and  C10_16 
REMARK   10  A    between atoms: C12_18  and  C13_19 
REMARK   11  A    between atoms: C19_26  and  N3_27 
REMARK   12  A    between atoms: O4_30  and  C22_31 
ROOT
ATOM      1  C5  NON d   1      29.795 -14.032   6.009  0.00  0.00    -0.030 A 
ATOM      2  C6  NON d   1      30.240 -13.344   4.867  0.00  0.00     0.010 A 
ATOM      3  C7  NON d   1      29.537 -13.391   3.659  0.00  0.00     0.017 A 
ATOM      4  C8  NON d   1      28.352 -14.120   3.570  0.00  0.00     0.032 A 
ATOM      5  C20 NON d   1      27.901 -14.812   4.709  0.00  0.00     0.017 A 
ATOM      6  C21 NON d   1      28.609 -14.765   5.919  0.00  0.00     0.010 A 
ENDROOT
BRANCH   4   7
ATOM      7  C9  NON d   1      27.536 -14.222   2.314  0.00  0.00     0.256 C 
ATOM      8  O3  NON d   1      26.649 -13.386   2.156  0.00  0.00    -0.267 OA
ATOM      9  N2  NON d   1      27.831 -15.262   1.442  0.00  0.00    -0.321 N 
ATOM     10  H13 NON d   1      28.492 -15.960   1.762  0.00  0.00     0.169 HD
BRANCH   9  11
ATOM     11  C10 NON d   1      27.269 -15.533   0.162  0.00  0.00     0.057 A 
ATOM     12  C11 NON d   1      26.050 -16.258   0.177  0.00  0.00     0.044 A 
ATOM     13  C12 NON d   1      25.361 -16.612  -0.998  0.00  0.00    -0.017 A 
ATOM     14  C17 NON d   1      25.957 -16.246  -2.205  0.00  0.00     0.014 A 
ATOM     15  C18 NON d   1      27.170 -15.565  -2.238  0.00  0.00     0.026 A 
ATOM     16  C19 NON d   1      27.829 -15.161  -1.074  0.00  0.00     0.033 A 
BRANCH  13  17
ATOM     17  C13 NON d   1      24.073 -17.358  -0.938  0.00  0.00     0.015 A 
ATOM     18  C14 NON d   1      23.844 -18.728  -0.896  0.00  0.00     0.020 A 
ATOM     19  C15 NON d   1      22.457 -19.071  -0.844  0.00  0.00     0.008 A 
ATOM     20  C16 NON d   1      21.651 -17.961  -0.848  0.00  0.00     0.050 A 
ATOM     21  S1  NON d   1      22.559 -16.521  -0.895  0.00  0.00    -0.101 SA
ENDBRANCH  13  17
BRANCH  16  22
ATOM     22  N3  NON d   1      29.140 -14.670  -1.231  0.00  0.00    -0.301 NA
ATOM     23  H20 NON d   1      29.819 -15.436  -1.193  0.00  0.00     0.124 HD
ATOM     24  H21 NON d   1      29.385 -13.955  -0.547  0.00  0.00     0.124 HD
ENDBRANCH  16  22
ENDBRANCH   9  11
ENDBRANCH   4   7
BRANCH   1  25
ATOM     25  C4  NON d   1      30.612 -13.856   7.267  0.00  0.00     0.308 C 
BRANCH  25  26
ATOM     26  N1  NON d   1      30.079 -14.449   8.488  0.00  0.00     0.098 N 
ATOM     27  H8  NON d   1      30.240 -15.458   8.468  0.00  0.00     0.317 HD
BRANCH  26  28
ATOM     28  C3  NON d   1      30.820 -13.850   9.638  0.00  0.00     0.401 C 
BRANCH  28  29
ATOM     29  P1  NON d   1      29.866 -14.159  11.262  0.00  0.00     0.356 P 
ATOM     30  O2  NON d   1      30.068 -12.680  11.641  0.00  0.00    -0.257 OA
BRANCH  29  31
ATOM     31  O1  NON d   1      28.241 -13.901  11.149  0.00  0.00    -0.313 OA
BRANCH  31  32
ATOM     32  C2  NON d   1      27.795 -12.577  10.692  0.00  0.00     0.174 C 
ATOM     33  C1  NON d   1      28.155 -12.066   9.285  0.00  0.00     0.034 C 
ENDBRANCH  31  32
ENDBRANCH  29  31
BRANCH  29  34
ATOM     34  O4  NON d   1      29.664 -15.637  10.883  0.00  0.00    -0.313 OA
BRANCH  34  35
ATOM     35  C22 NON d   1      30.779 -16.506  10.853  0.00  0.00     0.174 C 
ATOM     36  C23 NON d   1      31.592 -16.295  12.114  0.00  0.00     0.034 C 
ENDBRANCH  34  35
ENDBRANCH  29  34
ENDBRANCH  28  29
ENDBRANCH  26  28
ENDBRANCH  25  26
ENDBRANCH   1  25
TORSDOF 12
ENDMDL
MODEL 3
REMARK VINA RESULT:    -8.019      3.998     11.144
REMARK INTER + INTRA:         -13.696
REMARK INTER:                 -11.599
REMARK INTRA:                  -2.097
REMARK CONF_INDEPENDENT:        3.580
REMARK UNBOUND:                -2.097
REMARK  12 active torsions:
REMARK  status: ('A' for Active; 'I' for Inactive)
REMARK    1  A    between atoms: C2_2  and  O1_3 
REMARK    2  A    between atoms: O1_3  and  P1_4 
REMARK    3  A    between atoms: P1_4  and  C3_6 
REMARK    4  A    between atoms: P1_4  and  O4_30 
REMARK    5  A    between atoms: C3_6  and  N1_7 
REMARK    6  A    between atoms: N1_7  and  C4_8 
REMARK    7  A    between atoms: C4_8  and  C5_9 
REMARK    8  A    between atoms: C8_12  and  C9_13 
REMARK       I    between atoms: C9_13  and  N2_15 
REMARK    9  A    between atoms: N2_15  and  C10_16 
REMARK   10  A    between atoms: C12_18  and  C13_19 
REMARK   11  A    between atoms: C19_26  and  N3_27 
REMARK   12  A    between atoms: O4_30  and  C22_31 
ROOT
ATOM      1  C5  NON d   1      29.088 -14.435   2.333  0.00  0.00    -0.030 A 
ATOM      2  C6  NON d   1      27.776 -14.362   2.834  0.00  0.00     0.010 A 
ATOM      3  C7  NON d   1      27.509 -13.944   4.142  0.00  0.00     0.017 A 
ATOM      4  C8  NON d   1      28.558 -13.569   4.981  0.00  0.00     0.032 A 
ATOM      5  C20 NON d   1      29.874 -13.641   4.487  0.00  0.00     0.017 A 
ATOM      6  C21 NON d   1      30.139 -14.063   3.176  0.00  0.00     0.010 A 
ENDROOT
BRANCH   4   7
ATOM      7  C9  NON d   1      28.360 -13.109   6.396  0.00  0.00     0.256 C 
ATOM      8  O3  NON d   1      27.404 -12.367   6.613  0.00  0.00    -0.267 OA
ATOM      9  N2  NON d   1      29.281 -13.537   7.343  0.00  0.00    -0.321 N 
ATOM     10  H13 NON d   1      30.099 -14.029   7.004  0.00  0.00     0.169 HD
BRANCH   9  11
ATOM     11  C10 NON d   1      29.276 -13.312   8.749  0.00  0.00     0.057 A 
ATOM     12  C11 NON d   1      29.796 -12.060   9.164  0.00  0.00     0.044 A 
ATOM     13  C12 NON d   1      29.867 -11.676  10.517  0.00  0.00    -0.017 A 
ATOM     14  C17 NON d   1      29.434 -12.613  11.455  0.00  0.00     0.014 A 
ATOM     15  C18 NON d   1      28.954 -13.860  11.066  0.00  0.00     0.026 A 
ATOM     16  C19 NON d   1      28.827 -14.224   9.723  0.00  0.00     0.033 A 
BRANCH  13  17
ATOM     17  C13 NON d   1      30.403 -10.343  10.910  0.00  0.00     0.015 A 
ATOM     18  C14 NON d   1      30.864  -9.901  12.144  0.00  0.00     0.020 A 
ATOM     19  C15 NON d   1      31.304  -8.541  12.133  0.00  0.00     0.008 A 
ATOM     20  C16 NON d   1      31.169  -7.965  10.895  0.00  0.00     0.050 A 
ATOM     21  S1  NON d   1      30.539  -9.062   9.754  0.00  0.00    -0.101 SA
ENDBRANCH  13  17
BRANCH  16  22
ATOM     22  N3  NON d   1      28.531 -15.576   9.462  0.00  0.00    -0.301 NA
ATOM     23  H20 NON d   1      29.360 -16.161   9.606  0.00  0.00     0.124 HD
ATOM     24  H21 NON d   1      28.154 -15.731   8.528  0.00  0.00     0.124 HD
ENDBRANCH  16  22
ENDBRANCH   9  11
ENDBRANCH   4   7
BRANCH   1  25
ATOM     25  C4  NON d   1      29.240 -14.846   0.889  0.00  0.00     0.308 C 
BRANCH  25  26
ATOM     26  N1  NON d   1      28.698 -16.146   0.512  0.00  0.00     0.098 N 
ATOM     27  H8  NON d   1      28.665 -16.747   1.338  0.00  0.00     0.317 HD
BRANCH  26  28
ATOM     28  C3  NON d   1      27.313 -15.925   0.002  0.00  0.00     0.401 C 
BRANCH  28  29
ATOM     29  P1  NON d   1      26.452 -17.601  -0.304  0.00  0.00     0.356 P 
ATOM     30  O2  NON d   1      27.017 -18.114   1.033  0.00  0.00    -0.257 OA
BRANCH  29  31
ATOM     31  O1  NON d   1      24.925 -17.696   0.312  0.00  0.00    -0.313 OA
BRANCH  31  32
ATOM     32  C2  NON d   1      23.974 -18.586  -0.370  0.00  0.00     0.174 C 
ATOM     33  C1  NON d   1      22.459 -18.455  -0.128  0.00  0.00     0.034 C 
ENDBRANCH  31  32
ENDBRANCH  29  31
BRANCH  29  34
ATOM     34  O4  NON d   1      25.887 -17.087  -1.641  0.00  0.00    -0.313 OA
BRANCH  34  35
ATOM     35  C22 NON d   1      25.377 -15.771  -1.721  0.00  0.00     0.174 C 
ATOM     36  C23 NON d   1      26.001 -15.081  -2.915  0.00  0.00     0.034 C 
ENDBRANCH  34  35
ENDBRANCH  29  34
ENDBRANCH  28  29
ENDBRANCH  26  28
ENDBRANCH  25  26
ENDBRANCH   1  25
TORSDOF 12
ENDMDL
MODEL 4
REMARK VINA RESULT:    -7.441      1.547      2.561
REMARK INTER + INTRA:         -13.639
REMARK INTER:                 -11.020
REMARK INTRA:                  -2.619
REMARK CONF_INDEPENDENT:        3.580
REMARK UNBOUND:                -2.619
REMARK  12 active torsions:
REMARK  status: ('A' for Active; 'I' for Inactive)
REMARK    1  A    between atoms: C2_2  and  O1_3 
REMARK    2  A    between atoms: O1_3  and  P1_4 
REMARK    3  A    between atoms: P1_4  and  C3_6 
REMARK    4  A    between atoms: P1_4  and  O4_30 
REMARK    5  A    between atoms: C3_6  and  N1_7 
REMARK    6  A    between atoms: N1_7  and  C4_8 
REMARK    7  A    between atoms: C4_8  and  C5_9 
REMARK    8  A    between atoms: C8_12  and  C9_13 
REMARK       I    between atoms: C9_13  and  N2_15 
REMARK    9  A    between atoms: N2_15  and  C10_16 
REMARK   10  A    between atoms: C12_18  and  C13_19 
REMARK   11  A    between atoms: C19_26  and  N3_27 
REMARK   12  A    between atoms: O4_30  and  C22_31 
ROOT
ATOM      1  C5  NON d   1      30.294 -12.067   4.379  0.00  0.00    -0.030 A 
ATOM      2  C6  NON d   1      29.212 -11.197   4.160  0.00  0.00     0.010 A 
ATOM      3  C7  NON d   1      28.354 -11.350   3.066  0.00  0.00     0.017 A 
ATOM      4  C8  NON d   1      28.551 -12.398   2.167  0.00  0.00     0.032 A 
ATOM      5  C20 NON d   1      29.633 -13.272   2.380  0.00  0.00     0.017 A 
ATOM      6  C21 NON d   1      30.493 -13.115   3.477  0.00  0.00     0.010 A 
ENDROOT
BRANCH   4   7
ATOM      7  C9  NON d   1      27.678 -12.635   0.969  0.00  0.00     0.256 C 
ATOM      8  O3  NON d   1      27.296 -11.643   0.353  0.00  0.00    -0.267 OA
ATOM      9  N2  NON d   1      27.354 -13.950   0.664  0.00  0.00    -0.321 N 
ATOM     10  H13 NON d   1      27.619 -14.660   1.336  0.00  0.00     0.169 HD
BRANCH   9  11
ATOM     11  C10 NON d   1      26.618 -14.447  -0.450  0.00  0.00     0.057 A 
ATOM     12  C11 NON d   1      25.727 -15.511  -0.161  0.00  0.00     0.044 A 
ATOM     13  C12 NON d   1      24.925 -16.120  -1.145  0.00  0.00    -0.017 A 
ATOM     14  C17 NON d   1      25.074 -15.651  -2.450  0.00  0.00     0.014 A 
ATOM     15  C18 NON d   1      25.970 -14.631  -2.756  0.00  0.00     0.026 A 
ATOM     16  C19 NON d   1      26.726 -13.984  -1.775  0.00  0.00     0.033 A 
BRANCH  13  17
ATOM     17  C13 NON d   1      23.988 -17.224  -0.796  0.00  0.00     0.015 A 
ATOM     18  C14 NON d   1      24.249 -18.569  -0.565  0.00  0.00     0.020 A 
ATOM     19  C15 NON d   1      23.080 -19.330  -0.253  0.00  0.00     0.008 A 
ATOM     20  C16 NON d   1      21.946 -18.558  -0.254  0.00  0.00     0.050 A 
ATOM     21  S1  NON d   1      22.293 -16.928  -0.607  0.00  0.00    -0.101 SA
ENDBRANCH  13  17
BRANCH  16  22
ATOM     22  N3  NON d   1      27.741 -13.120  -2.230  0.00  0.00    -0.301 NA
ATOM     23  H20 NON d   1      28.514 -13.656  -2.636  0.00  0.00     0.124 HD
ATOM     24  H21 NON d   1      28.093 -12.498  -1.504  0.00  0.00     0.124 HD
ENDBRANCH  16  22
ENDBRANCH   9  11
ENDBRANCH   4   7
BRANCH   1  25
ATOM     25  C4  NON d   1      31.112 -11.829   5.626  0.00  0.00     0.308 C 
BRANCH  25  26
ATOM     26  N1  NON d   1      31.166 -12.915   6.597  0.00  0.00     0.098 N 
ATOM     27  H8  NON d   1      32.132 -13.238   6.685  0.00  0.00     0.317 HD
BRANCH  26  28
ATOM     28  C3  NON d   1      30.702 -12.370   7.907  0.00  0.00     0.401 C 
BRANCH  28  29
ATOM     29  P1  NON d   1      28.827 -12.662   8.111  0.00  0.00     0.356 P 
ATOM     30  O2  NON d   1      28.578 -11.178   7.782  0.00  0.00    -0.257 OA
BRANCH  29  31
ATOM     31  O1  NON d   1      28.057 -13.094   6.717  0.00  0.00    -0.313 OA
BRANCH  31  32
ATOM     32  C2  NON d   1      28.532 -14.301   6.027  0.00  0.00     0.174 C 
ATOM     33  C1  NON d   1      27.787 -14.851   4.797  0.00  0.00     0.034 C 
ENDBRANCH  31  32
ENDBRANCH  29  31
BRANCH  29  34
ATOM     34  O4  NON d   1      29.076 -14.146   8.439  0.00  0.00    -0.313 OA
BRANCH  34  35
ATOM     35  C22 NON d   1      28.759 -14.636   9.727  0.00  0.00     0.174 C 
ATOM     36  C23 NON d   1      27.941 -13.589  10.456  0.00  0.00     0.034 C 
ENDBRANCH  34  35
ENDBRANCH  29  34
ENDBRANCH  28  29
ENDBRANCH  26  28
ENDBRANCH  25  26
ENDBRANCH   1  25
TORSDOF 12
ENDMDL
MODEL 5
REMARK VINA RESULT:    -7.163      4.924     10.719
REMARK INTER + INTRA:         -13.678
REMARK INTER:                 -10.742
REMARK INTRA:                  -2.936
REMARK CONF_INDEPENDENT:        3.580
REMARK UNBOUND:                -2.936
REMARK  12 active torsions:
REMARK  status: ('A' for Active; 'I' for Inactive)
REMARK    1  A    between atoms: C2_2  and  O1_3 
REMARK    2  A    between atoms: O1_3  and  P1_4 
REMARK    3  A    between atoms: P1_4  and  C3_6 
REMARK    4  A    between atoms: P1_4  and  O4_30 
REMARK    5  A    between atoms: C3_6  and  N1_7 
REMARK    6  A    between atoms: N1_7  and  C4_8 
REMARK    7  A    between atoms: C4_8  and  C5_9 
REMARK    8  A    between atoms: C8_12  and  C9_13 
REMARK       I    between atoms: C9_13  and  N2_15 
REMARK    9  A    between atoms: N2_15  and  C10_16 
REMARK   10  A    between atoms: C12_18  and  C13_19 
REMARK   11  A    between atoms: C19_26  and  N3_27 
REMARK   12  A    between atoms: O4_30  and  C22_31 
ROOT
ATOM      1  C5  NON d   1      25.086 -17.318  -0.635  0.00  0.00    -0.030 A 
ATOM      2  C6  NON d   1      25.208 -16.019  -1.156  0.00  0.00     0.010 A 
ATOM      3  C7  NON d   1      26.208 -15.142  -0.723  0.00  0.00     0.017 A 
ATOM      4  C8  NON d   1      27.129 -15.556   0.239  0.00  0.00     0.032 A 
ATOM      5  C20 NON d   1      27.012 -16.856   0.766  0.00  0.00     0.017 A 
ATOM      6  C21 NON d   1      26.007 -17.732   0.332  0.00  0.00     0.010 A 
ENDROOT
BRANCH   4   7
ATOM      7  C9  NON d   1      28.232 -14.681   0.758  0.00  0.00     0.256 C 
ATOM      8  O3  NON d   1      28.798 -13.955  -0.056  0.00  0.00    -0.267 OA
ATOM      9  N2  NON d   1      28.541 -14.774   2.108  0.00  0.00    -0.321 N 
ATOM     10  H13 NON d   1      28.093 -15.514   2.636  0.00  0.00     0.169 HD
BRANCH   9  11
ATOM     11  C10 NON d   1      29.478 -14.008   2.859  0.00  0.00     0.057 A 
ATOM     12  C11 NON d   1      29.107 -13.746   4.203  0.00  0.00     0.044 A 
ATOM     13  C12 NON d   1      29.915 -13.002   5.084  0.00  0.00    -0.017 A 
ATOM     14  C17 NON d   1      31.102 -12.490   4.560  0.00  0.00     0.014 A 
ATOM     15  C18 NON d   1      31.463 -12.708   3.234  0.00  0.00     0.026 A 
ATOM     16  C19 NON d   1      30.694 -13.493   2.372  0.00  0.00     0.033 A 
BRANCH  13  17
ATOM     17  C13 NON d   1      29.498 -12.766   6.494  0.00  0.00     0.015 A 
ATOM     18  C14 NON d   1      29.479 -11.585   7.227  0.00  0.00     0.020 A 
ATOM     19  C15 NON d   1      29.010 -11.754   8.566  0.00  0.00     0.008 A 
ATOM     20  C16 NON d   1      28.680 -13.059   8.836  0.00  0.00     0.050 A 
ATOM     21  S1  NON d   1      28.916 -14.063   7.481  0.00  0.00    -0.101 SA
ENDBRANCH  13  17
BRANCH  16  22
ATOM     22  N3  NON d   1      31.050 -13.467   1.009  0.00  0.00    -0.301 NA
ATOM     23  H20 NON d   1      30.595 -12.683   0.533  0.00  0.00     0.124 HD
ATOM     24  H21 NON d   1      30.841 -14.338   0.523  0.00  0.00     0.124 HD
ENDBRANCH  16  22
ENDBRANCH   9  11
ENDBRANCH   4   7
BRANCH   1  25
ATOM     25  C4  NON d   1      24.001 -18.186  -1.224  0.00  0.00     0.308 C 
BRANCH  25  26
ATOM     26  N1  NON d   1      22.646 -17.977  -0.729  0.00  0.00     0.098 N 
ATOM     27  H8  NON d   1      22.091 -17.518  -1.454  0.00  0.00     0.317 HD
BRANCH  26  28
ATOM     28  C3  NON d   1      22.064 -19.320  -0.433  0.00  0.00     0.401 C 
BRANCH  28  29
ATOM     29  P1  NON d   1      20.206 -19.153  -0.031  0.00  0.00     0.356 P 
ATOM     30  O2  NON d   1      20.037 -18.249  -1.266  0.00  0.00    -0.257 OA
BRANCH  29  31
ATOM     31  O1  NON d   1      19.256 -20.297  -0.745  0.00  0.00    -0.313 OA
BRANCH  31  32
ATOM     32  C2  NON d   1      18.031 -20.697  -0.038  0.00  0.00     0.174 C 
ATOM     33  C1  NON d   1      18.044 -21.869   0.960  0.00  0.00     0.034 C 
ENDBRANCH  31  32
ENDBRANCH  29  31
BRANCH  29  34
ATOM     34  O4  NON d   1      20.374 -20.056   1.205  0.00  0.00    -0.313 OA
BRANCH  34  35
ATOM     35  C22 NON d   1      20.295 -19.489   2.497  0.00  0.00     0.174 C 
ATOM     36  C23 NON d   1      19.732 -20.525   3.448  0.00  0.00     0.034 C 
ENDBRANCH  34  35
ENDBRANCH  29  34
ENDBRANCH  28  29
ENDBRANCH  26  28
ENDBRANCH  25  26
ENDBRANCH   1  25
TORSDOF 12
ENDMDL
MODEL 6
REMARK VINA RESULT:    -7.028      1.145      1.833
REMARK INTER + INTRA:         -14.062
REMARK INTER:                 -10.608
REMARK INTRA:                  -3.454
REMARK CONF_INDEPENDENT:        3.580
REMARK UNBOUND:                -3.454
REMARK  12 active torsions:
REMARK  status: ('A' for Active; 'I' for Inactive)
REMARK    1  A    between atoms: C2_2  and  O1_3 
REMARK    2  A    between atoms: O1_3  and  P1_4 
REMARK    3  A    between atoms: P1_4  and  C3_6 
REMARK    4  A    between atoms: P1_4  and  O4_30 
REMARK    5  A    between atoms: C3_6  and  N1_7 
REMARK    6  A    between atoms: N1_7  and  C4_8 
REMARK    7  A    between atoms: C4_8  and  C5_9 
REMARK    8  A    between atoms: C8_12  and  C9_13 
REMARK       I    between atoms: C9_13  and  N2_15 
REMARK    9  A    between atoms: N2_15  and  C10_16 
REMARK   10  A    between atoms: C12_18  and  C13_19 
REMARK   11  A    between atoms: C19_26  and  N3_27 
REMARK   12  A    between atoms: O4_30  and  C22_31 
ROOT
ATOM      1  C5  NON d   1      29.665 -14.190   6.094  0.00  0.00    -0.030 A 
ATOM      2  C6  NON d   1      30.403 -13.521   5.103  0.00  0.00     0.010 A 
ATOM      3  C7  NON d   1      29.980 -13.481   3.770  0.00  0.00     0.017 A 
ATOM      4  C8  NON d   1      28.787 -14.102   3.399  0.00  0.00     0.032 A 
ATOM      5  C20 NON d   1      28.044 -14.775   4.387  0.00  0.00     0.017 A 
ATOM      6  C21 NON d   1      28.472 -14.815   5.722  0.00  0.00     0.010 A 
ENDROOT
BRANCH   4   7
ATOM      7  C9  NON d   1      28.260 -14.107   1.994  0.00  0.00     0.256 C 
ATOM      8  O3  NON d   1      28.386 -13.069   1.348  0.00  0.00    -0.267 OA
ATOM      9  N2  NON d   1      27.653 -15.271   1.542  0.00  0.00    -0.321 N 
ATOM     10  H13 NON d   1      27.490 -16.002   2.224  0.00  0.00     0.169 HD
BRANCH   9  11
ATOM     11  C10 NON d   1      27.148 -15.561   0.243  0.00  0.00     0.057 A 
ATOM     12  C11 NON d   1      25.905 -16.243   0.215  0.00  0.00     0.044 A 
ATOM     13  C12 NON d   1      25.265 -16.609  -0.985  0.00  0.00    -0.017 A 
ATOM     14  C17 NON d   1      25.935 -16.301  -2.169  0.00  0.00     0.014 A 
ATOM     15  C18 NON d   1      27.172 -15.663  -2.157  0.00  0.00     0.026 A 
ATOM     16  C19 NON d   1      27.785 -15.246  -0.973  0.00  0.00     0.033 A 
BRANCH  13  17
ATOM     17  C13 NON d   1      23.950 -17.308  -0.971  0.00  0.00     0.015 A 
ATOM     18  C14 NON d   1      23.668 -18.667  -1.048  0.00  0.00     0.020 A 
ATOM     19  C15 NON d   1      22.270 -18.961  -1.004  0.00  0.00     0.008 A 
ATOM     20  C16 NON d   1      21.507 -17.825  -0.898  0.00  0.00     0.050 A 
ATOM     21  S1  NON d   1      22.470 -16.422  -0.831  0.00  0.00    -0.101 SA
ENDBRANCH  13  17
BRANCH  16  22
ATOM     22  N3  NON d   1      29.118 -14.805  -1.075  0.00  0.00    -0.301 NA
ATOM     23  H20 NON d   1      29.758 -15.604  -1.133  0.00  0.00     0.124 HD
ATOM     24  H21 NON d   1      29.397 -14.191  -0.311  0.00  0.00     0.124 HD
ENDBRANCH  16  22
ENDBRANCH   9  11
ENDBRANCH   4   7
BRANCH   1  25
ATOM     25  C4  NON d   1      30.199 -14.113   7.504  0.00  0.00     0.308 C 
BRANCH  25  26
ATOM     26  N1  NON d   1      31.504 -13.489   7.683  0.00  0.00     0.098 N 
ATOM     27  H8  NON d   1      31.757 -12.990   6.827  0.00  0.00     0.317 HD
BRANCH  26  28
ATOM     28  C3  NON d   1      31.387 -12.517   8.810  0.00  0.00     0.401 C 
BRANCH  28  29
ATOM     29  P1  NON d   1      30.448 -10.959   8.236  0.00  0.00     0.356 P 
ATOM     30  O2  NON d   1      31.175 -11.041   6.881  0.00  0.00    -0.257 OA
BRANCH  29  31
ATOM     31  O1  NON d   1      29.016 -11.275   7.480  0.00  0.00    -0.313 OA
BRANCH  31  32
ATOM     32  C2  NON d   1      28.784 -10.638   6.176  0.00  0.00     0.174 C 
ATOM     33  C1  NON d   1      27.782 -11.238   5.172  0.00  0.00     0.034 C 
ENDBRANCH  31  32
ENDBRANCH  29  31
BRANCH  29  34
ATOM     34  O4  NON d   1      29.721 -10.876   9.590  0.00  0.00    -0.313 OA
BRANCH  34  35
ATOM     35  C22 NON d   1      29.579 -12.043  10.376  0.00  0.00     0.174 C 
ATOM     36  C23 NON d   1      28.232 -12.667  10.078  0.00  0.00     0.034 C 
ENDBRANCH  34  35
ENDBRANCH  29  34
ENDBRANCH  28  29
ENDBRANCH  26  28
ENDBRANCH  25  26
ENDBRANCH   1  25
TORSDOF 12
ENDMDL
MODEL 7
REMARK VINA RESULT:    -6.926      2.103      3.733
REMARK INTER + INTRA:         -13.517
REMARK INTER:                 -10.506
REMARK INTRA:                  -3.011
REMARK CONF_INDEPENDENT:        3.580
REMARK UNBOUND:                -3.011
REMARK  12 active torsions:
REMARK  status: ('A' for Active; 'I' for Inactive)
REMARK    1  A    between atoms: C2_2  and  O1_3 
REMARK    2  A    between atoms: O1_3  and  P1_4 
REMARK    3  A    between atoms: P1_4  and  C3_6 
REMARK    4  A    between atoms: P1_4  and  O4_30 
REMARK    5  A    between atoms: C3_6  and  N1_7 
REMARK    6  A    between atoms: N1_7  and  C4_8 
REMARK    7  A    between atoms: C4_8  and  C5_9 
REMARK    8  A    between atoms: C8_12  and  C9_13 
REMARK       I    between atoms: C9_13  and  N2_15 
REMARK    9  A    between atoms: N2_15  and  C10_16 
REMARK   10  A    between atoms: C12_18  and  C13_19 
REMARK   11  A    between atoms: C19_26  and  N3_27 
REMARK   12  A    between atoms: O4_30  and  C22_31 
ROOT
ATOM      1  C5  NON d   1      29.593 -14.278   5.847  0.00  0.00    -0.030 A 
ATOM      2  C6  NON d   1      30.270 -14.118   4.625  0.00  0.00     0.010 A 
ATOM      3  C7  NON d   1      29.593 -14.137   3.401  0.00  0.00     0.017 A 
ATOM      4  C8  NON d   1      28.208 -14.301   3.373  0.00  0.00     0.032 A 
ATOM      5  C20 NON d   1      27.525 -14.462   4.592  0.00  0.00     0.017 A 
ATOM      6  C21 NON d   1      28.206 -14.445   5.818  0.00  0.00     0.010 A 
ENDROOT
BRANCH   4   7
ATOM      7  C9  NON d   1      27.405 -14.332   2.105  0.00  0.00     0.256 C 
ATOM      8  O3  NON d   1      26.787 -13.311   1.811  0.00  0.00    -0.267 OA
ATOM      9  N2  NON d   1      27.405 -15.514   1.376  0.00  0.00    -0.321 N 
ATOM     10  H13 NON d   1      27.843 -16.321   1.804  0.00  0.00     0.169 HD
BRANCH   9  11
ATOM     11  C10 NON d   1      26.798 -15.779   0.115  0.00  0.00     0.057 A 
ATOM     12  C11 NON d   1      26.743 -14.675  -0.774  0.00  0.00     0.044 A 
ATOM     13  C12 NON d   1      26.175 -14.762  -2.059  0.00  0.00    -0.017 A 
ATOM     14  C17 NON d   1      25.623 -15.992  -2.416  0.00  0.00     0.014 A 
ATOM     15  C18 NON d   1      25.638 -17.075  -1.541  0.00  0.00     0.026 A 
ATOM     16  C19 NON d   1      26.252 -17.012  -0.288  0.00  0.00     0.033 A 
BRANCH  13  17
ATOM     17  C13 NON d   1      26.153 -13.583  -2.970  0.00  0.00     0.015 A 
ATOM     18  C14 NON d   1      26.461 -12.254  -2.707  0.00  0.00     0.020 A 
ATOM     19  C15 NON d   1      26.320 -11.402  -3.845  0.00  0.00     0.008 A 
ATOM     20  C16 NON d   1      25.905 -12.090  -4.956  0.00  0.00     0.050 A 
ATOM     21  S1  NON d   1      25.707 -13.750  -4.633  0.00  0.00    -0.101 SA
ENDBRANCH  13  17
BRANCH  16  22
ATOM     22  N3  NON d   1      26.020 -18.095   0.582  0.00  0.00    -0.301 NA
ATOM     23  H20 NON d   1      26.902 -18.428   0.984  0.00  0.00     0.124 HD
ATOM     24  H21 NON d   1      25.526 -18.868   0.138  0.00  0.00     0.124 HD
ENDBRANCH  16  22
ENDBRANCH   9  11
ENDBRANCH   4   7
BRANCH   1  25
ATOM     25  C4  NON d   1      30.429 -14.182   7.101  0.00  0.00     0.308 C 
BRANCH  25  26
ATOM     26  N1  NON d   1      31.136 -12.928   7.329  0.00  0.00     0.098 N 
ATOM     27  H8  NON d   1      31.016 -12.323   6.514  0.00  0.00     0.317 HD
BRANCH  26  28
ATOM     28  C3  NON d   1      30.525 -12.278   8.525  0.00  0.00     0.401 C 
BRANCH  28  29
ATOM     29  P1  NON d   1      29.137 -11.085   7.985  0.00  0.00     0.356 P 
ATOM     30  O2  NON d   1      30.120 -10.413   7.007  0.00  0.00    -0.257 OA
BRANCH  29  31
ATOM     31  O1  NON d   1      28.244 -11.624   6.708  0.00  0.00    -0.313 OA
BRANCH  31  32
ATOM     32  C2  NON d   1      28.557 -11.073   5.382  0.00  0.00     0.174 C 
ATOM     33  C1  NON d   1      27.486 -10.327   4.564  0.00  0.00     0.034 C 
ENDBRANCH  31  32
ENDBRANCH  29  31
BRANCH  29  34
ATOM     34  O4  NON d   1      28.155 -11.756   8.963  0.00  0.00    -0.313 OA
BRANCH  34  35
ATOM     35  C22 NON d   1      28.511 -12.980   9.575  0.00  0.00     0.174 C 
ATOM     36  C23 NON d   1      28.092 -12.933  11.030  0.00  0.00     0.034 C 
ENDBRANCH  34  35
ENDBRANCH  29  34
ENDBRANCH  28  29
ENDBRANCH  26  28
ENDBRANCH  25  26
ENDBRANCH   1  25
TORSDOF 12
ENDMDL
MODEL 8
REMARK VINA RESULT:    -6.916      1.606      2.728
REMARK INTER + INTRA:         -13.875
REMARK INTER:                 -10.495
REMARK INTRA:                  -3.379
REMARK CONF_INDEPENDENT:        3.580
REMARK UNBOUND:                -3.379
REMARK  12 active torsions:
REMARK  status: ('A' for Active; 'I' for Inactive)
REMARK    1  A    between atoms: C2_2  and  O1_3 
REMARK    2  A    between atoms: O1_3  and  P1_4 
REMARK    3  A    between atoms: P1_4  and  C3_6 
REMARK    4  A    between atoms: P1_4  and  O4_30 
REMARK    5  A    between atoms: C3_6  and  N1_7 
REMARK    6  A    between atoms: N1_7  and  C4_8 
REMARK    7  A    between atoms: C4_8  and  C5_9 
REMARK    8  A    between atoms: C8_12  and  C9_13 
REMARK       I    between atoms: C9_13  and  N2_15 
REMARK    9  A    between atoms: N2_15  and  C10_16 
REMARK   10  A    between atoms: C12_18  and  C13_19 
REMARK   11  A    between atoms: C19_26  and  N3_27 
REMARK   12  A    between atoms: O4_30  and  C22_31 
ROOT
ATOM      1  C5  NON d   1      29.645 -14.190   6.000  0.00  0.00    -0.030 A 
ATOM      2  C6  NON d   1      30.321 -14.384   4.783  0.00  0.00     0.010 A 
ATOM      3  C7  NON d   1      29.639 -14.442   3.563  0.00  0.00     0.017 A 
ATOM      4  C8  NON d   1      28.253 -14.288   3.531  0.00  0.00     0.032 A 
ATOM      5  C20 NON d   1      27.570 -14.094   4.747  0.00  0.00     0.017 A 
ATOM      6  C21 NON d   1      28.256 -14.039   5.969  0.00  0.00     0.010 A 
ENDROOT
BRANCH   4   7
ATOM      7  C9  NON d   1      27.444 -14.335   2.268  0.00  0.00     0.256 C 
ATOM      8  O3  NON d   1      26.674 -13.399   2.064  0.00  0.00    -0.267 OA
ATOM      9  N2  NON d   1      27.612 -15.438   1.441  0.00  0.00    -0.321 N 
ATOM     10  H13 NON d   1      28.174 -16.202   1.798  0.00  0.00     0.169 HD
BRANCH   9  11
ATOM     11  C10 NON d   1      27.033 -15.686   0.164  0.00  0.00     0.057 A 
ATOM     12  C11 NON d   1      25.833 -16.440   0.179  0.00  0.00     0.044 A 
ATOM     13  C12 NON d   1      25.131 -16.777  -0.994  0.00  0.00    -0.017 A 
ATOM     14  C17 NON d   1      25.696 -16.363  -2.200  0.00  0.00     0.014 A 
ATOM     15  C18 NON d   1      26.892 -15.653  -2.234  0.00  0.00     0.026 A 
ATOM     16  C19 NON d   1      27.563 -15.266  -1.071  0.00  0.00     0.033 A 
BRANCH  13  17
ATOM     17  C13 NON d   1      23.862 -17.555  -0.932  0.00  0.00     0.015 A 
ATOM     18  C14 NON d   1      23.667 -18.930  -0.892  0.00  0.00     0.020 A 
ATOM     19  C15 NON d   1      22.290 -19.308  -0.838  0.00  0.00     0.008 A 
ATOM     20  C16 NON d   1      21.456 -18.219  -0.841  0.00  0.00     0.050 A 
ATOM     21  S1  NON d   1      22.328 -16.757  -0.887  0.00  0.00    -0.101 SA
ENDBRANCH  13  17
BRANCH  16  22
ATOM     22  N3  NON d   1      28.858 -14.739  -1.236  0.00  0.00    -0.301 NA
ATOM     23  H20 NON d   1      29.400 -15.313  -1.890  0.00  0.00     0.124 HD
ATOM     24  H21 NON d   1      29.366 -14.639  -0.358  0.00  0.00     0.124 HD
ENDBRANCH  16  22
ENDBRANCH   9  11
ENDBRANCH   4   7
BRANCH   1  25
ATOM     25  C4  NON d   1      30.499 -14.090   7.241  0.00  0.00     0.308 C 
BRANCH  25  26
ATOM     26  N1  NON d   1      31.404 -12.951   7.330  0.00  0.00     0.098 N 
ATOM     27  H8  NON d   1      31.987 -12.920   6.490  0.00  0.00     0.317 HD
BRANCH  26  28
ATOM     28  C3  NON d   1      30.567 -11.717   7.399  0.00  0.00     0.401 C 
BRANCH  28  29
ATOM     29  P1  NON d   1      30.697 -10.744   5.763  0.00  0.00     0.356 P 
ATOM     30  O2  NON d   1      32.080 -11.375   5.518  0.00  0.00    -0.257 OA
BRANCH  29  31
ATOM     31  O1  NON d   1      30.104 -11.550   4.451  0.00  0.00    -0.313 OA
BRANCH  31  32
ATOM     32  C2  NON d   1      30.708 -11.253   3.144  0.00  0.00     0.174 C 
ATOM     33  C1  NON d   1      29.891 -11.395   1.847  0.00  0.00     0.034 C 
ENDBRANCH  31  32
ENDBRANCH  29  31
BRANCH  29  34
ATOM     34  O4  NON d   1      29.314 -10.113   6.007  0.00  0.00    -0.313 OA
BRANCH  34  35
ATOM     35  C22 NON d   1      28.157 -10.763   5.520  0.00  0.00     0.174 C 
ATOM     36  C23 NON d   1      27.619  -9.978   4.342  0.00  0.00     0.034 C 
ENDBRANCH  34  35
ENDBRANCH  29  34
ENDBRANCH  28  29
ENDBRANCH  26  28
ENDBRANCH  25  26
ENDBRANCH   1  25
TORSDOF 12
ENDMDL
MODEL 9
REMARK VINA RESULT:    -6.710      6.711      7.621
REMARK INTER + INTRA:         -13.568
REMARK INTER:                 -10.289
REMARK INTRA:                  -3.278
REMARK CONF_INDEPENDENT:        3.580
REMARK UNBOUND:                -3.278
REMARK  12 active torsions:
REMARK  status: ('A' for Active; 'I' for Inactive)
REMARK    1  A    between atoms: C2_2  and  O1_3 
REMARK    2  A    between atoms: O1_3  and  P1_4 
REMARK    3  A    between atoms: P1_4  and  C3_6 
REMARK    4  A    between atoms: P1_4  and  O4_30 
REMARK    5  A    between atoms: C3_6  and  N1_7 
REMARK    6  A    between atoms: N1_7  and  C4_8 
REMARK    7  A    between atoms: C4_8  and  C5_9 
REMARK    8  A    between atoms: C8_12  and  C9_13 
REMARK       I    between atoms: C9_13  and  N2_15 
REMARK    9  A    between atoms: N2_15  and  C10_16 
REMARK   10  A    between atoms: C12_18  and  C13_19 
REMARK   11  A    between atoms: C19_26  and  N3_27 
REMARK   12  A    between atoms: O4_30  and  C22_31 
ROOT
ATOM      1  C5  NON d   1      33.140 -20.393   0.550  0.00  0.00    -0.030 A 
ATOM      2  C6  NON d   1      32.113 -20.900  -0.266  0.00  0.00     0.010 A 
ATOM      3  C7  NON d   1      31.128 -20.070  -0.810  0.00  0.00     0.017 A 
ATOM      4  C8  NON d   1      31.157 -18.698  -0.563  0.00  0.00     0.032 A 
ATOM      5  C20 NON d   1      32.181 -18.183   0.254  0.00  0.00     0.017 A 
ATOM      6  C21 NON d   1      33.167 -19.018   0.801  0.00  0.00     0.010 A 
ENDROOT
BRANCH   4   7
ATOM      7  C9  NON d   1      30.141 -17.737  -1.108  0.00  0.00     0.256 C 
ATOM      8  O3  NON d   1      30.446 -17.121  -2.127  0.00  0.00    -0.267 OA
ATOM      9  N2  NON d   1      28.948 -17.603  -0.410  0.00  0.00    -0.321 N 
ATOM     10  H13 NON d   1      28.884 -18.064   0.490  0.00  0.00     0.169 HD
BRANCH   9  11
ATOM     11  C10 NON d   1      27.802 -16.830  -0.753  0.00  0.00     0.057 A 
ATOM     12  C11 NON d   1      26.559 -17.498  -0.617  0.00  0.00     0.044 A 
ATOM     13  C12 NON d   1      25.328 -16.883  -0.915  0.00  0.00    -0.017 A 
ATOM     14  C17 NON d   1      25.384 -15.574  -1.395  0.00  0.00     0.014 A 
ATOM     15  C18 NON d   1      26.599 -14.917  -1.567  0.00  0.00     0.026 A 
ATOM     16  C19 NON d   1      27.819 -15.502  -1.219  0.00  0.00     0.033 A 
BRANCH  13  17
ATOM     17  C13 NON d   1      24.042 -17.614  -0.742  0.00  0.00     0.015 A 
ATOM     18  C14 NON d   1      23.815 -18.967  -0.519  0.00  0.00     0.020 A 
ATOM     19  C15 NON d   1      22.430 -19.300  -0.405  0.00  0.00     0.008 A 
ATOM     20  C16 NON d   1      21.622 -18.200  -0.544  0.00  0.00     0.050 A 
ATOM     21  S1  NON d   1      22.528 -16.778  -0.790  0.00  0.00    -0.101 SA
ENDBRANCH  13  17
BRANCH  16  22
ATOM     22  N3  NON d   1      28.983 -14.825  -1.631  0.00  0.00    -0.301 NA
ATOM     23  H20 NON d   1      28.779 -13.837  -1.814  0.00  0.00     0.124 HD
ATOM     24  H21 NON d   1      29.424 -15.246  -2.447  0.00  0.00     0.124 HD
ENDBRANCH  16  22
ENDBRANCH   9  11
ENDBRANCH   4   7
BRANCH   1  25
ATOM     25  C4  NON d   1      34.174 -21.381   1.030  0.00  0.00     0.308 C 
BRANCH  25  26
ATOM     26  N1  NON d   1      34.902 -21.038   2.246  0.00  0.00     0.098 N 
ATOM     27  H8  NON d   1      34.762 -20.046   2.451  0.00  0.00     0.317 HD
BRANCH  26  28
ATOM     28  C3  NON d   1      34.335 -21.859   3.356  0.00  0.00     0.401 C 
BRANCH  28  29
ATOM     29  P1  NON d   1      33.771 -20.728   4.786  0.00  0.00     0.356 P 
ATOM     30  O2  NON d   1      34.266 -19.506   3.990  0.00  0.00    -0.257 OA
BRANCH  29  31
ATOM     31  O1  NON d   1      32.220 -20.184   4.643  0.00  0.00    -0.313 OA
BRANCH  31  32
ATOM     32  C2  NON d   1      31.168 -21.188   4.427  0.00  0.00     0.174 C 
ATOM     33  C1  NON d   1      30.728 -21.575   3.003  0.00  0.00     0.034 C 
ENDBRANCH  31  32
ENDBRANCH  29  31
BRANCH  29  34
ATOM     34  O4  NON d   1      33.275 -21.950   5.581  0.00  0.00    -0.313 OA
BRANCH  34  35
ATOM     35  C22 NON d   1      33.402 -21.961   6.989  0.00  0.00     0.174 C 
ATOM     36  C23 NON d   1      34.456 -22.979   7.372  0.00  0.00     0.034 C 
ENDBRANCH  34  35
ENDBRANCH  29  34
ENDBRANCH  28  29
ENDBRANCH  26  28
ENDBRANCH  25  26
ENDBRANCH   1  25
TORSDOF 12
ENDMDL
