MODEL 1
REMARK VINA RESULT:    -6.382      0.000      0.000
REMARK INTER + INTRA:          -9.990
REMARK INTER:                  -8.470
REMARK INTRA:                  -1.519
REMARK CONF_INDEPENDENT:        2.088
REMARK UNBOUND:                -1.519
REMARK  7 active torsions:
REMARK  status: ('A' for Active; 'I' for Inactive)
REMARK    1  A    between atoms: N1_2  and  C3_4 
REMARK    2  A    between atoms: C6_7  and  C7_8 
REMARK    3  A    between atoms: C7_8  and  N2_9 
REMARK       I    between atoms: N2_9  and  C8_10 
REMARK       I    between atoms: C8_10  and  N3_12 
REMARK    4  A    between atoms: N3_12  and  C9_13 
REMARK    5  A    between atoms: C9_13  and  C10_14 
REMARK    6  A    between atoms: C10_14  and  C11_15 
REMARK       I    between atoms: C11_15  and  N4_17 
REMARK    7  A    between atoms: N4_17  and  O3_18 
ROOT
ATOM      1  N2  NON d   1      23.861 -18.525   0.480  0.00  0.00    -0.339 N 
ATOM      2  C8  NON d   1      23.001 -18.720  -0.588  0.00  0.00     0.316 C 
ATOM      3  O1  NON d   1      23.350 -18.665  -1.762  0.00  0.00    -0.247 OA
ATOM      4  N3  NON d   1      21.711 -18.997  -0.186  0.00  0.00    -0.343 N 
ATOM      5  H11 NON d   1      23.441 -18.011   1.239  0.00  0.00     0.164 HD
ATOM      6  H12 NON d   1      21.687 -19.543   0.663  0.00  0.00     0.164 HD
ENDROOT
BRANCH   1   7
ATOM      7  C7  NON d   1      25.231 -18.170   0.139  0.00  0.00     0.162 C 
BRANCH   7   8
ATOM      8  C6  NON d   1      25.484 -17.053  -0.855  0.00  0.00    -0.040 A 
ATOM      9  C5  NON d   1      26.795 -16.916  -1.348  0.00  0.00     0.011 A 
ATOM     10  C4  NON d   1      27.137 -15.949  -2.315  0.00  0.00     0.030 A 
ATOM     11  C3  NON d   1      26.195 -15.071  -2.864  0.00  0.00     0.029 A 
ATOM     12  C13 NON d   1      24.892 -15.199  -2.337  0.00  0.00     0.030 A 
ATOM     13  C12 NON d   1      24.536 -16.164  -1.353  0.00  0.00     0.011 A 
BRANCH  11  14
ATOM     14  N1  NON d   1      26.522 -14.163  -3.877  0.00  0.00    -0.390 N 
ATOM     15  C1  NON d   1      26.519 -12.663  -3.530  0.00  0.00     0.149 C 
ATOM     16  C2  NON d   1      26.945 -14.628  -5.283  0.00  0.00     0.149 C 
ENDBRANCH  11  14
ENDBRANCH   7   8
ENDBRANCH   1   7
BRANCH   4  17
ATOM     17  C9  NON d   1      20.719 -19.326  -1.214  0.00  0.00     0.134 C 
BRANCH  17  18
ATOM     18  C10 NON d   1      19.294 -19.338  -0.673  0.00  0.00     0.124 C 
BRANCH  18  19
ATOM     19  C11 NON d   1      19.105 -20.335   0.462  0.00  0.00     0.242 C 
ATOM     20  O2  NON d   1      19.850 -20.409   1.431  0.00  0.00    -0.271 OA
ATOM     21  N4  NON d   1      18.022 -21.169   0.235  0.00  0.00    -0.237 N 
ATOM     22  H17 NON d   1      17.256 -20.849  -0.347  0.00  0.00     0.197 HD
BRANCH  21  23
ATOM     23  O3  NON d   1      17.622 -21.950   1.347  0.00  0.00    -0.287 OA
ATOM     24  H18 NON d   1      18.418 -21.928   1.914  0.00  0.00     0.244 HD
ENDBRANCH  21  23
ENDBRANCH  18  19
ENDBRANCH  17  18
ENDBRANCH   4  17
TORSDOF 7
ENDMDL
MODEL 2
REMARK VINA RESULT:    -6.371      4.864      8.373
REMARK INTER + INTRA:          -9.386
REMARK INTER:                  -8.459
REMARK INTRA:                  -0.927
REMARK CONF_INDEPENDENT:        2.088
REMARK UNBOUND:                -0.927
REMARK  7 active torsions:
REMARK  status: ('A' for Active; 'I' for Inactive)
REMARK    1  A    between atoms: N1_2  and  C3_4 
REMARK    2  A    between atoms: C6_7  and  C7_8 
REMARK    3  A    between atoms: C7_8  and  N2_9 
REMARK       I    between atoms: N2_9  and  C8_10 
REMARK       I    between atoms: C8_10  and  N3_12 
REMARK    4  A    between atoms: N3_12  and  C9_13 
REMARK    5  A    between atoms: C9_13  and  C10_14 
REMARK    6  A    between atoms: C10_14  and  C11_15 
REMARK       I    between atoms: C11_15  and  N4_17 
REMARK    7  A    between atoms: N4_17  and  O3_18 
ROOT
ATOM      1  N2  NON d   1      27.229 -16.272  -0.271  0.00  0.00    -0.339 N 
ATOM      2  C8  NON d   1      27.451 -15.104   0.442  0.00  0.00     0.316 C 
ATOM      3  O1  NON d   1      26.717 -14.124   0.389  0.00  0.00    -0.247 OA
ATOM      4  N3  NON d   1      28.582 -15.171   1.228  0.00  0.00    -0.343 N 
ATOM      5  H11 NON d   1      28.077 -16.686  -0.628  0.00  0.00     0.164 HD
ATOM      6  H12 NON d   1      28.729 -16.097   1.604  0.00  0.00     0.164 HD
ENDROOT
BRANCH   1   7
ATOM      7  C7  NON d   1      26.085 -16.261  -1.171  0.00  0.00     0.162 C 
BRANCH   7   8
ATOM      8  C6  NON d   1      24.835 -17.032  -0.795  0.00  0.00    -0.040 A 
ATOM      9  C5  NON d   1      23.618 -16.328  -0.803  0.00  0.00     0.011 A 
ATOM     10  C4  NON d   1      22.385 -16.951  -0.523  0.00  0.00     0.030 A 
ATOM     11  C3  NON d   1      22.285 -18.317  -0.235  0.00  0.00     0.029 A 
ATOM     12  C13 NON d   1      23.517 -19.005  -0.198  0.00  0.00     0.030 A 
ATOM     13  C12 NON d   1      24.769 -18.384  -0.469  0.00  0.00     0.011 A 
BRANCH  11  14
ATOM     14  N1  NON d   1      21.053 -18.949  -0.031  0.00  0.00    -0.390 N 
ATOM     15  C1  NON d   1      20.225 -19.333  -1.271  0.00  0.00     0.149 C 
ATOM     16  C2  NON d   1      20.553 -19.325   1.377  0.00  0.00     0.149 C 
ENDBRANCH  11  14
ENDBRANCH   7   8
ENDBRANCH   1   7
BRANCH   4  17
ATOM     17  C9  NON d   1      28.879 -14.042   2.115  0.00  0.00     0.134 C 
BRANCH  17  18
ATOM     18  C10 NON d   1      27.748 -13.749   3.093  0.00  0.00     0.124 C 
BRANCH  18  19
ATOM     19  C11 NON d   1      28.147 -13.991   4.542  0.00  0.00     0.242 C 
ATOM     20  O2  NON d   1      27.519 -13.562   5.501  0.00  0.00    -0.271 OA
ATOM     21  N4  NON d   1      29.327 -14.713   4.632  0.00  0.00    -0.237 N 
ATOM     22  H17 NON d   1      29.593 -15.337   3.878  0.00  0.00     0.197 HD
BRANCH  21  23
ATOM     23  O3  NON d   1      29.636 -15.200   5.926  0.00  0.00    -0.287 OA
ATOM     24  H18 NON d   1      29.365 -14.455   6.498  0.00  0.00     0.244 HD
ENDBRANCH  21  23
ENDBRANCH  18  19
ENDBRANCH  17  18
ENDBRANCH   4  17
TORSDOF 7
ENDMDL
MODEL 3
REMARK VINA RESULT:    -6.294      7.949     11.315
REMARK INTER + INTRA:          -9.396
REMARK INTER:                  -8.383
REMARK INTRA:                  -1.013
REMARK CONF_INDEPENDENT:        2.088
REMARK UNBOUND:                -1.013
REMARK  7 active torsions:
REMARK  status: ('A' for Active; 'I' for Inactive)
REMARK    1  A    between atoms: N1_2  and  C3_4 
REMARK    2  A    between atoms: C6_7  and  C7_8 
REMARK    3  A    between atoms: C7_8  and  N2_9 
REMARK       I    between atoms: N2_9  and  C8_10 
REMARK       I    between atoms: C8_10  and  N3_12 
REMARK    4  A    between atoms: N3_12  and  C9_13 
REMARK    5  A    between atoms: C9_13  and  C10_14 
REMARK    6  A    between atoms: C10_14  and  C11_15 
REMARK       I    between atoms: C11_15  and  N4_17 
REMARK    7  A    between atoms: N4_17  and  O3_18 
ROOT
ATOM      1  N2  NON d   1      23.426  -7.537  -5.020  0.00  0.00    -0.339 N 
ATOM      2  C8  NON d   1      23.008  -6.933  -6.195  0.00  0.00     0.316 C 
ATOM      3  O1  NON d   1      23.751  -6.696  -7.140  0.00  0.00    -0.247 OA
ATOM      4  N3  NON d   1      21.660  -6.638  -6.187  0.00  0.00    -0.343 N 
ATOM      5  H11 NON d   1      22.992  -7.148  -4.197  0.00  0.00     0.164 HD
ATOM      6  H12 NON d   1      21.123  -7.333  -5.689  0.00  0.00     0.164 HD
ENDROOT
BRANCH   1   7
ATOM      7  C7  NON d   1      24.850  -7.827  -4.924  0.00  0.00     0.162 C 
BRANCH   7   8
ATOM      8  C6  NON d   1      25.316  -9.270  -4.912  0.00  0.00    -0.040 A 
ATOM      9  C5  NON d   1      25.524  -9.868  -3.656  0.00  0.00     0.011 A 
ATOM     10  C4  NON d   1      25.906 -11.218  -3.519  0.00  0.00     0.030 A 
ATOM     11  C3  NON d   1      26.086 -12.061  -4.622  0.00  0.00     0.029 A 
ATOM     12  C13 NON d   1      25.904 -11.440  -5.876  0.00  0.00     0.030 A 
ATOM     13  C12 NON d   1      25.529 -10.075  -6.028  0.00  0.00     0.011 A 
BRANCH  11  14
ATOM     14  N1  NON d   1      26.391 -13.419  -4.482  0.00  0.00    -0.390 N 
ATOM     15  C1  NON d   1      25.643 -14.219  -3.399  0.00  0.00     0.149 C 
ATOM     16  C2  NON d   1      27.387 -14.132  -5.416  0.00  0.00     0.149 C 
ENDBRANCH  11  14
ENDBRANCH   7   8
ENDBRANCH   1   7
BRANCH   4  17
ATOM     17  C9  NON d   1      21.063  -6.090  -7.409  0.00  0.00     0.134 C 
BRANCH  17  18
ATOM     18  C10 NON d   1      19.631  -5.612  -7.201  0.00  0.00     0.124 C 
BRANCH  18  19
ATOM     19  C11 NON d   1      18.600  -6.616  -7.697  0.00  0.00     0.242 C 
ATOM     20  O2  NON d   1      17.994  -6.500  -8.755  0.00  0.00    -0.271 OA
ATOM     21  N4  NON d   1      18.404  -7.641  -6.785  0.00  0.00    -0.237 N 
ATOM     22  H17 NON d   1      19.150  -7.892  -6.145  0.00  0.00     0.197 HD
BRANCH  21  23
ATOM     23  O3  NON d   1      17.660  -8.743  -7.271  0.00  0.00    -0.287 OA
ATOM     24  H18 NON d   1      17.470  -8.476  -8.192  0.00  0.00     0.244 HD
ENDBRANCH  21  23
ENDBRANCH  18  19
ENDBRANCH  17  18
ENDBRANCH   4  17
TORSDOF 7
ENDMDL
MODEL 4
REMARK VINA RESULT:    -6.095      2.040      2.747
REMARK INTER + INTRA:          -9.179
REMARK INTER:                  -8.184
REMARK INTRA:                  -0.996
REMARK CONF_INDEPENDENT:        2.088
REMARK UNBOUND:                -0.996
REMARK  7 active torsions:
REMARK  status: ('A' for Active; 'I' for Inactive)
REMARK    1  A    between atoms: N1_2  and  C3_4 
REMARK    2  A    between atoms: C6_7  and  C7_8 
REMARK    3  A    between atoms: C7_8  and  N2_9 
REMARK       I    between atoms: N2_9  and  C8_10 
REMARK       I    between atoms: C8_10  and  N3_12 
REMARK    4  A    between atoms: N3_12  and  C9_13 
REMARK    5  A    between atoms: C9_13  and  C10_14 
REMARK    6  A    between atoms: C10_14  and  C11_15 
REMARK       I    between atoms: C11_15  and  N4_17 
REMARK    7  A    between atoms: N4_17  and  O3_18 
ROOT
ATOM      1  N2  NON d   1      24.537 -16.334  -1.272  0.00  0.00    -0.339 N 
ATOM      2  C8  NON d   1      24.285 -17.636  -0.873  0.00  0.00     0.316 C 
ATOM      3  O1  NON d   1      25.151 -18.407  -0.475  0.00  0.00    -0.247 OA
ATOM      4  N3  NON d   1      22.948 -17.968  -0.961  0.00  0.00    -0.343 N 
ATOM      5  H11 NON d   1      23.992 -16.050  -2.071  0.00  0.00     0.164 HD
ATOM      6  H12 NON d   1      22.349 -17.185  -0.742  0.00  0.00     0.164 HD
ENDROOT
BRANCH   1   7
ATOM      7  C7  NON d   1      25.934 -15.925  -1.264  0.00  0.00     0.162 C 
BRANCH   7   8
ATOM      8  C6  NON d   1      26.628 -15.622  -2.578  0.00  0.00    -0.040 A 
ATOM      9  C5  NON d   1      28.022 -15.804  -2.627  0.00  0.00     0.011 A 
ATOM     10  C4  NON d   1      28.766 -15.605  -3.807  0.00  0.00     0.030 A 
ATOM     11  C3  NON d   1      28.168 -15.231  -5.016  0.00  0.00     0.029 A 
ATOM     12  C13 NON d   1      26.774 -15.021  -4.945  0.00  0.00     0.030 A 
ATOM     13  C12 NON d   1      26.013 -15.208  -3.757  0.00  0.00     0.011 A 
BRANCH  11  14
ATOM     14  N1  NON d   1      28.897 -15.107  -6.203  0.00  0.00    -0.390 N 
ATOM     15  C1  NON d   1      30.062 -16.086  -6.441  0.00  0.00     0.149 C 
ATOM     16  C2  NON d   1      28.522 -14.079  -7.288  0.00  0.00     0.149 C 
ENDBRANCH  11  14
ENDBRANCH   7   8
ENDBRANCH   1   7
BRANCH   4  17
ATOM     17  C9  NON d   1      22.526 -19.284  -0.473  0.00  0.00     0.134 C 
BRANCH  17  18
ATOM     18  C10 NON d   1      21.196 -19.236   0.271  0.00  0.00     0.124 C 
BRANCH  18  19
ATOM     19  C11 NON d   1      20.025 -19.685  -0.591  0.00  0.00     0.242 C 
ATOM     20  O2  NON d   1      20.049 -19.700  -1.815  0.00  0.00    -0.271 OA
ATOM     21  N4  NON d   1      18.925 -20.026   0.179  0.00  0.00    -0.237 N 
ATOM     22  H17 NON d   1      19.059 -20.347   1.132  0.00  0.00     0.197 HD
BRANCH  21  23
ATOM     23  O3  NON d   1      17.886 -20.692  -0.518  0.00  0.00    -0.287 OA
ATOM     24  H18 NON d   1      18.009 -20.368  -1.432  0.00  0.00     0.244 HD
ENDBRANCH  21  23
ENDBRANCH  18  19
ENDBRANCH  17  18
ENDBRANCH   4  17
TORSDOF 7
ENDMDL
MODEL 5
REMARK VINA RESULT:    -6.022      1.602      2.163
REMARK INTER + INTRA:          -9.879
REMARK INTER:                  -8.110
REMARK INTRA:                  -1.768
REMARK CONF_INDEPENDENT:        2.088
REMARK UNBOUND:                -1.768
REMARK  7 active torsions:
REMARK  status: ('A' for Active; 'I' for Inactive)
REMARK    1  A    between atoms: N1_2  and  C3_4 
REMARK    2  A    between atoms: C6_7  and  C7_8 
REMARK    3  A    between atoms: C7_8  and  N2_9 
REMARK       I    between atoms: N2_9  and  C8_10 
REMARK       I    between atoms: C8_10  and  N3_12 
REMARK    4  A    between atoms: N3_12  and  C9_13 
REMARK    5  A    between atoms: C9_13  and  C10_14 
REMARK    6  A    between atoms: C10_14  and  C11_15 
REMARK       I    between atoms: C11_15  and  N4_17 
REMARK    7  A    between atoms: N4_17  and  O3_18 
ROOT
ATOM      1  N2  NON d   1      23.237 -18.981  -1.229  0.00  0.00    -0.339 N 
ATOM      2  C8  NON d   1      22.047 -18.854  -0.530  0.00  0.00     0.316 C 
ATOM      3  O1  NON d   1      21.966 -18.377   0.596  0.00  0.00    -0.247 OA
ATOM      4  N3  NON d   1      20.961 -19.312  -1.247  0.00  0.00    -0.343 N 
ATOM      5  H11 NON d   1      23.298 -19.838  -1.758  0.00  0.00     0.164 HD
ATOM      6  H12 NON d   1      21.056 -19.131  -2.236  0.00  0.00     0.164 HD
ENDROOT
BRANCH   1   7
ATOM      7  C7  NON d   1      24.440 -18.573  -0.517  0.00  0.00     0.162 C 
BRANCH   7   8
ATOM      8  C6  NON d   1      25.099 -17.253  -0.866  0.00  0.00    -0.040 A 
ATOM      9  C5  NON d   1      24.642 -16.591  -2.020  0.00  0.00     0.011 A 
ATOM     10  C4  NON d   1      25.142 -15.334  -2.414  0.00  0.00     0.030 A 
ATOM     11  C3  NON d   1      26.114 -14.648  -1.675  0.00  0.00     0.029 A 
ATOM     12  C13 NON d   1      26.586 -15.338  -0.538  0.00  0.00     0.030 A 
ATOM     13  C12 NON d   1      26.097 -16.613  -0.135  0.00  0.00     0.011 A 
BRANCH  11  14
ATOM     14  N1  NON d   1      26.554 -13.368  -2.027  0.00  0.00    -0.390 N 
ATOM     15  C1  NON d   1      26.044 -12.767  -3.350  0.00  0.00     0.149 C 
ATOM     16  C2  NON d   1      27.462 -12.535  -1.103  0.00  0.00     0.149 C 
ENDBRANCH  11  14
ENDBRANCH   7   8
ENDBRANCH   1   7
BRANCH   4  17
ATOM     17  C9  NON d   1      19.625 -19.143  -0.668  0.00  0.00     0.134 C 
BRANCH  17  18
ATOM     18  C10 NON d   1      19.042 -20.450  -0.142  0.00  0.00     0.124 C 
BRANCH  18  19
ATOM     19  C11 NON d   1      18.976 -20.494   1.377  0.00  0.00     0.242 C 
ATOM     20  O2  NON d   1      17.982 -20.836   2.004  0.00  0.00    -0.271 OA
ATOM     21  N4  NON d   1      20.158 -20.056   1.953  0.00  0.00    -0.237 N 
ATOM     22  H17 NON d   1      21.028 -20.142   1.439  0.00  0.00     0.197 HD
BRANCH  21  23
ATOM     23  O3  NON d   1      20.277 -20.302   3.343  0.00  0.00    -0.287 OA
ATOM     24  H18 NON d   1      19.537 -20.919   3.508  0.00  0.00     0.244 HD
ENDBRANCH  21  23
ENDBRANCH  18  19
ENDBRANCH  17  18
ENDBRANCH   4  17
TORSDOF 7
ENDMDL
MODEL 6
REMARK VINA RESULT:    -5.990      2.052      3.545
REMARK INTER + INTRA:          -9.054
REMARK INTER:                  -8.078
REMARK INTRA:                  -0.976
REMARK CONF_INDEPENDENT:        2.088
REMARK UNBOUND:                -0.976
REMARK  7 active torsions:
REMARK  status: ('A' for Active; 'I' for Inactive)
REMARK    1  A    between atoms: N1_2  and  C3_4 
REMARK    2  A    between atoms: C6_7  and  C7_8 
REMARK    3  A    between atoms: C7_8  and  N2_9 
REMARK       I    between atoms: N2_9  and  C8_10 
REMARK       I    between atoms: C8_10  and  N3_12 
REMARK    4  A    between atoms: N3_12  and  C9_13 
REMARK    5  A    between atoms: C9_13  and  C10_14 
REMARK    6  A    between atoms: C10_14  and  C11_15 
REMARK       I    between atoms: C11_15  and  N4_17 
REMARK    7  A    between atoms: N4_17  and  O3_18 
ROOT
ATOM      1  N2  NON d   1      25.045 -16.146  -2.031  0.00  0.00    -0.339 N 
ATOM      2  C8  NON d   1      24.069 -16.675  -1.202  0.00  0.00     0.316 C 
ATOM      3  O1  NON d   1      22.972 -16.157  -1.025  0.00  0.00    -0.247 OA
ATOM      4  N3  NON d   1      24.462 -17.855  -0.606  0.00  0.00    -0.343 N 
ATOM      5  H11 NON d   1      25.977 -16.246  -1.660  0.00  0.00     0.164 HD
ATOM      6  H12 NON d   1      25.046 -18.411  -1.215  0.00  0.00     0.164 HD
ENDROOT
BRANCH   1   7
ATOM      7  C7  NON d   1      24.729 -14.868  -2.653  0.00  0.00     0.162 C 
BRANCH   7   8
ATOM      8  C6  NON d   1      25.670 -14.296  -3.695  0.00  0.00    -0.040 A 
ATOM      9  C5  NON d   1      26.559 -15.190  -4.320  0.00  0.00     0.011 A 
ATOM     10  C4  NON d   1      27.442 -14.783  -5.340  0.00  0.00     0.030 A 
ATOM     11  C3  NON d   1      27.484 -13.467  -5.815  0.00  0.00     0.029 A 
ATOM     12  C13 NON d   1      26.610 -12.575  -5.158  0.00  0.00     0.030 A 
ATOM     13  C12 NON d   1      25.720 -12.971  -4.119  0.00  0.00     0.011 A 
BRANCH  11  14
ATOM     14  N1  NON d   1      28.307 -13.083  -6.878  0.00  0.00    -0.390 N 
ATOM     15  C1  NON d   1      29.480 -14.007  -7.254  0.00  0.00     0.149 C 
ATOM     16  C2  NON d   1      28.028 -11.817  -7.710  0.00  0.00     0.149 C 
ENDBRANCH  11  14
ENDBRANCH   7   8
ENDBRANCH   1   7
BRANCH   4  17
ATOM     17  C9  NON d   1      23.486 -18.577   0.217  0.00  0.00     0.134 C 
BRANCH  17  18
ATOM     18  C10 NON d   1      22.439 -19.306  -0.616  0.00  0.00     0.124 C 
BRANCH  18  19
ATOM     19  C11 NON d   1      21.016 -18.948  -0.214  0.00  0.00     0.242 C 
ATOM     20  O2  NON d   1      20.276 -18.242  -0.888  0.00  0.00    -0.271 OA
ATOM     21  N4  NON d   1      20.686 -19.478   1.023  0.00  0.00    -0.237 N 
ATOM     22  H17 NON d   1      21.154 -20.316   1.351  0.00  0.00     0.197 HD
BRANCH  21  23
ATOM     23  O3  NON d   1      19.311 -19.411   1.358  0.00  0.00    -0.287 OA
ATOM     24  H18 NON d   1      19.050 -18.544   0.991  0.00  0.00     0.244 HD
ENDBRANCH  21  23
ENDBRANCH  18  19
ENDBRANCH  17  18
ENDBRANCH   4  17
TORSDOF 7
ENDMDL
MODEL 7
REMARK VINA RESULT:    -5.869      5.328      8.763
REMARK INTER + INTRA:          -9.273
REMARK INTER:                  -7.957
REMARK INTRA:                  -1.316
REMARK CONF_INDEPENDENT:        2.088
REMARK UNBOUND:                -1.316
REMARK  7 active torsions:
REMARK  status: ('A' for Active; 'I' for Inactive)
REMARK    1  A    between atoms: N1_2  and  C3_4 
REMARK    2  A    between atoms: C6_7  and  C7_8 
REMARK    3  A    between atoms: C7_8  and  N2_9 
REMARK       I    between atoms: N2_9  and  C8_10 
REMARK       I    between atoms: C8_10  and  N3_12 
REMARK    4  A    between atoms: N3_12  and  C9_13 
REMARK    5  A    between atoms: C9_13  and  C10_14 
REMARK    6  A    between atoms: C10_14  and  C11_15 
REMARK       I    between atoms: C11_15  and  N4_17 
REMARK    7  A    between atoms: N4_17  and  O3_18 
ROOT
ATOM      1  N2  NON d   1      29.725 -16.875   0.229  0.00  0.00    -0.339 N 
ATOM      2  C8  NON d   1      30.413 -15.674   0.289  0.00  0.00     0.316 C 
ATOM      3  O1  NON d   1      30.302 -14.783  -0.546  0.00  0.00    -0.247 OA
ATOM      4  N3  NON d   1      31.229 -15.585   1.398  0.00  0.00    -0.343 N 
ATOM      5  H11 NON d   1      30.280 -17.665   0.521  0.00  0.00     0.164 HD
ATOM      6  H12 NON d   1      30.826 -16.044   2.202  0.00  0.00     0.164 HD
ENDROOT
BRANCH   1   7
ATOM      7  C7  NON d   1      28.886 -17.071  -0.945  0.00  0.00     0.162 C 
BRANCH   7   8
ATOM      8  C6  NON d   1      27.386 -17.212  -0.772  0.00  0.00    -0.040 A 
ATOM      9  C5  NON d   1      26.566 -16.442  -1.616  0.00  0.00     0.011 A 
ATOM     10  C4  NON d   1      25.160 -16.528  -1.583  0.00  0.00     0.030 A 
ATOM     11  C3  NON d   1      24.483 -17.400  -0.722  0.00  0.00     0.029 A 
ATOM     12  C13 NON d   1      25.316 -18.143   0.140  0.00  0.00     0.030 A 
ATOM     13  C12 NON d   1      26.737 -18.057   0.125  0.00  0.00     0.011 A 
BRANCH  11  14
ATOM     14  N1  NON d   1      23.091 -17.539  -0.744  0.00  0.00    -0.390 N 
ATOM     15  C1  NON d   1      22.503 -18.949  -0.549  0.00  0.00     0.149 C 
ATOM     16  C2  NON d   1      22.152 -16.326  -0.883  0.00  0.00     0.149 C 
ENDBRANCH  11  14
ENDBRANCH   7   8
ENDBRANCH   1   7
BRANCH   4  17
ATOM     17  C9  NON d   1      31.937 -14.325   1.640  0.00  0.00     0.134 C 
BRANCH  17  18
ATOM     18  C10 NON d   1      31.358 -13.540   2.811  0.00  0.00     0.124 C 
BRANCH  18  19
ATOM     19  C11 NON d   1      30.161 -14.233   3.447  0.00  0.00     0.242 C 
ATOM     20  O2  NON d   1      29.103 -14.432   2.863  0.00  0.00    -0.271 OA
ATOM     21  N4  NON d   1      30.404 -14.562   4.771  0.00  0.00    -0.237 N 
ATOM     22  H17 NON d   1      31.357 -14.718   5.082  0.00  0.00     0.197 HD
BRANCH  21  23
ATOM     23  O3  NON d   1      29.451 -15.428   5.359  0.00  0.00    -0.287 OA
ATOM     24  H18 NON d   1      29.116 -15.925   4.586  0.00  0.00     0.244 HD
ENDBRANCH  21  23
ENDBRANCH  18  19
ENDBRANCH  17  18
ENDBRANCH   4  17
TORSDOF 7
ENDMDL
MODEL 8
REMARK VINA RESULT:    -5.825      3.541      8.045
REMARK INTER + INTRA:          -9.572
REMARK INTER:                  -7.914
REMARK INTRA:                  -1.659
REMARK CONF_INDEPENDENT:        2.088
REMARK UNBOUND:                -1.659
REMARK  7 active torsions:
REMARK  status: ('A' for Active; 'I' for Inactive)
REMARK    1  A    between atoms: N1_2  and  C3_4 
REMARK    2  A    between atoms: C6_7  and  C7_8 
REMARK    3  A    between atoms: C7_8  and  N2_9 
REMARK       I    between atoms: N2_9  and  C8_10 
REMARK       I    between atoms: C8_10  and  N3_12 
REMARK    4  A    between atoms: N3_12  and  C9_13 
REMARK    5  A    between atoms: C9_13  and  C10_14 
REMARK    6  A    between atoms: C10_14  and  C11_15 
REMARK       I    between atoms: C11_15  and  N4_17 
REMARK    7  A    between atoms: N4_17  and  O3_18 
ROOT
ATOM      1  N2  NON d   1      26.255 -15.371  -1.202  0.00  0.00    -0.339 N 
ATOM      2  C8  NON d   1      25.674 -14.682  -2.254  0.00  0.00     0.316 C 
ATOM      3  O1  NON d   1      24.931 -15.199  -3.080  0.00  0.00    -0.247 OA
ATOM      4  N3  NON d   1      26.015 -13.345  -2.263  0.00  0.00    -0.343 N 
ATOM      5  H11 NON d   1      27.203 -15.084  -1.014  0.00  0.00     0.164 HD
ATOM      6  H12 NON d   1      26.111 -12.972  -1.329  0.00  0.00     0.164 HD
ENDROOT
BRANCH   1   7
ATOM      7  C7  NON d   1      25.992 -16.803  -1.156  0.00  0.00     0.162 C 
BRANCH   7   8
ATOM      8  C6  NON d   1      24.582 -17.291  -0.882  0.00  0.00    -0.040 A 
ATOM      9  C5  NON d   1      24.420 -18.658  -0.593  0.00  0.00     0.011 A 
ATOM     10  C4  NON d   1      23.167 -19.216  -0.271  0.00  0.00     0.030 A 
ATOM     11  C3  NON d   1      22.000 -18.446  -0.198  0.00  0.00     0.029 A 
ATOM     12  C13 NON d   1      22.172 -17.083  -0.521  0.00  0.00     0.030 A 
ATOM     13  C12 NON d   1      23.430 -16.509  -0.859  0.00  0.00     0.011 A 
BRANCH  11  14
ATOM     14  N1  NON d   1      20.771 -18.987   0.195  0.00  0.00    -0.390 N 
ATOM     15  C1  NON d   1      19.741 -19.311  -0.902  0.00  0.00     0.149 C 
ATOM     16  C2  NON d   1      20.462 -19.324   1.666  0.00  0.00     0.149 C 
ENDBRANCH  11  14
ENDBRANCH   7   8
ENDBRANCH   1   7
BRANCH   4  17
ATOM     17  C9  NON d   1      25.388 -12.475  -3.263  0.00  0.00     0.134 C 
BRANCH  17  18
ATOM     18  C10 NON d   1      25.330 -13.115  -4.646  0.00  0.00     0.124 C 
BRANCH  18  19
ATOM     19  C11 NON d   1      26.687 -13.618  -5.116  0.00  0.00     0.242 C 
ATOM     20  O2  NON d   1      27.657 -12.892  -5.294  0.00  0.00    -0.271 OA
ATOM     21  N4  NON d   1      26.670 -14.982  -5.359  0.00  0.00    -0.237 N 
ATOM     22  H17 NON d   1      26.007 -15.571  -4.867  0.00  0.00     0.197 HD
BRANCH  21  23
ATOM     23  O3  NON d   1      27.942 -15.574  -5.553  0.00  0.00    -0.287 OA
ATOM     24  H18 NON d   1      28.531 -14.795  -5.584  0.00  0.00     0.244 HD
ENDBRANCH  21  23
ENDBRANCH  18  19
ENDBRANCH  17  18
ENDBRANCH   4  17
TORSDOF 7
ENDMDL
MODEL 9
REMARK VINA RESULT:    -5.484      5.588      9.493
REMARK INTER + INTRA:          -9.271
REMARK INTER:                  -7.572
REMARK INTRA:                  -1.699
REMARK CONF_INDEPENDENT:        2.088
REMARK UNBOUND:                -1.699
REMARK  7 active torsions:
REMARK  status: ('A' for Active; 'I' for Inactive)
REMARK    1  A    between atoms: N1_2  and  C3_4 
REMARK    2  A    between atoms: C6_7  and  C7_8 
REMARK    3  A    between atoms: C7_8  and  N2_9 
REMARK       I    between atoms: N2_9  and  C8_10 
REMARK       I    between atoms: C8_10  and  N3_12 
REMARK    4  A    between atoms: N3_12  and  C9_13 
REMARK    5  A    between atoms: C9_13  and  C10_14 
REMARK    6  A    between atoms: C10_14  and  C11_15 
REMARK       I    between atoms: C11_15  and  N4_17 
REMARK    7  A    between atoms: N4_17  and  O3_18 
ROOT
ATOM      1  N2  NON d   1      25.346 -12.497  -4.360  0.00  0.00    -0.339 N 
ATOM      2  C8  NON d   1      25.993 -11.364  -3.893  0.00  0.00     0.316 C 
ATOM      3  O1  NON d   1      27.181 -11.333  -3.593  0.00  0.00    -0.247 OA
ATOM      4  N3  NON d   1      25.155 -10.271  -3.815  0.00  0.00    -0.343 N 
ATOM      5  H11 NON d   1      24.409 -12.596  -4.001  0.00  0.00     0.164 HD
ATOM      6  H12 NON d   1      24.471 -10.263  -4.558  0.00  0.00     0.164 HD
ENDROOT
BRANCH   1   7
ATOM      7  C7  NON d   1      26.148 -13.711  -4.416  0.00  0.00     0.162 C 
BRANCH   7   8
ATOM      8  C6  NON d   1      26.058 -14.715  -3.283  0.00  0.00    -0.040 A 
ATOM      9  C5  NON d   1      24.779 -14.981  -2.760  0.00  0.00     0.011 A 
ATOM     10  C4  NON d   1      24.565 -15.933  -1.743  0.00  0.00     0.030 A 
ATOM     11  C3  NON d   1      25.607 -16.692  -1.196  0.00  0.00     0.029 A 
ATOM     12  C13 NON d   1      26.887 -16.393  -1.708  0.00  0.00     0.030 A 
ATOM     13  C12 NON d   1      27.118 -15.426  -2.728  0.00  0.00     0.011 A 
BRANCH  11  14
ATOM     14  N1  NON d   1      25.382 -17.689  -0.241  0.00  0.00    -0.390 N 
ATOM     15  C1  NON d   1      23.981 -18.325  -0.177  0.00  0.00     0.149 C 
ATOM     16  C2  NON d   1      26.504 -18.204   0.681  0.00  0.00     0.149 C 
ENDBRANCH  11  14
ENDBRANCH   7   8
ENDBRANCH   1   7
BRANCH   4  17
ATOM     17  C9  NON d   1      25.734  -8.979  -3.433  0.00  0.00     0.134 C 
BRANCH  17  18
ATOM     18  C10 NON d   1      25.577  -7.921  -4.519  0.00  0.00     0.124 C 
BRANCH  18  19
ATOM     19  C11 NON d   1      24.227  -7.992  -5.217  0.00  0.00     0.242 C 
ATOM     20  O2  NON d   1      23.948  -8.821  -6.074  0.00  0.00    -0.271 OA
ATOM     21  N4  NON d   1      23.380  -6.979  -4.796  0.00  0.00    -0.237 N 
ATOM     22  H17 NON d   1      23.500  -6.577  -3.873  0.00  0.00     0.197 HD
BRANCH  21  23
ATOM     23  O3  NON d   1      22.029  -7.119  -5.199  0.00  0.00    -0.287 OA
ATOM     24  H18 NON d   1      22.064  -7.912  -5.770  0.00  0.00     0.244 HD
ENDBRANCH  21  23
ENDBRANCH  18  19
ENDBRANCH  17  18
ENDBRANCH   4  17
TORSDOF 7
ENDMDL
