MODEL 1
REMARK VINA RESULT:   -32.858      0.000      0.000
REMARK INTER + INTRA:         -37.657
REMARK INTER:                 -36.437
REMARK INTRA:                  -1.220
REMARK CONF_INDEPENDENT:        3.580
REMARK UNBOUND:                -1.220
REMARK  12 active torsions:
REMARK  status: ('A' for Active; 'I' for Inactive)
REMARK    1  A    between atoms: C1_2  and  N1_3 
REMARK    2  A    between atoms: N1_3  and  O2_4 
REMARK    3  A    between atoms: N1_3  and  C2_5 
REMARK    4  A    between atoms: C2_5  and  C3_6 
REMARK    5  A    between atoms: C3_6  and  C4_7 
REMARK    6  A    between atoms: C4_7  and  C5_8 
REMARK    7  A    between atoms: C5_8  and  C6_9 
REMARK    8  A    between atoms: C6_9  and  C7_10 
REMARK    9  A    between atoms: C7_10  and  C8_11 
REMARK   10  A    between atoms: C7_10  and  C18_24 
REMARK       I    between atoms: C8_11  and  N2_13 
REMARK   11  A    between atoms: N2_13  and  C9_14 
REMARK       I    between atoms: C18_24  and  N4_26 
REMARK   12  A    between atoms: N4_26  and  C19_27 
ROOT
ATOM      1  C7  NON d   1      27.172 -17.058  -0.139  0.00  0.00     0.170 C 
ENDROOT
BRANCH   1   2
ATOM      2  C6  NON d   1      26.083 -18.075   0.441  0.00  0.00     0.024 C 
BRANCH   2   3
ATOM      3  C5  NON d   1      24.614 -17.746  -0.050  0.00  0.00     0.001 C 
BRANCH   3   4
ATOM      4  C4  NON d   1      23.612 -18.928  -0.145  0.00  0.00     0.001 C 
BRANCH   4   5
ATOM      5  C3  NON d   1      22.127 -18.556  -0.209  0.00  0.00     0.017 C 
BRANCH   5   6
ATOM      6  C2  NON d   1      21.308 -19.285  -1.271  0.00  0.00     0.129 C 
BRANCH   6   7
ATOM      7  N1  NON d   1      19.881 -19.325  -1.016  0.00  0.00    -0.140 NA
BRANCH   7   8
ATOM      8  C1  NON d   1      19.391 -20.166  -0.030  0.00  0.00     0.349 C 
ATOM      9  O1  NON d   1      18.266 -20.656  -0.052  0.00  0.00    -0.287 OA
ENDBRANCH   7   8
BRANCH   7  10
ATOM     10  O2  NON d   1      19.343 -18.010  -0.892  0.00  0.00    -0.306 OA
ATOM     11  H2  NON d   1      18.717 -17.967  -1.646  0.00  0.00     0.237 HD
ENDBRANCH   7  10
ENDBRANCH   6   7
ENDBRANCH   5   6
ENDBRANCH   4   5
ENDBRANCH   3   4
ENDBRANCH   2   3
ENDBRANCH   1   2
BRANCH   1  12
ATOM     12  C8  NON d   1      27.486 -16.639  -1.615  0.00  0.00     0.235 C 
ATOM     13  O3  NON d   1      28.582 -16.818  -2.139  0.00  0.00    -0.272 OA
ATOM     14  N2  NON d   1      26.441 -15.909  -2.169  0.00  0.00    -0.326 N 
ATOM     15  H14 NON d   1      25.508 -16.271  -1.956  0.00  0.00     0.169 HD
BRANCH  14  16
ATOM     16  C9  NON d   1      26.512 -14.826  -3.064  0.00  0.00     0.035 A 
ATOM     17  C10 NON d   1      26.668 -15.109  -4.422  0.00  0.00     0.032 A 
ATOM     18  C11 NON d   1      26.653 -14.077  -5.371  0.00  0.00     0.035 A 
ATOM     19  C12 NON d   1      26.419 -12.758  -5.016  0.00  0.00     0.066 A 
ATOM     20  N3  NON d   1      26.367 -11.823  -5.981  0.00  0.00    -0.260 NA
ATOM     21  C16 NON d   1      26.209 -12.471  -3.648  0.00  0.00    -0.005 A 
ATOM     22  C13 NON d   1      26.082 -10.555  -5.615  0.00  0.00     0.117 A 
ATOM     23  C14 NON d   1      25.825 -10.170  -4.314  0.00  0.00     0.020 A 
ATOM     24  C15 NON d   1      25.894 -11.143  -3.319  0.00  0.00     0.015 A 
ATOM     25  C17 NON d   1      26.293 -13.501  -2.677  0.00  0.00     0.043 A 
ENDBRANCH  14  16
ENDBRANCH   1  12
BRANCH   1  26
ATOM     26  C18 NON d   1      27.049 -15.730   0.631  0.00  0.00     0.235 C 
ATOM     27  O4  NON d   1      26.221 -14.940   0.138  0.00  0.00    -0.272 OA
ATOM     28  N4  NON d   1      27.825 -15.347   1.699  0.00  0.00    -0.326 N 
ATOM     29  H21 NON d   1      28.610 -15.907   1.990  0.00  0.00     0.169 HD
BRANCH  28  30
ATOM     30  C19 NON d   1      27.759 -14.083   2.355  0.00  0.00     0.035 A 
ATOM     31  C20 NON d   1      28.448 -13.935   3.561  0.00  0.00     0.032 A 
ATOM     32  C21 NON d   1      28.433 -12.711   4.248  0.00  0.00     0.035 A 
ATOM     33  C22 NON d   1      27.726 -11.613   3.777  0.00  0.00     0.066 A 
ATOM     34  N5  NON d   1      27.728 -10.463   4.477  0.00  0.00    -0.260 NA
ATOM     35  C26 NON d   1      27.018 -11.758   2.569  0.00  0.00    -0.005 A 
ATOM     36  C23 NON d   1      27.015  -9.421   3.990  0.00  0.00     0.117 A 
ATOM     37  C24 NON d   1      26.291  -9.465   2.815  0.00  0.00     0.020 A 
ATOM     38  C25 NON d   1      26.296 -10.652   2.095  0.00  0.00     0.015 A 
ATOM     39  C27 NON d   1      27.042 -12.984   1.872  0.00  0.00     0.043 A 
ENDBRANCH  28  30
ENDBRANCH   1  26
TORSDOF 12
ENDMDL
MODEL 2
REMARK VINA RESULT:   -32.546      1.264      2.162
REMARK INTER + INTRA:         -37.583
REMARK INTER:                 -36.125
REMARK INTRA:                  -1.458
REMARK CONF_INDEPENDENT:        3.580
REMARK UNBOUND:                -1.458
REMARK  12 active torsions:
REMARK  status: ('A' for Active; 'I' for Inactive)
REMARK    1  A    between atoms: C1_2  and  N1_3 
REMARK    2  A    between atoms: N1_3  and  O2_4 
REMARK    3  A    between atoms: N1_3  and  C2_5 
REMARK    4  A    between atoms: C2_5  and  C3_6 
REMARK    5  A    between atoms: C3_6  and  C4_7 
REMARK    6  A    between atoms: C4_7  and  C5_8 
REMARK    7  A    between atoms: C5_8  and  C6_9 
REMARK    8  A    between atoms: C6_9  and  C7_10 
REMARK    9  A    between atoms: C7_10  and  C8_11 
REMARK   10  A    between atoms: C7_10  and  C18_24 
REMARK       I    between atoms: C8_11  and  N2_13 
REMARK   11  A    between atoms: N2_13  and  C9_14 
REMARK       I    between atoms: C18_24  and  N4_26 
REMARK   12  A    between atoms: N4_26  and  C19_27 
ROOT
ATOM      1  C7  NON d   1      27.089 -16.662  -0.617  0.00  0.00     0.170 C 
ENDROOT
BRANCH   1   2
ATOM      2  C6  NON d   1      26.137 -17.875  -0.193  0.00  0.00     0.024 C 
BRANCH   2   3
ATOM      3  C5  NON d   1      24.614 -17.455  -0.095  0.00  0.00     0.001 C 
BRANCH   3   4
ATOM      4  C4  NON d   1      23.595 -18.262  -0.943  0.00  0.00     0.001 C 
BRANCH   4   5
ATOM      5  C3  NON d   1      22.161 -18.323  -0.405  0.00  0.00     0.017 C 
BRANCH   5   6
ATOM      6  C2  NON d   1      21.238 -19.324  -1.094  0.00  0.00     0.129 C 
BRANCH   6   7
ATOM      7  N1  NON d   1      19.823 -19.071  -0.911  0.00  0.00    -0.140 NA
BRANCH   7   8
ATOM      8  C1  NON d   1      19.140 -19.728   0.100  0.00  0.00     0.349 C 
ATOM      9  O1  NON d   1      18.641 -20.842  -0.029  0.00  0.00    -0.287 OA
ENDBRANCH   7   8
BRANCH   7  10
ATOM     10  O2  NON d   1      19.546 -17.672  -0.900  0.00  0.00    -0.306 OA
ATOM     11  H2  NON d   1      19.928 -17.374  -1.753  0.00  0.00     0.237 HD
ENDBRANCH   7  10
ENDBRANCH   6   7
ENDBRANCH   5   6
ENDBRANCH   4   5
ENDBRANCH   3   4
ENDBRANCH   2   3
ENDBRANCH   1   2
BRANCH   1  12
ATOM     12  C8  NON d   1      27.146 -15.831  -1.944  0.00  0.00     0.235 C 
ATOM     13  O3  NON d   1      28.044 -15.960  -2.771  0.00  0.00    -0.272 OA
ATOM     14  N2  NON d   1      26.167 -14.846  -1.967  0.00  0.00    -0.326 N 
ATOM     15  H14 NON d   1      25.252 -15.144  -1.621  0.00  0.00     0.169 HD
BRANCH  14  16
ATOM     16  C9  NON d   1      26.248 -13.549  -2.505  0.00  0.00     0.035 A 
ATOM     17  C10 NON d   1      26.838 -12.553  -1.724  0.00  0.00     0.032 A 
ATOM     18  C11 NON d   1      27.032 -11.263  -2.240  0.00  0.00     0.035 A 
ATOM     19  C12 NON d   1      26.712 -10.943  -3.549  0.00  0.00     0.066 A 
ATOM     20  N3  NON d   1      26.968  -9.701  -3.998  0.00  0.00    -0.260 NA
ATOM     21  C16 NON d   1      26.162 -11.960  -4.362  0.00  0.00    -0.005 A 
ATOM     22  C13 NON d   1      26.701  -9.430  -5.293  0.00  0.00     0.117 A 
ATOM     23  C14 NON d   1      26.196 -10.357  -6.183  0.00  0.00     0.020 A 
ATOM     24  C15 NON d   1      25.921 -11.638  -5.707  0.00  0.00     0.015 A 
ATOM     25  C17 NON d   1      25.900 -13.245  -3.824  0.00  0.00     0.043 A 
ENDBRANCH  14  16
ENDBRANCH   1  12
BRANCH   1  26
ATOM     26  C18 NON d   1      27.059 -15.610   0.507  0.00  0.00     0.235 C 
ATOM     27  O4  NON d   1      26.093 -14.827   0.433  0.00  0.00    -0.272 OA
ATOM     28  N4  NON d   1      28.028 -15.431   1.465  0.00  0.00    -0.326 N 
ATOM     29  H21 NON d   1      28.893 -15.946   1.423  0.00  0.00     0.169 HD
BRANCH  28  30
ATOM     30  C19 NON d   1      28.032 -14.403   2.453  0.00  0.00     0.035 A 
ATOM     31  C20 NON d   1      27.842 -13.086   2.028  0.00  0.00     0.032 A 
ATOM     32  C21 NON d   1      27.823 -12.032   2.954  0.00  0.00     0.035 A 
ATOM     33  C22 NON d   1      28.008 -12.244   4.313  0.00  0.00     0.066 A 
ATOM     34  N5  NON d   1      27.995 -11.201   5.164  0.00  0.00    -0.260 NA
ATOM     35  C26 NON d   1      28.212 -13.567   4.748  0.00  0.00    -0.005 A 
ATOM     36  C23 NON d   1      28.193 -11.450   6.479  0.00  0.00     0.117 A 
ATOM     37  C24 NON d   1      28.400 -12.711   7.002  0.00  0.00     0.020 A 
ATOM     38  C25 NON d   1      28.408 -13.784   6.121  0.00  0.00     0.015 A 
ATOM     39  C27 NON d   1      28.221 -14.629   3.819  0.00  0.00     0.043 A 
ENDBRANCH  28  30
ENDBRANCH   1  26
TORSDOF 12
ENDMDL
MODEL 3
REMARK VINA RESULT:   -32.536      2.515      3.630
REMARK INTER + INTRA:         -36.998
REMARK INTER:                 -36.116
REMARK INTRA:                  -0.882
REMARK CONF_INDEPENDENT:        3.580
REMARK UNBOUND:                -0.882
REMARK  12 active torsions:
REMARK  status: ('A' for Active; 'I' for Inactive)
REMARK    1  A    between atoms: C1_2  and  N1_3 
REMARK    2  A    between atoms: N1_3  and  O2_4 
REMARK    3  A    between atoms: N1_3  and  C2_5 
REMARK    4  A    between atoms: C2_5  and  C3_6 
REMARK    5  A    between atoms: C3_6  and  C4_7 
REMARK    6  A    between atoms: C4_7  and  C5_8 
REMARK    7  A    between atoms: C5_8  and  C6_9 
REMARK    8  A    between atoms: C6_9  and  C7_10 
REMARK    9  A    between atoms: C7_10  and  C8_11 
REMARK   10  A    between atoms: C7_10  and  C18_24 
REMARK       I    between atoms: C8_11  and  N2_13 
REMARK   11  A    between atoms: N2_13  and  C9_14 
REMARK       I    between atoms: C18_24  and  N4_26 
REMARK   12  A    between atoms: N4_26  and  C19_27 
ROOT
ATOM      1  C7  NON d   1      27.065 -16.865  -0.418  0.00  0.00     0.170 C 
ENDROOT
BRANCH   1   2
ATOM      2  C6  NON d   1      26.183 -18.063   0.167  0.00  0.00     0.024 C 
BRANCH   2   3
ATOM      3  C5  NON d   1      24.637 -17.724   0.208  0.00  0.00     0.001 C 
BRANCH   3   4
ATOM      4  C4  NON d   1      23.655 -18.800  -0.327  0.00  0.00     0.001 C 
BRANCH   4   5
ATOM      5  C3  NON d   1      22.182 -18.389  -0.422  0.00  0.00     0.017 C 
BRANCH   5   6
ATOM      6  C2  NON d   1      21.289 -19.312  -1.247  0.00  0.00     0.129 C 
BRANCH   6   7
ATOM      7  N1  NON d   1      19.872 -19.195  -0.968  0.00  0.00    -0.140 NA
BRANCH   7   8
ATOM      8  C1  NON d   1      19.319 -19.938   0.063  0.00  0.00     0.349 C 
ATOM      9  O1  NON d   1      19.101 -19.489   1.184  0.00  0.00    -0.287 OA
ENDBRANCH   7   8
BRANCH   7  10
ATOM     10  O2  NON d   1      19.471 -17.829  -0.895  0.00  0.00    -0.306 OA
ATOM     11  H2  NON d   1      20.034 -17.408  -1.580  0.00  0.00     0.237 HD
ENDBRANCH   7  10
ENDBRANCH   6   7
ENDBRANCH   5   6
ENDBRANCH   4   5
ENDBRANCH   3   4
ENDBRANCH   2   3
ENDBRANCH   1   2
BRANCH   1  12
ATOM     12  C8  NON d   1      27.021 -16.158  -1.815  0.00  0.00     0.235 C 
ATOM     13  O3  NON d   1      26.007 -16.112  -2.505  0.00  0.00    -0.272 OA
ATOM     14  N2  NON d   1      28.287 -15.756  -2.220  0.00  0.00    -0.326 N 
ATOM     15  H14 NON d   1      28.859 -15.337  -1.483  0.00  0.00     0.169 HD
BRANCH  14  16
ATOM     16  C9  NON d   1      28.826 -15.750  -3.520  0.00  0.00     0.035 A 
ATOM     17  C10 NON d   1      28.532 -14.662  -4.344  0.00  0.00     0.032 A 
ATOM     18  C11 NON d   1      29.113 -14.553  -5.615  0.00  0.00     0.035 A 
ATOM     19  C12 NON d   1      30.041 -15.471  -6.077  0.00  0.00     0.066 A 
ATOM     20  N3  NON d   1      30.599 -15.282  -7.286  0.00  0.00    -0.260 NA
ATOM     21  C16 NON d   1      30.383 -16.548  -5.227  0.00  0.00    -0.005 A 
ATOM     22  C13 NON d   1      31.543 -16.160  -7.689  0.00  0.00     0.117 A 
ATOM     23  C14 NON d   1      31.977 -17.225  -6.926  0.00  0.00     0.020 A 
ATOM     24  C15 NON d   1      31.385 -17.421  -5.681  0.00  0.00     0.015 A 
ATOM     25  C17 NON d   1      29.746 -16.700  -3.970  0.00  0.00     0.043 A 
ENDBRANCH  14  16
ENDBRANCH   1  12
BRANCH   1  26
ATOM     26  C18 NON d   1      27.056 -15.716   0.607  0.00  0.00     0.235 C 
ATOM     27  O4  NON d   1      26.200 -14.842   0.371  0.00  0.00    -0.272 OA
ATOM     28  N4  NON d   1      27.948 -15.554   1.640  0.00  0.00    -0.326 N 
ATOM     29  H21 NON d   1      28.746 -16.162   1.729  0.00  0.00     0.169 HD
BRANCH  28  30
ATOM     30  C19 NON d   1      27.981 -14.445   2.536  0.00  0.00     0.035 A 
ATOM     31  C20 NON d   1      27.771 -13.170   2.007  0.00  0.00     0.032 A 
ATOM     32  C21 NON d   1      27.780 -12.040   2.839  0.00  0.00     0.035 A 
ATOM     33  C22 NON d   1      28.013 -12.135   4.204  0.00  0.00     0.066 A 
ATOM     34  N5  NON d   1      28.026 -11.022   4.962  0.00  0.00    -0.260 NA
ATOM     35  C26 NON d   1      28.239 -13.415   4.743  0.00  0.00    -0.005 A 
ATOM     36  C23 NON d   1      28.271 -11.157   6.286  0.00  0.00     0.117 A 
ATOM     37  C24 NON d   1      28.502 -12.368   6.907  0.00  0.00     0.020 A 
ATOM     38  C25 NON d   1      28.483 -13.513   6.122  0.00  0.00     0.015 A 
ATOM     39  C27 NON d   1      28.219 -14.553   3.909  0.00  0.00     0.043 A 
ENDBRANCH  28  30
ENDBRANCH   1  26
TORSDOF 12
ENDMDL
MODEL 4
REMARK VINA RESULT:   -32.437      1.324      1.946
REMARK INTER + INTRA:         -37.691
REMARK INTER:                 -36.017
REMARK INTRA:                  -1.674
REMARK CONF_INDEPENDENT:        3.580
REMARK UNBOUND:                -1.674
REMARK  12 active torsions:
REMARK  status: ('A' for Active; 'I' for Inactive)
REMARK    1  A    between atoms: C1_2  and  N1_3 
REMARK    2  A    between atoms: N1_3  and  O2_4 
REMARK    3  A    between atoms: N1_3  and  C2_5 
REMARK    4  A    between atoms: C2_5  and  C3_6 
REMARK    5  A    between atoms: C3_6  and  C4_7 
REMARK    6  A    between atoms: C4_7  and  C5_8 
REMARK    7  A    between atoms: C5_8  and  C6_9 
REMARK    8  A    between atoms: C6_9  and  C7_10 
REMARK    9  A    between atoms: C7_10  and  C8_11 
REMARK   10  A    between atoms: C7_10  and  C18_24 
REMARK       I    between atoms: C8_11  and  N2_13 
REMARK   11  A    between atoms: N2_13  and  C9_14 
REMARK       I    between atoms: C18_24  and  N4_26 
REMARK   12  A    between atoms: N4_26  and  C19_27 
ROOT
ATOM      1  C7  NON d   1      26.607 -16.679  -0.565  0.00  0.00     0.170 C 
ENDROOT
BRANCH   1   2
ATOM      2  C6  NON d   1      26.122 -18.008   0.179  0.00  0.00     0.024 C 
BRANCH   2   3
ATOM      3  C5  NON d   1      24.550 -18.068   0.365  0.00  0.00     0.001 C 
BRANCH   3   4
ATOM      4  C4  NON d   1      23.697 -18.429  -0.880  0.00  0.00     0.001 C 
BRANCH   4   5
ATOM      5  C3  NON d   1      22.185 -18.213  -0.754  0.00  0.00     0.017 C 
BRANCH   5   6
ATOM      6  C2  NON d   1      21.330 -19.476  -0.804  0.00  0.00     0.129 C 
BRANCH   6   7
ATOM      7  N1  NON d   1      19.903 -19.240  -0.895  0.00  0.00    -0.140 NA
BRANCH   7   8
ATOM      8  C1  NON d   1      19.046 -19.930  -0.053  0.00  0.00     0.349 C 
ATOM      9  O1  NON d   1      18.027 -20.497  -0.436  0.00  0.00    -0.287 OA
ENDBRANCH   7   8
BRANCH   7  10
ATOM     10  O2  NON d   1      19.610 -17.844  -0.904  0.00  0.00    -0.306 OA
ATOM     11  H2  NON d   1      18.672 -17.827  -1.188  0.00  0.00     0.237 HD
ENDBRANCH   7  10
ENDBRANCH   6   7
ENDBRANCH   5   6
ENDBRANCH   4   5
ENDBRANCH   3   4
ENDBRANCH   2   3
ENDBRANCH   1   2
BRANCH   1  12
ATOM     12  C8  NON d   1      26.047 -15.967  -1.843  0.00  0.00     0.235 C 
ATOM     13  O3  NON d   1      25.260 -16.507  -2.615  0.00  0.00    -0.272 OA
ATOM     14  N2  NON d   1      26.677 -14.748  -2.061  0.00  0.00    -0.326 N 
ATOM     15  H14 NON d   1      26.824 -14.186  -1.219  0.00  0.00     0.169 HD
BRANCH  14  16
ATOM     16  C9  NON d   1      27.024 -14.153  -3.288  0.00  0.00     0.035 A 
ATOM     17  C10 NON d   1      27.526 -14.978  -4.295  0.00  0.00     0.032 A 
ATOM     18  C11 NON d   1      27.803 -14.461  -5.569  0.00  0.00     0.035 A 
ATOM     19  C12 NON d   1      27.533 -13.142  -5.898  0.00  0.00     0.066 A 
ATOM     20  N3  NON d   1      27.776 -12.721  -7.152  0.00  0.00    -0.260 NA
ATOM     21  C16 NON d   1      26.977 -12.314  -4.898  0.00  0.00    -0.005 A 
ATOM     22  C13 NON d   1      27.451 -11.448  -7.464  0.00  0.00     0.117 A 
ATOM     23  C14 NON d   1      26.872 -10.565  -6.575  0.00  0.00     0.020 A 
ATOM     24  C15 NON d   1      26.635 -11.005  -5.275  0.00  0.00     0.015 A 
ATOM     25  C17 NON d   1      26.760 -12.814  -3.589  0.00  0.00     0.043 A 
ENDBRANCH  14  16
ENDBRANCH   1  12
BRANCH   1  26
ATOM     26  C18 NON d   1      26.738 -15.560   0.485  0.00  0.00     0.235 C 
ATOM     27  O4  NON d   1      25.866 -14.676   0.386  0.00  0.00    -0.272 OA
ATOM     28  N4  NON d   1      27.756 -15.432   1.400  0.00  0.00    -0.326 N 
ATOM     29  H21 NON d   1      28.554 -16.046   1.368  0.00  0.00     0.169 HD
BRANCH  28  30
ATOM     30  C19 NON d   1      27.913 -14.350   2.314  0.00  0.00     0.035 A 
ATOM     31  C20 NON d   1      28.044 -13.063   1.789  0.00  0.00     0.032 A 
ATOM     32  C21 NON d   1      28.189 -11.955   2.639  0.00  0.00     0.035 A 
ATOM     33  C22 NON d   1      28.227 -12.089   4.020  0.00  0.00     0.066 A 
ATOM     34  N5  NON d   1      28.381 -10.999   4.796  0.00  0.00    -0.260 NA
ATOM     35  C26 NON d   1      28.108 -13.384   4.557  0.00  0.00    -0.005 A 
ATOM     36  C23 NON d   1      28.427 -11.175   6.137  0.00  0.00     0.117 A 
ATOM     37  C24 NON d   1      28.317 -12.403   6.758  0.00  0.00     0.020 A 
ATOM     38  C25 NON d   1      28.154 -13.524   5.953  0.00  0.00     0.015 A 
ATOM     39  C27 NON d   1      27.951 -14.498   3.704  0.00  0.00     0.043 A 
ENDBRANCH  28  30
ENDBRANCH   1  26
TORSDOF 12
ENDMDL
MODEL 5
REMARK VINA RESULT:   -32.373      1.513      7.146
REMARK INTER + INTRA:         -37.475
REMARK INTER:                 -35.953
REMARK INTRA:                  -1.523
REMARK CONF_INDEPENDENT:        3.580
REMARK UNBOUND:                -1.523
REMARK  12 active torsions:
REMARK  status: ('A' for Active; 'I' for Inactive)
REMARK    1  A    between atoms: C1_2  and  N1_3 
REMARK    2  A    between atoms: N1_3  and  O2_4 
REMARK    3  A    between atoms: N1_3  and  C2_5 
REMARK    4  A    between atoms: C2_5  and  C3_6 
REMARK    5  A    between atoms: C3_6  and  C4_7 
REMARK    6  A    between atoms: C4_7  and  C5_8 
REMARK    7  A    between atoms: C5_8  and  C6_9 
REMARK    8  A    between atoms: C6_9  and  C7_10 
REMARK    9  A    between atoms: C7_10  and  C8_11 
REMARK   10  A    between atoms: C7_10  and  C18_24 
REMARK       I    between atoms: C8_11  and  N2_13 
REMARK   11  A    between atoms: N2_13  and  C9_14 
REMARK       I    between atoms: C18_24  and  N4_26 
REMARK   12  A    between atoms: N4_26  and  C19_27 
ROOT
ATOM      1  C7  NON d   1      25.703 -15.942  -0.868  0.00  0.00     0.170 C 
ENDROOT
BRANCH   1   2
ATOM      2  C6  NON d   1      25.027 -17.225  -1.541  0.00  0.00     0.024 C 
BRANCH   2   3
ATOM      3  C5  NON d   1      24.593 -18.318  -0.481  0.00  0.00     0.001 C 
BRANCH   3   4
ATOM      4  C4  NON d   1      23.208 -18.144   0.197  0.00  0.00     0.001 C 
BRANCH   4   5
ATOM      5  C3  NON d   1      22.007 -17.980  -0.742  0.00  0.00     0.017 C 
BRANCH   5   6
ATOM      6  C2  NON d   1      21.333 -19.275  -1.185  0.00  0.00     0.129 C 
BRANCH   6   7
ATOM      7  N1  NON d   1      19.902 -19.325  -0.953  0.00  0.00    -0.140 NA
BRANCH   7   8
ATOM      8  C1  NON d   1      19.404 -20.146   0.045  0.00  0.00     0.349 C 
ATOM      9  O1  NON d   1      18.814 -19.729   1.037  0.00  0.00    -0.287 OA
ENDBRANCH   7   8
BRANCH   7  10
ATOM     10  O2  NON d   1      19.347 -18.014  -0.872  0.00  0.00    -0.306 OA
ATOM     11  H2  NON d   1      18.746 -17.991  -1.647  0.00  0.00     0.237 HD
ENDBRANCH   7  10
ENDBRANCH   6   7
ENDBRANCH   5   6
ENDBRANCH   4   5
ENDBRANCH   3   4
ENDBRANCH   2   3
ENDBRANCH   1   2
BRANCH   1  12
ATOM     12  C8  NON d   1      26.810 -15.838   0.235  0.00  0.00     0.235 C 
ATOM     13  O3  NON d   1      27.215 -16.811   0.865  0.00  0.00    -0.272 OA
ATOM     14  N2  NON d   1      27.132 -14.514   0.508  0.00  0.00    -0.326 N 
ATOM     15  H14 NON d   1      27.213 -13.915  -0.318  0.00  0.00     0.169 HD
BRANCH  14  16
ATOM     16  C9  NON d   1      27.468 -13.935   1.745  0.00  0.00     0.035 A 
ATOM     17  C10 NON d   1      27.025 -12.636   2.000  0.00  0.00     0.032 A 
ATOM     18  C11 NON d   1      27.248 -12.039   3.249  0.00  0.00     0.035 A 
ATOM     19  C12 NON d   1      27.850 -12.725   4.292  0.00  0.00     0.066 A 
ATOM     20  N3  NON d   1      27.989 -12.112   5.481  0.00  0.00    -0.260 NA
ATOM     21  C16 NON d   1      28.254 -14.059   4.057  0.00  0.00    -0.005 A 
ATOM     22  C13 NON d   1      28.526 -12.822   6.497  0.00  0.00     0.117 A 
ATOM     23  C14 NON d   1      28.922 -14.139   6.388  0.00  0.00     0.020 A 
ATOM     24  C15 NON d   1      28.786 -14.763   5.149  0.00  0.00     0.015 A 
ATOM     25  C17 NON d   1      28.093 -14.642   2.775  0.00  0.00     0.043 A 
ENDBRANCH  14  16
ENDBRANCH   1  12
BRANCH   1  26
ATOM     26  C18 NON d   1      26.174 -15.000  -1.991  0.00  0.00     0.235 C 
ATOM     27  O4  NON d   1      26.104 -13.792  -1.693  0.00  0.00    -0.272 OA
ATOM     28  N4  NON d   1      26.545 -15.383  -3.257  0.00  0.00    -0.326 N 
ATOM     29  H21 NON d   1      26.436 -16.339  -3.557  0.00  0.00     0.169 HD
BRANCH  28  30
ATOM     30  C19 NON d   1      26.903 -14.498  -4.316  0.00  0.00     0.035 A 
ATOM     31  C20 NON d   1      27.936 -14.886  -5.172  0.00  0.00     0.032 A 
ATOM     32  C21 NON d   1      28.326 -14.063  -6.241  0.00  0.00     0.035 A 
ATOM     33  C22 NON d   1      27.724 -12.836  -6.480  0.00  0.00     0.066 A 
ATOM     34  N5  NON d   1      28.140 -12.074  -7.509  0.00  0.00    -0.260 NA
ATOM     35  C26 NON d   1      26.691 -12.432  -5.614  0.00  0.00    -0.005 A 
ATOM     36  C23 NON d   1      27.537 -10.878  -7.700  0.00  0.00     0.117 A 
ATOM     37  C24 NON d   1      26.515 -10.395  -6.907  0.00  0.00     0.020 A 
ATOM     38  C25 NON d   1      26.086 -11.187  -5.849  0.00  0.00     0.015 A 
ATOM     39  C27 NON d   1      26.291 -13.263  -4.547  0.00  0.00     0.043 A 
ENDBRANCH  28  30
ENDBRANCH   1  26
TORSDOF 12
ENDMDL
MODEL 6
REMARK VINA RESULT:   -32.161      3.039      8.055
REMARK INTER + INTRA:         -37.137
REMARK INTER:                 -35.740
REMARK INTRA:                  -1.396
REMARK CONF_INDEPENDENT:        3.580
REMARK UNBOUND:                -1.396
REMARK  12 active torsions:
REMARK  status: ('A' for Active; 'I' for Inactive)
REMARK    1  A    between atoms: C1_2  and  N1_3 
REMARK    2  A    between atoms: N1_3  and  O2_4 
REMARK    3  A    between atoms: N1_3  and  C2_5 
REMARK    4  A    between atoms: C2_5  and  C3_6 
REMARK    5  A    between atoms: C3_6  and  C4_7 
REMARK    6  A    between atoms: C4_7  and  C5_8 
REMARK    7  A    between atoms: C5_8  and  C6_9 
REMARK    8  A    between atoms: C6_9  and  C7_10 
REMARK    9  A    between atoms: C7_10  and  C8_11 
REMARK   10  A    between atoms: C7_10  and  C18_24 
REMARK       I    between atoms: C8_11  and  N2_13 
REMARK   11  A    between atoms: N2_13  and  C9_14 
REMARK       I    between atoms: C18_24  and  N4_26 
REMARK   12  A    between atoms: N4_26  and  C19_27 
ROOT
ATOM      1  C7  NON d   1      26.480 -15.400  -1.437  0.00  0.00     0.170 C 
ENDROOT
BRANCH   1   2
ATOM      2  C6  NON d   1      25.839 -16.782  -0.952  0.00  0.00     0.024 C 
BRANCH   2   3
ATOM      3  C5  NON d   1      24.298 -16.657  -0.610  0.00  0.00     0.001 C 
BRANCH   3   4
ATOM      4  C4  NON d   1      23.339 -17.697  -1.247  0.00  0.00     0.001 C 
BRANCH   4   5
ATOM      5  C3  NON d   1      22.042 -17.983  -0.482  0.00  0.00     0.017 C 
BRANCH   5   6
ATOM      6  C2  NON d   1      21.349 -19.299  -0.823  0.00  0.00     0.129 C 
BRANCH   6   7
ATOM      7  N1  NON d   1      19.905 -19.219  -0.919  0.00  0.00    -0.140 NA
BRANCH   7   8
ATOM      8  C1  NON d   1      19.125 -20.020  -0.100  0.00  0.00     0.349 C 
ATOM      9  O1  NON d   1      18.226 -20.745  -0.516  0.00  0.00    -0.287 OA
ENDBRANCH   7   8
BRANCH   7  10
ATOM     10  O2  NON d   1      19.461 -17.864  -0.895  0.00  0.00    -0.306 OA
ATOM     11  H2  NON d   1      19.951 -17.468  -1.647  0.00  0.00     0.237 HD
ENDBRANCH   7  10
ENDBRANCH   6   7
ENDBRANCH   5   6
ENDBRANCH   4   5
ENDBRANCH   3   4
ENDBRANCH   2   3
ENDBRANCH   1   2
BRANCH   1  12
ATOM     12  C8  NON d   1      27.376 -14.370  -0.669  0.00  0.00     0.235 C 
ATOM     13  O3  NON d   1      28.569 -14.212  -0.915  0.00  0.00    -0.272 OA
ATOM     14  N2  NON d   1      26.697 -13.807   0.403  0.00  0.00    -0.326 N 
ATOM     15  H14 NON d   1      25.725 -13.552   0.208  0.00  0.00     0.169 HD
BRANCH  14  16
ATOM     16  C9  NON d   1      27.204 -13.445   1.664  0.00  0.00     0.035 A 
ATOM     17  C10 NON d   1      26.997 -12.135   2.101  0.00  0.00     0.032 A 
ATOM     18  C11 NON d   1      27.397 -11.739   3.385  0.00  0.00     0.035 A 
ATOM     19  C12 NON d   1      27.948 -12.634   4.288  0.00  0.00     0.066 A 
ATOM     20  N3  NON d   1      28.264 -12.203   5.522  0.00  0.00    -0.260 NA
ATOM     21  C16 NON d   1      28.112 -13.975   3.872  0.00  0.00    -0.005 A 
ATOM     22  C13 NON d   1      28.745 -13.107   6.402  0.00  0.00     0.117 A 
ATOM     23  C14 NON d   1      28.914 -14.446   6.112  0.00  0.00     0.020 A 
ATOM     24  C15 NON d   1      28.595 -14.882   4.828  0.00  0.00     0.015 A 
ATOM     25  C17 NON d   1      27.774 -14.362   2.551  0.00  0.00     0.043 A 
ENDBRANCH  14  16
ENDBRANCH   1  12
BRANCH   1  26
ATOM     26  C18 NON d   1      27.216 -15.650  -2.767  0.00  0.00     0.235 C 
ATOM     27  O4  NON d   1      26.455 -15.756  -3.747  0.00  0.00    -0.272 OA
ATOM     28  N4  NON d   1      28.568 -15.853  -2.910  0.00  0.00    -0.326 N 
ATOM     29  H21 NON d   1      29.162 -15.942  -2.101  0.00  0.00     0.169 HD
BRANCH  28  30
ATOM     30  C19 NON d   1      29.230 -16.164  -4.133  0.00  0.00     0.035 A 
ATOM     31  C20 NON d   1      29.124 -15.252  -5.185  0.00  0.00     0.032 A 
ATOM     32  C21 NON d   1      29.764 -15.495  -6.410  0.00  0.00     0.035 A 
ATOM     33  C22 NON d   1      30.507 -16.646  -6.635  0.00  0.00     0.066 A 
ATOM     34  N5  NON d   1      31.092 -16.844  -7.831  0.00  0.00    -0.260 NA
ATOM     35  C26 NON d   1      30.608 -17.577  -5.585  0.00  0.00    -0.005 A 
ATOM     36  C23 NON d   1      31.795 -17.985  -8.015  0.00  0.00     0.117 A 
ATOM     37  C24 NON d   1      31.954 -18.956  -7.046  0.00  0.00     0.020 A 
ATOM     38  C25 NON d   1      31.351 -18.746  -5.812  0.00  0.00     0.015 A 
ATOM     39  C27 NON d   1      29.974 -17.328  -4.349  0.00  0.00     0.043 A 
ENDBRANCH  28  30
ENDBRANCH   1  26
TORSDOF 12
ENDMDL
MODEL 7
REMARK VINA RESULT:   -32.137      2.709      3.909
REMARK INTER + INTRA:         -36.979
REMARK INTER:                 -35.717
REMARK INTRA:                  -1.262
REMARK CONF_INDEPENDENT:        3.580
REMARK UNBOUND:                -1.262
REMARK  12 active torsions:
REMARK  status: ('A' for Active; 'I' for Inactive)
REMARK    1  A    between atoms: C1_2  and  N1_3 
REMARK    2  A    between atoms: N1_3  and  O2_4 
REMARK    3  A    between atoms: N1_3  and  C2_5 
REMARK    4  A    between atoms: C2_5  and  C3_6 
REMARK    5  A    between atoms: C3_6  and  C4_7 
REMARK    6  A    between atoms: C4_7  and  C5_8 
REMARK    7  A    between atoms: C5_8  and  C6_9 
REMARK    8  A    between atoms: C6_9  and  C7_10 
REMARK    9  A    between atoms: C7_10  and  C8_11 
REMARK   10  A    between atoms: C7_10  and  C18_24 
REMARK       I    between atoms: C8_11  and  N2_13 
REMARK   11  A    between atoms: N2_13  and  C9_14 
REMARK       I    between atoms: C18_24  and  N4_26 
REMARK   12  A    between atoms: N4_26  and  C19_27 
ROOT
ATOM      1  C7  NON d   1      25.850 -15.899  -2.200  0.00  0.00     0.170 C 
ENDROOT
BRANCH   1   2
ATOM      2  C6  NON d   1      24.453 -16.493  -1.698  0.00  0.00     0.024 C 
BRANCH   2   3
ATOM      3  C5  NON d   1      24.567 -17.234  -0.303  0.00  0.00     0.001 C 
BRANCH   3   4
ATOM      4  C4  NON d   1      23.552 -18.371  -0.014  0.00  0.00     0.001 C 
BRANCH   4   5
ATOM      5  C3  NON d   1      22.101 -18.109  -0.432  0.00  0.00     0.017 C 
BRANCH   5   6
ATOM      6  C2  NON d   1      21.330 -19.323  -0.942  0.00  0.00     0.129 C 
BRANCH   6   7
ATOM      7  N1  NON d   1      19.889 -19.169  -0.949  0.00  0.00    -0.140 NA
BRANCH   7   8
ATOM      8  C1  NON d   1      19.120 -19.934  -0.087  0.00  0.00     0.349 C 
ATOM      9  O1  NON d   1      18.163 -20.611  -0.448  0.00  0.00    -0.287 OA
ENDBRANCH   7   8
BRANCH   7  10
ATOM     10  O2  NON d   1      19.517 -17.794  -0.895  0.00  0.00    -0.306 OA
ATOM     11  H2  NON d   1      19.933 -17.430  -1.705  0.00  0.00     0.237 HD
ENDBRANCH   7  10
ENDBRANCH   6   7
ENDBRANCH   5   6
ENDBRANCH   4   5
ENDBRANCH   3   4
ENDBRANCH   2   3
ENDBRANCH   1   2
BRANCH   1  12
ATOM     12  C8  NON d   1      26.250 -15.264  -3.575  0.00  0.00     0.235 C 
ATOM     13  O3  NON d   1      25.480 -15.207  -4.529  0.00  0.00    -0.272 OA
ATOM     14  N2  NON d   1      27.601 -14.945  -3.613  0.00  0.00    -0.326 N 
ATOM     15  H14 NON d   1      27.963 -14.515  -2.758  0.00  0.00     0.169 HD
BRANCH  14  16
ATOM     16  C9  NON d   1      28.488 -15.032  -4.701  0.00  0.00     0.035 A 
ATOM     17  C10 NON d   1      28.843 -13.848  -5.351  0.00  0.00     0.032 A 
ATOM     18  C11 NON d   1      29.793 -13.858  -6.383  0.00  0.00     0.035 A 
ATOM     19  C12 NON d   1      30.460 -15.015  -6.753  0.00  0.00     0.066 A 
ATOM     20  N3  NON d   1      31.396 -14.948  -7.716  0.00  0.00    -0.260 NA
ATOM     21  C16 NON d   1      30.143 -16.208  -6.063  0.00  0.00    -0.005 A 
ATOM     22  C13 NON d   1      32.072 -16.077  -8.018  0.00  0.00     0.117 A 
ATOM     23  C14 NON d   1      31.868 -17.286  -7.385  0.00  0.00     0.020 A 
ATOM     24  C15 NON d   1      30.888 -17.351  -6.397  0.00  0.00     0.015 A 
ATOM     25  C17 NON d   1      29.134 -16.215  -5.068  0.00  0.00     0.043 A 
ENDBRANCH  14  16
ENDBRANCH   1  12
BRANCH   1  26
ATOM     26  C18 NON d   1      26.357 -14.901  -1.142  0.00  0.00     0.235 C 
ATOM     27  O4  NON d   1      26.456 -13.733  -1.564  0.00  0.00    -0.272 OA
ATOM     28  N4  NON d   1      26.779 -15.221   0.126  0.00  0.00    -0.326 N 
ATOM     29  H21 NON d   1      26.866 -16.183   0.411  0.00  0.00     0.169 HD
BRANCH  28  30
ATOM     30  C19 NON d   1      27.322 -14.302   1.071  0.00  0.00     0.035 A 
ATOM     31  C20 NON d   1      27.024 -12.947   0.913  0.00  0.00     0.032 A 
ATOM     32  C21 NON d   1      27.518 -11.995   1.819  0.00  0.00     0.035 A 
ATOM     33  C22 NON d   1      28.331 -12.350   2.886  0.00  0.00     0.066 A 
ATOM     34  N5  NON d   1      28.794 -11.401   3.722  0.00  0.00    -0.260 NA
ATOM     35  C26 NON d   1      28.647 -13.712   3.045  0.00  0.00    -0.005 A 
ATOM     36  C23 NON d   1      29.595 -11.787   4.742  0.00  0.00     0.117 A 
ATOM     37  C24 NON d   1      29.959 -13.097   4.982  0.00  0.00     0.020 A 
ATOM     38  C25 NON d   1      29.476 -14.073   4.120  0.00  0.00     0.015 A 
ATOM     39  C27 NON d   1      28.141 -14.671   2.143  0.00  0.00     0.043 A 
ENDBRANCH  28  30
ENDBRANCH   1  26
TORSDOF 12
ENDMDL
MODEL 8
REMARK VINA RESULT:   -30.884      2.377      6.609
REMARK INTER + INTRA:         -37.126
REMARK INTER:                 -34.464
REMARK INTRA:                  -2.662
REMARK CONF_INDEPENDENT:        3.580
REMARK UNBOUND:                -2.662
REMARK  12 active torsions:
REMARK  status: ('A' for Active; 'I' for Inactive)
REMARK    1  A    between atoms: C1_2  and  N1_3 
REMARK    2  A    between atoms: N1_3  and  O2_4 
REMARK    3  A    between atoms: N1_3  and  C2_5 
REMARK    4  A    between atoms: C2_5  and  C3_6 
REMARK    5  A    between atoms: C3_6  and  C4_7 
REMARK    6  A    between atoms: C4_7  and  C5_8 
REMARK    7  A    between atoms: C5_8  and  C6_9 
REMARK    8  A    between atoms: C6_9  and  C7_10 
REMARK    9  A    between atoms: C7_10  and  C8_11 
REMARK   10  A    between atoms: C7_10  and  C18_24 
REMARK       I    between atoms: C8_11  and  N2_13 
REMARK   11  A    between atoms: N2_13  and  C9_14 
REMARK       I    between atoms: C18_24  and  N4_26 
REMARK   12  A    between atoms: N4_26  and  C19_27 
ROOT
ATOM      1  C7  NON d   1      27.047 -16.874  -0.589  0.00  0.00     0.170 C 
ENDROOT
BRANCH   1   2
ATOM      2  C6  NON d   1      28.562 -17.188  -0.993  0.00  0.00     0.024 C 
BRANCH   2   3
ATOM      3  C5  NON d   1      28.970 -16.556  -2.386  0.00  0.00     0.001 C 
BRANCH   3   4
ATOM      4  C4  NON d   1      28.356 -15.179  -2.752  0.00  0.00     0.001 C 
BRANCH   4   5
ATOM      5  C3  NON d   1      27.674 -15.081  -4.122  0.00  0.00     0.017 C 
BRANCH   5   6
ATOM      6  C2  NON d   1      26.159 -15.264  -4.121  0.00  0.00     0.129 C 
BRANCH   6   7
ATOM      7  N1  NON d   1      25.408 -14.112  -3.662  0.00  0.00    -0.140 NA
BRANCH   7   8
ATOM      8  C1  NON d   1      26.005 -12.862  -3.679  0.00  0.00     0.349 C 
ATOM      9  O1  NON d   1      25.693 -11.970  -4.462  0.00  0.00    -0.287 OA
ENDBRANCH   7   8
BRANCH   7  10
ATOM     10  O2  NON d   1      24.109 -14.076  -4.249  0.00  0.00    -0.306 OA
ATOM     11  H2  NON d   1      24.247 -13.500  -5.031  0.00  0.00     0.237 HD
ENDBRANCH   7  10
ENDBRANCH   6   7
ENDBRANCH   5   6
ENDBRANCH   4   5
ENDBRANCH   3   4
ENDBRANCH   2   3
ENDBRANCH   1   2
BRANCH   1  12
ATOM     12  C8  NON d   1      25.909 -17.829  -0.093  0.00  0.00     0.235 C 
ATOM     13  O3  NON d   1      26.017 -19.052  -0.099  0.00  0.00    -0.272 OA
ATOM     14  N2  NON d   1      24.742 -17.128   0.182  0.00  0.00    -0.326 N 
ATOM     15  H14 NON d   1      24.882 -16.243   0.677  0.00  0.00     0.169 HD
BRANCH  14  16
ATOM     16  C9  NON d   1      23.411 -17.532  -0.028  0.00  0.00     0.035 A 
ATOM     17  C10 NON d   1      22.647 -16.813  -0.949  0.00  0.00     0.032 A 
ATOM     18  C11 NON d   1      21.345 -17.223  -1.270  0.00  0.00     0.035 A 
ATOM     19  C12 NON d   1      20.791 -18.379  -0.745  0.00  0.00     0.066 A 
ATOM     20  N3  NON d   1      19.556 -18.743  -1.132  0.00  0.00    -0.260 NA
ATOM     21  C16 NON d   1      21.578 -19.141   0.149  0.00  0.00    -0.005 A 
ATOM     22  C13 NON d   1      19.061 -19.904  -0.651  0.00  0.00     0.117 A 
ATOM     23  C14 NON d   1      19.756 -20.741   0.199  0.00  0.00     0.020 A 
ATOM     24  C15 NON d   1      21.030 -20.350   0.605  0.00  0.00     0.015 A 
ATOM     25  C17 NON d   1      22.868 -18.692   0.529  0.00  0.00     0.043 A 
ENDBRANCH  14  16
ENDBRANCH   1  12
BRANCH   1  26
ATOM     26  C18 NON d   1      27.047 -15.706   0.414  0.00  0.00     0.235 C 
ATOM     27  O4  NON d   1      26.252 -14.793   0.118  0.00  0.00    -0.272 OA
ATOM     28  N4  NON d   1      27.893 -15.571   1.489  0.00  0.00    -0.326 N 
ATOM     29  H21 NON d   1      28.652 -16.218   1.629  0.00  0.00     0.169 HD
BRANCH  28  30
ATOM     30  C19 NON d   1      27.940 -14.447   2.365  0.00  0.00     0.035 A 
ATOM     31  C20 NON d   1      27.831 -13.174   1.803  0.00  0.00     0.032 A 
ATOM     32  C21 NON d   1      27.858 -12.029   2.616  0.00  0.00     0.035 A 
ATOM     33  C22 NON d   1      28.011 -12.109   3.993  0.00  0.00     0.066 A 
ATOM     34  N5  NON d   1      28.045 -10.983   4.731  0.00  0.00    -0.260 NA
ATOM     35  C26 NON d   1      28.135 -13.388   4.566  0.00  0.00    -0.005 A 
ATOM     36  C23 NON d   1      28.210 -11.104   6.068  0.00  0.00     0.117 A 
ATOM     37  C24 NON d   1      28.339 -12.313   6.722  0.00  0.00     0.020 A 
ATOM     38  C25 NON d   1      28.299 -13.472   5.957  0.00  0.00     0.015 A 
ATOM     39  C27 NON d   1      28.097 -14.540   3.751  0.00  0.00     0.043 A 
ENDBRANCH  28  30
ENDBRANCH   1  26
TORSDOF 12
ENDMDL
