MODEL 1
REMARK VINA RESULT:   -29.587      0.000      0.000
REMARK INTER + INTRA:         -33.259
REMARK INTER:                 -31.377
REMARK INTRA:                  -1.882
REMARK CONF_INDEPENDENT:        1.790
REMARK UNBOUND:                -1.882
REMARK  6 active torsions:
REMARK  status: ('A' for Active; 'I' for Inactive)
REMARK    1  A    between atoms: C1_2  and  C2_3 
REMARK    2  A    between atoms: N2_4  and  C3_5 
REMARK    3  A    between atoms: C6_8  and  C7_9 
REMARK       I    between atoms: C7_9  and  N3_11 
REMARK    4  A    between atoms: N3_11  and  C8_12 
REMARK    5  A    between atoms: C10_14  and  C11_15 
REMARK    6  A    between atoms: C17_22  and  N4_23 
ROOT
ATOM      1  C7  NON d   1      25.298 -17.432  -0.196  0.00  0.00     0.256 C 
ATOM      2  O1  NON d   1      26.130 -18.238   0.220  0.00  0.00    -0.267 OA
ATOM      3  N3  NON d   1      25.536 -16.096  -0.458  0.00  0.00    -0.321 N 
ATOM      4  H7  NON d   1      24.837 -15.584  -0.977  0.00  0.00     0.169 HD
ENDROOT
BRANCH   3   5
ATOM      5  C8  NON d   1      26.725 -15.364  -0.144  0.00  0.00     0.057 A 
ATOM      6  C9  NON d   1      26.537 -14.044   0.332  0.00  0.00     0.044 A 
ATOM      7  C10 NON d   1      27.616 -13.202   0.682  0.00  0.00    -0.017 A 
ATOM      8  C15 NON d   1      28.902 -13.743   0.583  0.00  0.00     0.014 A 
ATOM      9  C16 NON d   1      29.105 -15.055   0.156  0.00  0.00     0.026 A 
ATOM     10  C17 NON d   1      28.041 -15.868  -0.248  0.00  0.00     0.033 A 
BRANCH   7  11
ATOM     11  C11 NON d   1      27.388 -11.805   1.147  0.00  0.00     0.015 A 
ATOM     12  C12 NON d   1      27.288 -10.634   0.410  0.00  0.00     0.020 A 
ATOM     13  C13 NON d   1      27.065  -9.472   1.212  0.00  0.00     0.008 A 
ATOM     14  C14 NON d   1      27.002  -9.777   2.549  0.00  0.00     0.050 A 
ATOM     15  S1  NON d   1      27.212 -11.442   2.829  0.00  0.00    -0.101 SA
ENDBRANCH   7  11
BRANCH  10  16
ATOM     16  N4  NON d   1      28.342 -17.232  -0.455  0.00  0.00    -0.301 NA
ATOM     17  H14 NON d   1      28.302 -17.739   0.434  0.00  0.00     0.124 HD
ATOM     18  H15 NON d   1      27.719 -17.678  -1.117  0.00  0.00     0.124 HD
ENDBRANCH  10  16
ENDBRANCH   3   5
BRANCH   1  19
ATOM     19  C6  NON d   1      23.927 -17.968  -0.430  0.00  0.00     0.032 A 
ATOM     20  C5  NON d   1      23.573 -19.314  -0.333  0.00  0.00     0.019 A 
ATOM     21  C4  NON d   1      22.229 -19.694  -0.500  0.00  0.00     0.032 A 
ATOM     22  C3  NON d   1      21.221 -18.752  -0.762  0.00  0.00     0.056 A 
ATOM     23  C19 NON d   1      21.594 -17.413  -0.896  0.00  0.00     0.032 A 
ATOM     24  C18 NON d   1      22.926 -17.025  -0.717  0.00  0.00     0.019 A 
BRANCH  22  25
ATOM     25  N2  NON d   1      19.900 -19.219  -0.911  0.00  0.00    -0.260 NA
ATOM     26  C2  NON d   1      19.436 -20.096  -0.095  0.00  0.00     0.133 C 
BRANCH  26  27
ATOM     27  C1  NON d   1      18.042 -20.572  -0.333  0.00  0.00     0.099 C 
ATOM     28  N1  NON d   1      17.532 -21.574   0.283  0.00  0.00    -0.407 N 
ATOM     29  H1  NON d   1      16.573 -21.878   0.096  0.00  0.00     0.155 HD
ATOM     30  H2  NON d   1      18.040 -22.106   0.991  0.00  0.00     0.155 HD
ENDBRANCH  26  27
ENDBRANCH  22  25
ENDBRANCH   1  19
TORSDOF 6
ENDMDL
MODEL 2
REMARK VINA RESULT:   -29.484      3.440      4.435
REMARK INTER + INTRA:         -33.130
REMARK INTER:                 -31.274
REMARK INTRA:                  -1.857
REMARK CONF_INDEPENDENT:        1.790
REMARK UNBOUND:                -1.857
REMARK  6 active torsions:
REMARK  status: ('A' for Active; 'I' for Inactive)
REMARK    1  A    between atoms: C1_2  and  C2_3 
REMARK    2  A    between atoms: N2_4  and  C3_5 
REMARK    3  A    between atoms: C6_8  and  C7_9 
REMARK       I    between atoms: C7_9  and  N3_11 
REMARK    4  A    between atoms: N3_11  and  C8_12 
REMARK    5  A    between atoms: C10_14  and  C11_15 
REMARK    6  A    between atoms: C17_22  and  N4_23 
ROOT
ATOM      1  C7  NON d   1      25.210 -17.144  -0.724  0.00  0.00     0.256 C 
ATOM      2  O1  NON d   1      25.883 -17.416   0.269  0.00  0.00    -0.267 OA
ATOM      3  N3  NON d   1      25.652 -16.433  -1.824  0.00  0.00    -0.321 N 
ATOM      4  H7  NON d   1      25.078 -16.441  -2.655  0.00  0.00     0.169 HD
ENDROOT
BRANCH   3   5
ATOM      5  C8  NON d   1      26.900 -15.743  -1.947  0.00  0.00     0.057 A 
ATOM      6  C9  NON d   1      27.307 -15.421  -3.265  0.00  0.00     0.044 A 
ATOM      7  C10 NON d   1      28.514 -14.742  -3.543  0.00  0.00    -0.017 A 
ATOM      8  C15 NON d   1      29.289 -14.351  -2.446  0.00  0.00     0.014 A 
ATOM      9  C16 NON d   1      28.885 -14.621  -1.139  0.00  0.00     0.026 A 
ATOM     10  C17 NON d   1      27.720 -15.347  -0.867  0.00  0.00     0.033 A 
BRANCH   7  11
ATOM     11  C11 NON d   1      28.933 -14.448  -4.941  0.00  0.00     0.015 A 
ATOM     12  C12 NON d   1      30.179 -14.579  -5.537  0.00  0.00     0.020 A 
ATOM     13  C13 NON d   1      30.198 -14.196  -6.913  0.00  0.00     0.008 A 
ATOM     14  C14 NON d   1      28.964 -13.775  -7.344  0.00  0.00     0.050 A 
ATOM     15  S1  NON d   1      27.803 -13.841  -6.102  0.00  0.00    -0.101 SA
ENDBRANCH   7  11
BRANCH  10  16
ATOM     16  N4  NON d   1      27.304 -15.375   0.482  0.00  0.00    -0.301 NA
ATOM     17  H14 NON d   1      26.284 -15.297   0.537  0.00  0.00     0.124 HD
ATOM     18  H15 NON d   1      27.597 -16.215   0.968  0.00  0.00     0.124 HD
ENDBRANCH  10  16
ENDBRANCH   3   5
BRANCH   1  19
ATOM     19  C6  NON d   1      23.803 -17.636  -0.717  0.00  0.00     0.032 A 
ATOM     20  C5  NON d   1      22.678 -16.828  -0.879  0.00  0.00     0.019 A 
ATOM     21  C4  NON d   1      21.401 -17.414  -0.932  0.00  0.00     0.032 A 
ATOM     22  C3  NON d   1      21.219 -18.802  -0.827  0.00  0.00     0.056 A 
ATOM     23  C19 NON d   1      22.350 -19.598  -0.625  0.00  0.00     0.032 A 
ATOM     24  C18 NON d   1      23.624 -19.024  -0.586  0.00  0.00     0.019 A 
BRANCH  22  25
ATOM     25  N2  NON d   1      19.905 -19.306  -0.895  0.00  0.00    -0.260 NA
ATOM     26  C2  NON d   1      19.468 -20.081   0.031  0.00  0.00     0.133 C 
BRANCH  26  27
ATOM     27  C1  NON d   1      18.081 -20.607  -0.123  0.00  0.00     0.099 C 
ATOM     28  N1  NON d   1      17.640 -21.616   0.531  0.00  0.00    -0.407 N 
ATOM     29  H1  NON d   1      16.683 -21.955   0.401  0.00  0.00     0.155 HD
ATOM     30  H2  NON d   1      18.204 -22.121   1.217  0.00  0.00     0.155 HD
ENDBRANCH  26  27
ENDBRANCH  22  25
ENDBRANCH   1  19
TORSDOF 6
ENDMDL
MODEL 3
REMARK VINA RESULT:   -29.409      1.999      2.456
REMARK INTER + INTRA:         -32.695
REMARK INTER:                 -31.199
REMARK INTRA:                  -1.497
REMARK CONF_INDEPENDENT:        1.790
REMARK UNBOUND:                -1.497
REMARK  6 active torsions:
REMARK  status: ('A' for Active; 'I' for Inactive)
REMARK    1  A    between atoms: C1_2  and  C2_3 
REMARK    2  A    between atoms: N2_4  and  C3_5 
REMARK    3  A    between atoms: C6_8  and  C7_9 
REMARK       I    between atoms: C7_9  and  N3_11 
REMARK    4  A    between atoms: N3_11  and  C8_12 
REMARK    5  A    between atoms: C10_14  and  C11_15 
REMARK    6  A    between atoms: C17_22  and  N4_23 
ROOT
ATOM      1  C7  NON d   1      25.289 -17.194  -0.657  0.00  0.00     0.256 C 
ATOM      2  O1  NON d   1      26.110 -18.031  -1.031  0.00  0.00    -0.267 OA
ATOM      3  N3  NON d   1      25.585 -15.910  -0.237  0.00  0.00    -0.321 N 
ATOM      4  H7  NON d   1      24.822 -15.256  -0.143  0.00  0.00     0.169 HD
ENDROOT
BRANCH   3   5
ATOM      5  C8  NON d   1      26.889 -15.372   0.001  0.00  0.00     0.057 A 
ATOM      6  C9  NON d   1      27.184 -15.023   1.342  0.00  0.00     0.044 A 
ATOM      7  C10 NON d   1      28.429 -14.481   1.730  0.00  0.00    -0.017 A 
ATOM      8  C15 NON d   1      29.398 -14.337   0.731  0.00  0.00     0.014 A 
ATOM      9  C16 NON d   1      29.141 -14.714  -0.587  0.00  0.00     0.026 A 
ATOM     10  C17 NON d   1      27.888 -15.195  -0.982  0.00  0.00     0.033 A 
BRANCH   7  11
ATOM     11  C11 NON d   1      28.698 -14.092   3.141  0.00  0.00     0.015 A 
ATOM     12  C12 NON d   1      29.906 -13.822   3.770  0.00  0.00     0.020 A 
ATOM     13  C13 NON d   1      29.768 -13.477   5.149  0.00  0.00     0.008 A 
ATOM     14  C14 NON d   1      28.455 -13.492   5.552  0.00  0.00     0.050 A 
ATOM     15  S1  NON d   1      27.408 -13.919   4.281  0.00  0.00    -0.101 SA
ENDBRANCH   7  11
BRANCH  10  16
ATOM     16  N4  NON d   1      27.811 -15.739  -2.283  0.00  0.00    -0.301 NA
ATOM     17  H14 NON d   1      27.283 -16.617  -2.266  0.00  0.00     0.124 HD
ATOM     18  H15 NON d   1      27.380 -15.109  -2.949  0.00  0.00     0.124 HD
ENDBRANCH  10  16
ENDBRANCH   3   5
BRANCH   1  19
ATOM     19  C6  NON d   1      23.862 -17.625  -0.670  0.00  0.00     0.032 A 
ATOM     20  C5  NON d   1      22.777 -16.774  -0.884  0.00  0.00     0.019 A 
ATOM     21  C4  NON d   1      21.477 -17.307  -0.951  0.00  0.00     0.032 A 
ATOM     22  C3  NON d   1      21.233 -18.682  -0.809  0.00  0.00     0.056 A 
ATOM     23  C19 NON d   1      22.323 -19.519  -0.556  0.00  0.00     0.032 A 
ATOM     24  C18 NON d   1      23.620 -18.998  -0.502  0.00  0.00     0.019 A 
BRANCH  22  25
ATOM     25  N2  NON d   1      19.901 -19.131  -0.895  0.00  0.00    -0.260 NA
ATOM     26  C2  NON d   1      19.462 -19.997  -0.054  0.00  0.00     0.133 C 
BRANCH  26  27
ATOM     27  C1  NON d   1      18.052 -20.455  -0.226  0.00  0.00     0.099 C 
ATOM     28  N1  NON d   1      17.625 -21.579   0.217  0.00  0.00    -0.407 N 
ATOM     29  H1  NON d   1      16.652 -21.866   0.081  0.00  0.00     0.155 HD
ATOM     30  H2  NON d   1      18.217 -22.233   0.732  0.00  0.00     0.155 HD
ENDBRANCH  26  27
ENDBRANCH  22  25
ENDBRANCH   1  19
TORSDOF 6
ENDMDL
MODEL 4
REMARK VINA RESULT:   -29.401      0.970      1.537
REMARK INTER + INTRA:         -33.093
REMARK INTER:                 -31.191
REMARK INTRA:                  -1.903
REMARK CONF_INDEPENDENT:        1.790
REMARK UNBOUND:                -1.903
REMARK  6 active torsions:
REMARK  status: ('A' for Active; 'I' for Inactive)
REMARK    1  A    between atoms: C1_2  and  C2_3 
REMARK    2  A    between atoms: N2_4  and  C3_5 
REMARK    3  A    between atoms: C6_8  and  C7_9 
REMARK       I    between atoms: C7_9  and  N3_11 
REMARK    4  A    between atoms: N3_11  and  C8_12 
REMARK    5  A    between atoms: C10_14  and  C11_15 
REMARK    6  A    between atoms: C17_22  and  N4_23 
ROOT
ATOM      1  C7  NON d   1      25.204 -17.170  -0.521  0.00  0.00     0.256 C 
ATOM      2  O1  NON d   1      26.074 -18.016  -0.725  0.00  0.00    -0.267 OA
ATOM      3  N3  NON d   1      25.431 -15.833  -0.257  0.00  0.00    -0.321 N 
ATOM      4  H7  NON d   1      24.644 -15.202  -0.301  0.00  0.00     0.169 HD
ENDROOT
BRANCH   3   5
ATOM      5  C8  NON d   1      26.699 -15.217  -0.006  0.00  0.00     0.057 A 
ATOM      6  C9  NON d   1      26.715 -14.204   0.984  0.00  0.00     0.044 A 
ATOM      7  C10 NON d   1      27.891 -13.508   1.339  0.00  0.00    -0.017 A 
ATOM      8  C15 NON d   1      29.074 -13.890   0.698  0.00  0.00     0.014 A 
ATOM      9  C16 NON d   1      29.086 -14.914  -0.250  0.00  0.00     0.026 A 
ATOM     10  C17 NON d   1      27.911 -15.562  -0.645  0.00  0.00     0.033 A 
BRANCH   7  11
ATOM     11  C11 NON d   1      27.870 -12.423   2.359  0.00  0.00     0.015 A 
ATOM     12  C12 NON d   1      28.708 -12.216   3.446  0.00  0.00     0.020 A 
ATOM     13  C13 NON d   1      28.377 -11.055   4.210  0.00  0.00     0.008 A 
ATOM     14  C14 NON d   1      27.288 -10.396   3.694  0.00  0.00     0.050 A 
ATOM     15  S1  NON d   1      26.676 -11.173   2.309  0.00  0.00    -0.101 SA
ENDBRANCH   7  11
BRANCH  10  16
ATOM     16  N4  NON d   1      28.073 -16.714  -1.445  0.00  0.00    -0.301 NA
ATOM     17  H14 NON d   1      28.196 -17.540  -0.851  0.00  0.00     0.124 HD
ATOM     18  H15 NON d   1      27.293 -16.873  -2.072  0.00  0.00     0.124 HD
ENDBRANCH  10  16
ENDBRANCH   3   5
BRANCH   1  19
ATOM     19  C6  NON d   1      23.795 -17.655  -0.570  0.00  0.00     0.032 A 
ATOM     20  C5  NON d   1      22.686 -16.847  -0.824  0.00  0.00     0.019 A 
ATOM     21  C4  NON d   1      21.410 -17.429  -0.923  0.00  0.00     0.032 A 
ATOM     22  C3  NON d   1      21.213 -18.811  -0.775  0.00  0.00     0.056 A 
ATOM     23  C19 NON d   1      22.326 -19.604  -0.483  0.00  0.00     0.032 A 
ATOM     24  C18 NON d   1      23.600 -19.035  -0.397  0.00  0.00     0.019 A 
BRANCH  22  25
ATOM     25  N2  NON d   1      19.901 -19.311  -0.895  0.00  0.00    -0.260 NA
ATOM     26  C2  NON d   1      19.442 -20.120  -0.010  0.00  0.00     0.133 C 
BRANCH  26  27
ATOM     27  C1  NON d   1      18.058 -20.638  -0.219  0.00  0.00     0.099 C 
ATOM     28  N1  NON d   1      17.584 -21.640   0.424  0.00  0.00    -0.407 N 
ATOM     29  H1  NON d   1      16.631 -21.973   0.257  0.00  0.00     0.155 HD
ATOM     30  H2  NON d   1      18.115 -22.144   1.136  0.00  0.00     0.155 HD
ENDBRANCH  26  27
ENDBRANCH  22  25
ENDBRANCH   1  19
TORSDOF 6
ENDMDL
MODEL 5
REMARK VINA RESULT:   -29.076      1.638      1.817
REMARK INTER + INTRA:         -32.755
REMARK INTER:                 -30.865
REMARK INTRA:                  -1.890
REMARK CONF_INDEPENDENT:        1.790
REMARK UNBOUND:                -1.890
REMARK  6 active torsions:
REMARK  status: ('A' for Active; 'I' for Inactive)
REMARK    1  A    between atoms: C1_2  and  C2_3 
REMARK    2  A    between atoms: N2_4  and  C3_5 
REMARK    3  A    between atoms: C6_8  and  C7_9 
REMARK       I    between atoms: C7_9  and  N3_11 
REMARK    4  A    between atoms: N3_11  and  C8_12 
REMARK    5  A    between atoms: C10_14  and  C11_15 
REMARK    6  A    between atoms: C17_22  and  N4_23 
ROOT
ATOM      1  C7  NON d   1      25.238 -17.313  -0.308  0.00  0.00     0.256 C 
ATOM      2  O1  NON d   1      25.912 -17.799   0.599  0.00  0.00    -0.267 OA
ATOM      3  N3  NON d   1      25.633 -16.280  -1.138  0.00  0.00    -0.321 N 
ATOM      4  H7  NON d   1      25.081 -16.100  -1.964  0.00  0.00     0.169 HD
ENDROOT
BRANCH   3   5
ATOM      5  C8  NON d   1      26.811 -15.479  -1.000  0.00  0.00     0.057 A 
ATOM      6  C9  NON d   1      26.652 -14.092  -1.235  0.00  0.00     0.044 A 
ATOM      7  C10 NON d   1      27.723 -13.176  -1.136  0.00  0.00    -0.017 A 
ATOM      8  C15 NON d   1      28.964 -13.691  -0.746  0.00  0.00     0.014 A 
ATOM      9  C16 NON d   1      29.131 -15.047  -0.469  0.00  0.00     0.026 A 
ATOM     10  C17 NON d   1      28.084 -15.963  -0.625  0.00  0.00     0.033 A 
BRANCH   7  11
ATOM     11  C11 NON d   1      27.532 -11.728  -1.423  0.00  0.00     0.015 A 
ATOM     12  C12 NON d   1      27.942 -10.621  -0.694  0.00  0.00     0.020 A 
ATOM     13  C13 NON d   1      27.575  -9.375  -1.290  0.00  0.00     0.008 A 
ATOM     14  C14 NON d   1      26.886  -9.554  -2.465  0.00  0.00     0.050 A 
ATOM     15  S1  NON d   1      26.687 -11.202  -2.838  0.00  0.00    -0.101 SA
ENDBRANCH   7  11
BRANCH  10  16
ATOM     16  N4  NON d   1      28.310 -17.260  -0.117  0.00  0.00    -0.301 NA
ATOM     17  H14 NON d   1      28.072 -17.293   0.879  0.00  0.00     0.124 HD
ATOM     18  H15 NON d   1      27.781 -17.974  -0.605  0.00  0.00     0.124 HD
ENDBRANCH  10  16
ENDBRANCH   3   5
BRANCH   1  19
ATOM     19  C6  NON d   1      23.885 -17.906  -0.509  0.00  0.00     0.032 A 
ATOM     20  C5  NON d   1      23.587 -19.263  -0.382  0.00  0.00     0.019 A 
ATOM     21  C4  NON d   1      22.256 -19.698  -0.519  0.00  0.00     0.032 A 
ATOM     22  C3  NON d   1      21.208 -18.802  -0.780  0.00  0.00     0.056 A 
ATOM     23  C19 NON d   1      21.525 -17.452  -0.944  0.00  0.00     0.032 A 
ATOM     24  C18 NON d   1      22.843 -17.009  -0.795  0.00  0.00     0.019 A 
BRANCH  22  25
ATOM     25  N2  NON d   1      19.904 -19.323  -0.898  0.00  0.00    -0.260 NA
ATOM     26  C2  NON d   1      19.493 -20.212  -0.066  0.00  0.00     0.133 C 
BRANCH  26  27
ATOM     27  C1  NON d   1      18.115 -20.745  -0.271  0.00  0.00     0.099 C 
ATOM     28  N1  NON d   1      17.603 -21.658   0.469  0.00  0.00    -0.407 N 
ATOM     29  H1  NON d   1      16.655 -22.005   0.301  0.00  0.00     0.155 HD
ATOM     30  H2  NON d   1      18.097 -22.072   1.261  0.00  0.00     0.155 HD
ENDBRANCH  26  27
ENDBRANCH  22  25
ENDBRANCH   1  19
TORSDOF 6
ENDMDL
MODEL 6
REMARK VINA RESULT:   -28.301      3.091      5.057
REMARK INTER + INTRA:         -31.556
REMARK INTER:                 -30.090
REMARK INTRA:                  -1.466
REMARK CONF_INDEPENDENT:        1.790
REMARK UNBOUND:                -1.466
REMARK  6 active torsions:
REMARK  status: ('A' for Active; 'I' for Inactive)
REMARK    1  A    between atoms: C1_2  and  C2_3 
REMARK    2  A    between atoms: N2_4  and  C3_5 
REMARK    3  A    between atoms: C6_8  and  C7_9 
REMARK       I    between atoms: C7_9  and  N3_11 
REMARK    4  A    between atoms: N3_11  and  C8_12 
REMARK    5  A    between atoms: C10_14  and  C11_15 
REMARK    6  A    between atoms: C17_22  and  N4_23 
ROOT
ATOM      1  C7  NON d   1      24.847 -16.426  -0.847  0.00  0.00     0.256 C 
ATOM      2  O1  NON d   1      24.915 -15.389  -1.505  0.00  0.00    -0.267 OA
ATOM      3  N3  NON d   1      25.884 -16.992  -0.129  0.00  0.00    -0.321 N 
ATOM      4  H7  NON d   1      25.660 -17.729   0.525  0.00  0.00     0.169 HD
ENDROOT
BRANCH   3   5
ATOM      5  C8  NON d   1      27.255 -16.584  -0.147  0.00  0.00     0.057 A 
ATOM      6  C9  NON d   1      28.178 -17.521  -0.671  0.00  0.00     0.044 A 
ATOM      7  C10 NON d   1      29.564 -17.259  -0.752  0.00  0.00    -0.017 A 
ATOM      8  C15 NON d   1      29.997 -15.998  -0.331  0.00  0.00     0.014 A 
ATOM      9  C16 NON d   1      29.099 -15.045   0.148  0.00  0.00     0.026 A 
ATOM     10  C17 NON d   1      27.734 -15.327   0.285  0.00  0.00     0.033 A 
BRANCH   7  11
ATOM     11  C11 NON d   1      30.515 -18.279  -1.276  0.00  0.00     0.015 A 
ATOM     12  C12 NON d   1      31.304 -19.188  -0.586  0.00  0.00     0.020 A 
ATOM     13  C13 NON d   1      32.098 -20.017  -1.436  0.00  0.00     0.008 A 
ATOM     14  C14 NON d   1      31.904 -19.723  -2.763  0.00  0.00     0.050 A 
ATOM     15  S1  NON d   1      30.781 -18.463  -2.975  0.00  0.00    -0.101 SA
ENDBRANCH   7  11
BRANCH  10  16
ATOM     16  N4  NON d   1      26.898 -14.228   0.577  0.00  0.00    -0.301 NA
ATOM     17  H14 NON d   1      27.415 -13.352   0.460  0.00  0.00     0.124 HD
ATOM     18  H15 NON d   1      26.067 -14.199  -0.004  0.00  0.00     0.124 HD
ENDBRANCH  10  16
ENDBRANCH   3   5
BRANCH   1  19
ATOM     19  C6  NON d   1      23.522 -17.110  -0.839  0.00  0.00     0.032 A 
ATOM     20  C5  NON d   1      22.305 -16.486  -1.112  0.00  0.00     0.019 A 
ATOM     21  C4  NON d   1      21.124 -17.250  -1.150  0.00  0.00     0.032 A 
ATOM     22  C3  NON d   1      21.132 -18.635  -0.922  0.00  0.00     0.056 A 
ATOM     23  C19 NON d   1      22.351 -19.242  -0.611  0.00  0.00     0.032 A 
ATOM     24  C18 NON d   1      23.531 -18.492  -0.585  0.00  0.00     0.019 A 
BRANCH  22  25
ATOM     25  N2  NON d   1      19.904 -19.325  -0.985  0.00  0.00    -0.260 NA
ATOM     26  C2  NON d   1      19.510 -20.022   0.019  0.00  0.00     0.133 C 
BRANCH  26  27
ATOM     27  C1  NON d   1      18.219 -20.754  -0.131  0.00  0.00     0.099 C 
ATOM     28  N1  NON d   1      17.823 -21.647   0.699  0.00  0.00    -0.407 N 
ATOM     29  H1  NON d   1      16.932 -22.134   0.568  0.00  0.00     0.155 HD
ATOM     30  H2  NON d   1      18.357 -21.908   1.529  0.00  0.00     0.155 HD
ENDBRANCH  26  27
ENDBRANCH  22  25
ENDBRANCH   1  19
TORSDOF 6
ENDMDL
MODEL 7
REMARK VINA RESULT:   -27.856      3.346      4.887
REMARK INTER + INTRA:         -31.028
REMARK INTER:                 -29.646
REMARK INTRA:                  -1.382
REMARK CONF_INDEPENDENT:        1.790
REMARK UNBOUND:                -1.382
REMARK  6 active torsions:
REMARK  status: ('A' for Active; 'I' for Inactive)
REMARK    1  A    between atoms: C1_2  and  C2_3 
REMARK    2  A    between atoms: N2_4  and  C3_5 
REMARK    3  A    between atoms: C6_8  and  C7_9 
REMARK       I    between atoms: C7_9  and  N3_11 
REMARK    4  A    between atoms: N3_11  and  C8_12 
REMARK    5  A    between atoms: C10_14  and  C11_15 
REMARK    6  A    between atoms: C17_22  and  N4_23 
ROOT
ATOM      1  C7  NON d   1      24.935 -16.555  -0.587  0.00  0.00     0.256 C 
ATOM      2  O1  NON d   1      24.986 -15.428  -0.095  0.00  0.00    -0.267 OA
ATOM      3  N3  NON d   1      26.010 -17.258  -1.096  0.00  0.00    -0.321 N 
ATOM      4  H7  NON d   1      25.883 -18.241  -1.291  0.00  0.00     0.169 HD
ENDROOT
BRANCH   3   5
ATOM      5  C8  NON d   1      27.335 -16.758  -1.301  0.00  0.00     0.057 A 
ATOM      6  C9  NON d   1      28.392 -17.609  -0.895  0.00  0.00     0.044 A 
ATOM      7  C10 NON d   1      29.752 -17.251  -1.034  0.00  0.00    -0.017 A 
ATOM      8  C15 NON d   1      30.026 -16.020  -1.640  0.00  0.00     0.014 A 
ATOM      9  C16 NON d   1      29.000 -15.187  -2.084  0.00  0.00     0.026 A 
ATOM     10  C17 NON d   1      27.653 -15.514  -1.892  0.00  0.00     0.033 A 
BRANCH   7  11
ATOM     11  C11 NON d   1      30.841 -18.152  -0.566  0.00  0.00     0.015 A 
ATOM     12  C12 NON d   1      31.051 -19.498  -0.832  0.00  0.00     0.020 A 
ATOM     13  C13 NON d   1      32.216 -20.030  -0.201  0.00  0.00     0.008 A 
ATOM     14  C14 NON d   1      32.876 -19.081   0.540  0.00  0.00     0.050 A 
ATOM     15  S1  NON d   1      32.095 -17.571   0.475  0.00  0.00    -0.101 SA
ENDBRANCH   7  11
BRANCH  10  16
ATOM     16  N4  NON d   1      26.712 -14.706  -2.566  0.00  0.00    -0.301 NA
ATOM     17  H14 NON d   1      26.446 -15.142  -3.453  0.00  0.00     0.124 HD
ATOM     18  H15 NON d   1      25.876 -14.533  -2.020  0.00  0.00     0.124 HD
ENDBRANCH  10  16
ENDBRANCH   3   5
BRANCH   1  19
ATOM     19  C6  NON d   1      23.588 -17.193  -0.624  0.00  0.00     0.032 A 
ATOM     20  C5  NON d   1      22.401 -16.527  -0.929  0.00  0.00     0.019 A 
ATOM     21  C4  NON d   1      21.197 -17.250  -1.009  0.00  0.00     0.032 A 
ATOM     22  C3  NON d   1      21.151 -18.636  -0.791  0.00  0.00     0.056 A 
ATOM     23  C19 NON d   1      22.340 -19.286  -0.448  0.00  0.00     0.032 A 
ATOM     24  C18 NON d   1      23.543 -18.576  -0.380  0.00  0.00     0.019 A 
BRANCH  22  25
ATOM     25  N2  NON d   1      19.904 -19.283  -0.897  0.00  0.00    -0.260 NA
ATOM     26  C2  NON d   1      19.540 -20.122   0.005  0.00  0.00     0.133 C 
BRANCH  26  27
ATOM     27  C1  NON d   1      18.223 -20.796  -0.189  0.00  0.00     0.099 C 
ATOM     28  N1  NON d   1      17.747 -21.648   0.642  0.00  0.00    -0.407 N 
ATOM     29  H1  NON d   1      16.841 -22.095   0.480  0.00  0.00     0.155 HD
ATOM     30  H2  NON d   1      18.229 -21.912   1.503  0.00  0.00     0.155 HD
ENDBRANCH  26  27
ENDBRANCH  22  25
ENDBRANCH   1  19
TORSDOF 6
ENDMDL
MODEL 8
REMARK VINA RESULT:   -27.851      3.296      4.889
REMARK INTER + INTRA:         -31.307
REMARK INTER:                 -29.641
REMARK INTRA:                  -1.666
REMARK CONF_INDEPENDENT:        1.790
REMARK UNBOUND:                -1.666
REMARK  6 active torsions:
REMARK  status: ('A' for Active; 'I' for Inactive)
REMARK    1  A    between atoms: C1_2  and  C2_3 
REMARK    2  A    between atoms: N2_4  and  C3_5 
REMARK    3  A    between atoms: C6_8  and  C7_9 
REMARK       I    between atoms: C7_9  and  N3_11 
REMARK    4  A    between atoms: N3_11  and  C8_12 
REMARK    5  A    between atoms: C10_14  and  C11_15 
REMARK    6  A    between atoms: C17_22  and  N4_23 
ROOT
ATOM      1  C7  NON d   1      24.974 -16.606  -0.591  0.00  0.00     0.256 C 
ATOM      2  O1  NON d   1      24.897 -15.500  -0.058  0.00  0.00    -0.267 OA
ATOM      3  N3  NON d   1      26.131 -17.185  -1.078  0.00  0.00    -0.321 N 
ATOM      4  H7  NON d   1      26.107 -18.167  -1.313  0.00  0.00     0.169 HD
ENDROOT
BRANCH   3   5
ATOM      5  C8  NON d   1      27.409 -16.554  -1.209  0.00  0.00     0.057 A 
ATOM      6  C9  NON d   1      28.532 -17.416  -1.210  0.00  0.00     0.044 A 
ATOM      7  C10 NON d   1      29.856 -16.939  -1.331  0.00  0.00    -0.017 A 
ATOM      8  C15 NON d   1      30.021 -15.559  -1.498  0.00  0.00     0.014 A 
ATOM      9  C16 NON d   1      28.925 -14.698  -1.541  0.00  0.00     0.026 A 
ATOM     10  C17 NON d   1      27.618 -15.165  -1.361  0.00  0.00     0.033 A 
BRANCH   7  11
ATOM     11  C11 NON d   1      31.020 -17.867  -1.294  0.00  0.00     0.015 A 
ATOM     12  C12 NON d   1      32.181 -17.799  -0.537  0.00  0.00     0.020 A 
ATOM     13  C13 NON d   1      33.082 -18.883  -0.773  0.00  0.00     0.008 A 
ATOM     14  C14 NON d   1      32.593 -19.759  -1.711  0.00  0.00     0.050 A 
ATOM     15  S1  NON d   1      31.071 -19.276  -2.297  0.00  0.00    -0.101 SA
ENDBRANCH   7  11
BRANCH  10  16
ATOM     16  N4  NON d   1      26.584 -14.243  -1.635  0.00  0.00    -0.301 NA
ATOM     17  H14 NON d   1      25.746 -14.740  -1.950  0.00  0.00     0.124 HD
ATOM     18  H15 NON d   1      26.346 -13.669  -0.835  0.00  0.00     0.124 HD
ENDBRANCH  10  16
ENDBRANCH   3   5
BRANCH   1  19
ATOM     19  C6  NON d   1      23.697 -17.367  -0.707  0.00  0.00     0.032 A 
ATOM     20  C5  NON d   1      23.546 -18.718  -0.392  0.00  0.00     0.019 A 
ATOM     21  C4  NON d   1      22.273 -19.312  -0.467  0.00  0.00     0.032 A 
ATOM     22  C3  NON d   1      21.138 -18.582  -0.851  0.00  0.00     0.056 A 
ATOM     23  C19 NON d   1      21.308 -17.241  -1.202  0.00  0.00     0.032 A 
ATOM     24  C18 NON d   1      22.568 -16.639  -1.117  0.00  0.00     0.019 A 
BRANCH  22  25
ATOM     25  N2  NON d   1      19.901 -19.255  -0.895  0.00  0.00    -0.260 NA
ATOM     26  C2  NON d   1      19.585 -20.075   0.042  0.00  0.00     0.133 C 
BRANCH  26  27
ATOM     27  C1  NON d   1      18.276 -20.779  -0.087  0.00  0.00     0.099 C 
ATOM     28  N1  NON d   1      17.819 -21.571   0.811  0.00  0.00    -0.407 N 
ATOM     29  H1  NON d   1      16.918 -22.042   0.692  0.00  0.00     0.155 HD
ATOM     30  H2  NON d   1      18.312 -21.763   1.684  0.00  0.00     0.155 HD
ENDBRANCH  26  27
ENDBRANCH  22  25
ENDBRANCH   1  19
TORSDOF 6
ENDMDL
