MODEL 1
REMARK VINA RESULT:   -11.427      0.000      0.000
REMARK INTER + INTRA:         -15.933
REMARK INTER:                 -14.709
REMARK INTRA:                  -1.224
REMARK CONF_INDEPENDENT:        3.281
REMARK UNBOUND:                -1.224
REMARK  11 active torsions:
REMARK  status: ('A' for Active; 'I' for Inactive)
REMARK    1  A    between atoms: C2_2  and  C3_3 
REMARK    2  A    between atoms: C3_3  and  C4_5 
REMARK    3  A    between atoms: C4_5  and  C5_6 
REMARK    4  A    between atoms: C5_6  and  C6_7 
REMARK    5  A    between atoms: C6_7  and  C7_8 
REMARK    6  A    between atoms: C7_8  and  C8_9 
REMARK    7  A    between atoms: C9_10  and  C8_9 
REMARK    8  A    between atoms: C16_21  and  C17_22 
REMARK    9  A    between atoms: C17_22  and  C18_23 
REMARK   10  A    between atoms: C22_29  and  C23_30 
REMARK   11  A    between atoms: C23_30  and  C24_31 
ROOT
ATOM      1  C9  NON d   1      25.244 -15.942  -1.965  0.00  0.00     0.155 C 
ATOM      2  N1  NON d   1      24.733 -14.696  -2.564  0.00  0.00    -0.248 NA
ATOM      3  C10 NON d   1      25.173 -14.137  -3.748  0.00  0.00     0.220 C 
ATOM      4  O2  NON d   1      24.328 -14.081  -4.653  0.00  0.00    -0.278 OA
ATOM      5  C11 NON d   1      26.545 -13.337  -3.910  0.00  0.00     0.169 C 
ATOM      6  C12 NON d   1      27.784 -13.924  -3.288  0.00  0.00     0.042 C 
ATOM      7  N2  NON d   1      26.506 -11.820  -3.856  0.00  0.00    -0.344 N 
ATOM      8  C13 NON d   1      25.943 -11.188  -5.053  0.00  0.00     0.153 C 
ATOM      9  C14 NON d   1      27.013 -10.909  -2.905  0.00  0.00     0.221 C 
ATOM     10  O3  NON d   1      27.162  -9.712  -3.190  0.00  0.00    -0.273 OA
ATOM     11  C15 NON d   1      27.288 -11.360  -1.437  0.00  0.00     0.122 C 
ATOM     12  C16 NON d   1      27.418 -10.928   0.109  0.00  0.00     0.072 C 
ATOM     13  N3  NON d   1      28.096 -11.962   0.952  0.00  0.00    -0.256 NA
ATOM     14  C21 NON d   1      28.598 -13.134   0.409  0.00  0.00     0.220 C 
ATOM     15  O4  NON d   1      29.750 -13.064  -0.036  0.00  0.00    -0.278 OA
ATOM     16  C22 NON d   1      27.895 -14.544   0.561  0.00  0.00     0.175 C 
ATOM     17  N5  NON d   1      26.623 -14.776  -0.177  0.00  0.00    -0.347 N 
ATOM     18  C32 NON d   1      26.554 -15.727  -1.184  0.00  0.00     0.236 C 
ATOM     19  O5  NON d   1      27.525 -16.405  -1.505  0.00  0.00    -0.272 OA
ATOM     20  H17 NON d   1      23.726 -14.799  -2.698  0.00  0.00     0.131 HD
ATOM     21  H37 NON d   1      28.936 -11.510   1.277  0.00  0.00     0.130 HD
ATOM     22  H47 NON d   1      25.781 -14.321   0.134  0.00  0.00     0.163 HD
ENDROOT
BRANCH  16  23
ATOM     23  C23 NON d   1      27.842 -14.989   2.048  0.00  0.00     0.075 C 
BRANCH  23  24
ATOM     24  C24 NON d   1      28.926 -14.453   2.979  0.00  0.00    -0.028 A 
ATOM     25  C25 NON d   1      30.288 -14.358   2.756  0.00  0.00     0.096 A 
ATOM     26  N4  NON d   1      30.917 -13.922   3.887  0.00  0.00    -0.365 N 
ATOM     27  C26 NON d   1      29.987 -13.596   4.835  0.00  0.00     0.042 A 
ATOM     28  H42 NON d   1      31.915 -13.806   3.990  0.00  0.00     0.165 HD
ATOM     29  C27 NON d   1      30.180 -13.057   6.112  0.00  0.00     0.030 A 
ATOM     30  C31 NON d   1      28.730 -13.876   4.290  0.00  0.00    -0.002 A 
ATOM     31  C28 NON d   1      29.052 -12.741   6.856  0.00  0.00     0.002 A 
ATOM     32  C29 NON d   1      27.780 -12.974   6.346  0.00  0.00     0.001 A 
ATOM     33  C30 NON d   1      27.601 -13.555   5.074  0.00  0.00     0.014 A 
ENDBRANCH  23  24
ENDBRANCH  16  23
BRANCH  12  34
ATOM     34  C17 NON d   1      27.554  -9.324   0.491  0.00  0.00     0.024 C 
BRANCH  34  35
ATOM     35  C18 NON d   1      26.511  -8.316   1.214  0.00  0.00    -0.021 C 
ATOM     36  C19 NON d   1      25.522  -9.049   2.122  0.00  0.00     0.009 C 
ATOM     37  C20 NON d   1      25.844  -7.235   0.344  0.00  0.00     0.009 C 
ENDBRANCH  34  35
ENDBRANCH  12  34
BRANCH   1  38
ATOM     38  C8  NON d   1      24.123 -16.808  -1.290  0.00  0.00     0.029 C 
BRANCH  38  39
ATOM     39  C7  NON d   1      24.382 -18.226  -0.749  0.00  0.00     0.002 C 
BRANCH  39  40
ATOM     40  C6  NON d   1      23.173 -19.157  -0.533  0.00  0.00     0.000 C 
BRANCH  40  41
ATOM     41  C5  NON d   1      21.881 -18.438  -0.149  0.00  0.00     0.007 C 
BRANCH  41  42
ATOM     42  C4  NON d   1      20.797 -19.308   0.474  0.00  0.00     0.078 C 
BRANCH  42  43
ATOM     43  C3  NON d   1      19.712 -19.813  -0.468  0.00  0.00     0.126 C 
ATOM     44  O1  NON d   1      19.799 -19.707  -1.688  0.00  0.00    -0.298 OA
BRANCH  43  45
ATOM     45  C2  NON d   1      18.572 -20.541   0.188  0.00  0.00     0.074 C 
ATOM     46  C1  NON d   1      18.550 -20.580   1.728  0.00  0.00     0.013 C 
ENDBRANCH  43  45
ENDBRANCH  42  43
ENDBRANCH  41  42
ENDBRANCH  40  41
ENDBRANCH  39  40
ENDBRANCH  38  39
ENDBRANCH   1  38
TORSDOF 11
ENDMDL
MODEL 2
REMARK VINA RESULT:   -11.059      1.800      2.371
REMARK INTER + INTRA:         -15.605
REMARK INTER:                 -14.340
REMARK INTRA:                  -1.265
REMARK CONF_INDEPENDENT:        3.281
REMARK UNBOUND:                -1.265
REMARK  11 active torsions:
REMARK  status: ('A' for Active; 'I' for Inactive)
REMARK    1  A    between atoms: C2_2  and  C3_3 
REMARK    2  A    between atoms: C3_3  and  C4_5 
REMARK    3  A    between atoms: C4_5  and  C5_6 
REMARK    4  A    between atoms: C5_6  and  C6_7 
REMARK    5  A    between atoms: C6_7  and  C7_8 
REMARK    6  A    between atoms: C7_8  and  C8_9 
REMARK    7  A    between atoms: C9_10  and  C8_9 
REMARK    8  A    between atoms: C16_21  and  C17_22 
REMARK    9  A    between atoms: C17_22  and  C18_23 
REMARK   10  A    between atoms: C22_29  and  C23_30 
REMARK   11  A    between atoms: C23_30  and  C24_31 
ROOT
ATOM      1  C9  NON d   1      26.160 -15.951  -2.476  0.00  0.00     0.155 C 
ATOM      2  N1  NON d   1      25.877 -15.208  -3.716  0.00  0.00    -0.248 NA
ATOM      3  C10 NON d   1      26.749 -15.057  -4.776  0.00  0.00     0.220 C 
ATOM      4  O2  NON d   1      26.381 -15.571  -5.842  0.00  0.00    -0.278 OA
ATOM      5  C11 NON d   1      27.996 -14.060  -4.780  0.00  0.00     0.169 C 
ATOM      6  C12 NON d   1      28.877 -14.024  -3.560  0.00  0.00     0.042 C 
ATOM      7  N2  NON d   1      27.833 -12.703  -5.443  0.00  0.00    -0.344 N 
ATOM      8  C13 NON d   1      27.806 -12.748  -6.908  0.00  0.00     0.153 C 
ATOM      9  C14 NON d   1      27.811 -11.400  -4.904  0.00  0.00     0.221 C 
ATOM     10  O3  NON d   1      27.986 -10.411  -5.630  0.00  0.00    -0.273 OA
ATOM     11  C15 NON d   1      27.449 -11.164  -3.405  0.00  0.00     0.122 C 
ATOM     12  C16 NON d   1      26.861 -10.152  -2.299  0.00  0.00     0.072 C 
ATOM     13  N3  NON d   1      27.173 -10.570  -0.896  0.00  0.00    -0.256 NA
ATOM     14  C21 NON d   1      27.942 -11.690  -0.621  0.00  0.00     0.220 C 
ATOM     15  O4  NON d   1      29.165 -11.506  -0.600  0.00  0.00    -0.278 OA
ATOM     16  C22 NON d   1      27.341 -13.062  -0.106  0.00  0.00     0.175 C 
ATOM     17  N5  NON d   1      26.537 -13.876  -1.058  0.00  0.00    -0.347 N 
ATOM     18  C32 NON d   1      26.980 -15.125  -1.467  0.00  0.00     0.236 C 
ATOM     19  O5  NON d   1      28.038 -15.602  -1.068  0.00  0.00    -0.272 OA
ATOM     20  H17 NON d   1      25.038 -15.608  -4.140  0.00  0.00     0.131 HD
ATOM     21  H37 NON d   1      27.755  -9.829  -0.536  0.00  0.00     0.130 HD
ATOM     22  H47 NON d   1      25.616 -13.568  -1.316  0.00  0.00     0.163 HD
ENDROOT
BRANCH  16  23
ATOM     23  C23 NON d   1      26.676 -12.897   1.288  0.00  0.00     0.075 C 
BRANCH  23  24
ATOM     24  C24 NON d   1      27.431 -13.448   2.494  0.00  0.00    -0.028 A 
ATOM     25  C25 NON d   1      27.983 -14.704   2.670  0.00  0.00     0.096 A 
ATOM     26  N4  NON d   1      28.475 -14.825   3.937  0.00  0.00    -0.365 N 
ATOM     27  C26 NON d   1      28.383 -13.624   4.585  0.00  0.00     0.042 A 
ATOM     28  H42 NON d   1      28.895 -15.659   4.322  0.00  0.00     0.165 HD
ATOM     29  C27 NON d   1      28.817 -13.278   5.869  0.00  0.00     0.030 A 
ATOM     30  C31 NON d   1      27.772 -12.728   3.702  0.00  0.00    -0.002 A 
ATOM     31  C28 NON d   1      28.672 -11.956   6.265  0.00  0.00     0.002 A 
ATOM     32  C29 NON d   1      28.097 -11.022   5.411  0.00  0.00     0.001 A 
ATOM     33  C30 NON d   1      27.628 -11.393   4.135  0.00  0.00     0.014 A 
ENDBRANCH  23  24
ENDBRANCH  16  23
BRANCH  12  34
ATOM     34  C17 NON d   1      26.707  -8.547  -2.673  0.00  0.00     0.024 C 
BRANCH  34  35
ATOM     35  C18 NON d   1      25.809  -7.804  -3.799  0.00  0.00    -0.021 C 
ATOM     36  C19 NON d   1      25.145  -6.531  -3.272  0.00  0.00     0.009 C 
ATOM     37  C20 NON d   1      24.860  -8.675  -4.643  0.00  0.00     0.009 C 
ENDBRANCH  34  35
ENDBRANCH  12  34
BRANCH   1  38
ATOM     38  C8  NON d   1      24.919 -16.745  -1.934  0.00  0.00     0.029 C 
BRANCH  38  39
ATOM     39  C7  NON d   1      24.554 -16.796  -0.438  0.00  0.00     0.002 C 
BRANCH  39  40
ATOM     40  C6  NON d   1      24.259 -18.169   0.195  0.00  0.00     0.000 C 
BRANCH  40  41
ATOM     41  C5  NON d   1      23.201 -18.990  -0.539  0.00  0.00     0.007 C 
BRANCH  41  42
ATOM     42  C4  NON d   1      21.838 -18.328  -0.699  0.00  0.00     0.078 C 
BRANCH  42  43
ATOM     43  C3  NON d   1      20.638 -19.262  -0.764  0.00  0.00     0.126 C 
ATOM     44  O1  NON d   1      20.201 -19.700  -1.825  0.00  0.00    -0.298 OA
BRANCH  43  45
ATOM     45  C2  NON d   1      20.081 -19.697   0.564  0.00  0.00     0.074 C 
ATOM     46  C1  NON d   1      18.881 -20.662   0.547  0.00  0.00     0.013 C 
ENDBRANCH  43  45
ENDBRANCH  42  43
ENDBRANCH  41  42
ENDBRANCH  40  41
ENDBRANCH  39  40
ENDBRANCH  38  39
ENDBRANCH   1  38
TORSDOF 11
ENDMDL
MODEL 3
REMARK VINA RESULT:   -10.206      3.695      7.566
REMARK INTER + INTRA:         -14.969
REMARK INTER:                 -13.487
REMARK INTRA:                  -1.482
REMARK CONF_INDEPENDENT:        3.281
REMARK UNBOUND:                -1.482
REMARK  11 active torsions:
REMARK  status: ('A' for Active; 'I' for Inactive)
REMARK    1  A    between atoms: C2_2  and  C3_3 
REMARK    2  A    between atoms: C3_3  and  C4_5 
REMARK    3  A    between atoms: C4_5  and  C5_6 
REMARK    4  A    between atoms: C5_6  and  C6_7 
REMARK    5  A    between atoms: C6_7  and  C7_8 
REMARK    6  A    between atoms: C7_8  and  C8_9 
REMARK    7  A    between atoms: C9_10  and  C8_9 
REMARK    8  A    between atoms: C16_21  and  C17_22 
REMARK    9  A    between atoms: C17_22  and  C18_23 
REMARK   10  A    between atoms: C22_29  and  C23_30 
REMARK   11  A    between atoms: C23_30  and  C24_31 
ROOT
ATOM      1  C9  NON d   1      25.543 -15.782  -1.181  0.00  0.00     0.155 C 
ATOM      2  N1  NON d   1      26.352 -17.010  -1.270  0.00  0.00    -0.248 NA
ATOM      3  C10 NON d   1      27.491 -17.273  -0.535  0.00  0.00     0.220 C 
ATOM      4  O2  NON d   1      27.409 -18.234   0.243  0.00  0.00    -0.278 OA
ATOM      5  C11 NON d   1      28.922 -16.630  -0.833  0.00  0.00     0.169 C 
ATOM      6  C12 NON d   1      28.989 -15.152  -1.113  0.00  0.00     0.042 C 
ATOM      7  N2  NON d   1      29.925 -17.439  -1.636  0.00  0.00    -0.344 N 
ATOM      8  C13 NON d   1      30.528 -18.554  -0.899  0.00  0.00     0.153 C 
ATOM      9  C14 NON d   1      30.457 -17.245  -2.928  0.00  0.00     0.221 C 
ATOM     10  O3  NON d   1      31.490 -17.829  -3.283  0.00  0.00    -0.273 OA
ATOM     11  C15 NON d   1      29.695 -16.383  -3.982  0.00  0.00     0.122 C 
ATOM     12  C16 NON d   1      29.425 -16.078  -5.540  0.00  0.00     0.072 C 
ATOM     13  N3  NON d   1      28.759 -14.758  -5.773  0.00  0.00    -0.256 NA
ATOM     14  C21 NON d   1      28.473 -13.890  -4.732  0.00  0.00     0.220 C 
ATOM     15  O4  NON d   1      29.387 -13.120  -4.413  0.00  0.00    -0.278 OA
ATOM     16  C22 NON d   1      27.020 -13.678  -4.140  0.00  0.00     0.175 C 
ATOM     17  N5  NON d   1      26.416 -14.786  -3.350  0.00  0.00    -0.347 N 
ATOM     18  C32 NON d   1      26.139 -14.622  -2.001  0.00  0.00     0.236 C 
ATOM     19  O5  NON d   1      26.378 -13.572  -1.412  0.00  0.00    -0.272 OA
ATOM     20  H17 NON d   1      25.742 -17.805  -1.075  0.00  0.00     0.131 HD
ATOM     21  H37 NON d   1      29.433 -14.227  -6.304  0.00  0.00     0.130 HD
ATOM     22  H47 NON d   1      26.105 -15.617  -3.823  0.00  0.00     0.163 HD
ENDROOT
BRANCH  16  23
ATOM     23  C23 NON d   1      26.061 -13.079  -5.205  0.00  0.00     0.075 C 
BRANCH  23  24
ATOM     24  C24 NON d   1      25.941 -11.558  -5.262  0.00  0.00    -0.028 A 
ATOM     25  C25 NON d   1      25.539 -10.761  -6.319  0.00  0.00     0.096 A 
ATOM     26  N4  NON d   1      25.677  -9.443  -5.989  0.00  0.00    -0.365 N 
ATOM     27  C26 NON d   1      26.044  -9.332  -4.677  0.00  0.00     0.042 A 
ATOM     28  H42 NON d   1      25.484  -8.666  -6.604  0.00  0.00     0.165 HD
ATOM     29  C27 NON d   1      26.238  -8.179  -3.909  0.00  0.00     0.030 A 
ATOM     30  C31 NON d   1      26.181 -10.632  -4.178  0.00  0.00    -0.002 A 
ATOM     31  C28 NON d   1      26.537  -8.342  -2.564  0.00  0.00     0.002 A 
ATOM     32  C29 NON d   1      26.654  -9.614  -2.015  0.00  0.00     0.001 A 
ATOM     33  C30 NON d   1      26.495 -10.767  -2.809  0.00  0.00     0.014 A 
ENDBRANCH  23  24
ENDBRANCH  16  23
BRANCH  12  34
ATOM     34  C17 NON d   1      30.455 -16.702  -6.675  0.00  0.00     0.024 C 
BRANCH  34  35
ATOM     35  C18 NON d   1      30.780 -18.238  -7.080  0.00  0.00    -0.021 C 
ATOM     36  C19 NON d   1      30.546 -19.210  -5.923  0.00  0.00     0.009 C 
ATOM     37  C20 NON d   1      32.087 -18.513  -7.844  0.00  0.00     0.009 C 
ENDBRANCH  34  35
ENDBRANCH  12  34
BRANCH   1  38
ATOM     38  C8  NON d   1      24.001 -16.047  -1.303  0.00  0.00     0.029 C 
BRANCH  38  39
ATOM     39  C7  NON d   1      23.228 -16.930  -0.305  0.00  0.00     0.002 C 
BRANCH  39  40
ATOM     40  C6  NON d   1      23.633 -18.411  -0.174  0.00  0.00     0.000 C 
BRANCH  40  41
ATOM     41  C5  NON d   1      22.507 -19.402  -0.462  0.00  0.00     0.007 C 
BRANCH  41  42
ATOM     42  C4  NON d   1      21.108 -18.951  -0.065  0.00  0.00     0.078 C 
BRANCH  42  43
ATOM     43  C3  NON d   1      19.951 -19.620  -0.796  0.00  0.00     0.126 C 
ATOM     44  O1  NON d   1      19.904 -19.700  -2.020  0.00  0.00    -0.298 OA
BRANCH  43  45
ATOM     45  C2  NON d   1      18.917 -20.268   0.083  0.00  0.00     0.074 C 
ATOM     46  C1  NON d   1      19.211 -20.331   1.594  0.00  0.00     0.013 C 
ENDBRANCH  43  45
ENDBRANCH  42  43
ENDBRANCH  41  42
ENDBRANCH  40  41
ENDBRANCH  39  40
ENDBRANCH  38  39
ENDBRANCH   1  38
TORSDOF 11
ENDMDL
MODEL 4
REMARK VINA RESULT:    -9.952      4.362      8.620
REMARK INTER + INTRA:         -14.400
REMARK INTER:                 -13.233
REMARK INTRA:                  -1.167
REMARK CONF_INDEPENDENT:        3.281
REMARK UNBOUND:                -1.167
REMARK  11 active torsions:
REMARK  status: ('A' for Active; 'I' for Inactive)
REMARK    1  A    between atoms: C2_2  and  C3_3 
REMARK    2  A    between atoms: C3_3  and  C4_5 
REMARK    3  A    between atoms: C4_5  and  C5_6 
REMARK    4  A    between atoms: C5_6  and  C6_7 
REMARK    5  A    between atoms: C6_7  and  C7_8 
REMARK    6  A    between atoms: C7_8  and  C8_9 
REMARK    7  A    between atoms: C9_10  and  C8_9 
REMARK    8  A    between atoms: C16_21  and  C17_22 
REMARK    9  A    between atoms: C17_22  and  C18_23 
REMARK   10  A    between atoms: C22_29  and  C23_30 
REMARK   11  A    between atoms: C23_30  and  C24_31 
ROOT
ATOM      1  C9  NON d   1      26.372 -15.767  -1.686  0.00  0.00     0.155 C 
ATOM      2  N1  NON d   1      26.981 -17.100  -1.540  0.00  0.00    -0.248 NA
ATOM      3  C10 NON d   1      27.991 -17.427  -0.657  0.00  0.00     0.220 C 
ATOM      4  O2  NON d   1      27.686 -18.254   0.214  0.00  0.00    -0.278 OA
ATOM      5  C11 NON d   1      29.527 -17.043  -0.865  0.00  0.00     0.169 C 
ATOM      6  C12 NON d   1      29.852 -15.640  -1.306  0.00  0.00     0.042 C 
ATOM      7  N2  NON d   1      30.459 -18.088  -1.451  0.00  0.00    -0.344 N 
ATOM      8  C13 NON d   1      30.808 -19.171  -0.526  0.00  0.00     0.153 C 
ATOM      9  C14 NON d   1      31.134 -18.145  -2.689  0.00  0.00     0.221 C 
ATOM     10  O3  NON d   1      32.090 -18.915  -2.855  0.00  0.00    -0.273 OA
ATOM     11  C15 NON d   1      30.619 -17.328  -3.915  0.00  0.00     0.122 C 
ATOM     12  C16 NON d   1      30.547 -17.197  -5.518  0.00  0.00     0.072 C 
ATOM     13  N3  NON d   1      30.123 -15.837  -5.977  0.00  0.00    -0.256 NA
ATOM     14  C21 NON d   1      29.882 -14.806  -5.082  0.00  0.00     0.220 C 
ATOM     15  O4  NON d   1      30.872 -14.141  -4.755  0.00  0.00    -0.278 OA
ATOM     16  C22 NON d   1      28.431 -14.309  -4.686  0.00  0.00     0.175 C 
ATOM     17  N5  NON d   1      27.589 -15.204  -3.845  0.00  0.00    -0.347 N 
ATOM     18  C32 NON d   1      27.217 -14.825  -2.564  0.00  0.00     0.236 C 
ATOM     19  O5  NON d   1      27.563 -13.752  -2.078  0.00  0.00    -0.272 OA
ATOM     20  H17 NON d   1      26.237 -17.766  -1.324  0.00  0.00     0.131 HD
ATOM     21  H37 NON d   1      30.918 -15.484  -6.486  0.00  0.00     0.130 HD
ATOM     22  H47 NON d   1      27.196 -16.036  -4.249  0.00  0.00     0.163 HD
ENDROOT
BRANCH  16  23
ATOM     23  C23 NON d   1      27.682 -13.723  -5.913  0.00  0.00     0.075 C 
BRANCH  23  24
ATOM     24  C24 NON d   1      26.926 -12.413  -5.713  0.00  0.00    -0.028 A 
ATOM     25  C25 NON d   1      26.093 -12.045  -4.671  0.00  0.00     0.096 A 
ATOM     26  N4  NON d   1      25.530 -10.829  -4.930  0.00  0.00    -0.365 N 
ATOM     27  C26 NON d   1      26.068 -10.305  -6.073  0.00  0.00     0.042 A 
ATOM     28  H42 NON d   1      24.858 -10.361  -4.339  0.00  0.00     0.165 HD
ATOM     29  C27 NON d   1      25.829  -9.065  -6.673  0.00  0.00     0.030 A 
ATOM     30  C31 NON d   1      26.974 -11.249  -6.569  0.00  0.00    -0.002 A 
ATOM     31  C28 NON d   1      26.570  -8.739  -7.800  0.00  0.00     0.002 A 
ATOM     32  C29 NON d   1      27.503  -9.632  -8.314  0.00  0.00     0.001 A 
ATOM     33  C30 NON d   1      27.706 -10.895  -7.722  0.00  0.00     0.014 A 
ENDBRANCH  23  24
ENDBRANCH  16  23
BRANCH  12  34
ATOM     34  C17 NON d   1      31.567 -18.108  -6.450  0.00  0.00     0.024 C 
BRANCH  34  35
ATOM     35  C18 NON d   1      31.556 -19.692  -6.793  0.00  0.00    -0.021 C 
ATOM     36  C19 NON d   1      30.785 -20.007  -8.076  0.00  0.00     0.009 C 
ATOM     37  C20 NON d   1      31.241 -20.668  -5.645  0.00  0.00     0.009 C 
ENDBRANCH  34  35
ENDBRANCH  12  34
BRANCH   1  38
ATOM     38  C8  NON d   1      24.825 -15.819  -1.949  0.00  0.00     0.029 C 
BRANCH  38  39
ATOM     39  C7  NON d   1      23.847 -16.550  -1.009  0.00  0.00     0.002 C 
BRANCH  39  40
ATOM     40  C6  NON d   1      24.286 -17.896  -0.402  0.00  0.00     0.000 C 
BRANCH  40  41
ATOM     41  C5  NON d   1      23.223 -18.991  -0.456  0.00  0.00     0.007 C 
BRANCH  41  42
ATOM     42  C4  NON d   1      21.796 -18.547  -0.161  0.00  0.00     0.078 C 
BRANCH  42  43
ATOM     43  C3  NON d   1      20.695 -19.541  -0.507  0.00  0.00     0.126 C 
ATOM     44  O1  NON d   1      20.278 -19.689  -1.652  0.00  0.00    -0.298 OA
BRANCH  43  45
ATOM     45  C2  NON d   1      20.220 -20.403   0.630  0.00  0.00     0.074 C 
ATOM     46  C1  NON d   1      18.705 -20.661   0.737  0.00  0.00     0.013 C 
ENDBRANCH  43  45
ENDBRANCH  42  43
ENDBRANCH  41  42
ENDBRANCH  40  41
ENDBRANCH  39  40
ENDBRANCH  38  39
ENDBRANCH   1  38
TORSDOF 11
ENDMDL
