MODEL 1
REMARK VINA RESULT:    -6.866      0.000      0.000
REMARK INTER + INTRA:          -8.071
REMARK INTER:                  -7.463
REMARK INTRA:                  -0.608
REMARK CONF_INDEPENDENT:        0.597
REMARK UNBOUND:                -0.608
REMARK  2 active torsions:
REMARK  status: ('A' for Active; 'I' for Inactive)
REMARK    1  A    between atoms: C14_20  and  C15_21 
REMARK    2  A    between atoms: C20_30  and  C21_31 
ROOT
ATOM      1  C1  NON d   1      24.254 -17.620  -1.451  0.00  0.00     0.038 C 
ATOM      2  C2  NON d   1      25.204 -16.553  -0.979  0.00  0.00     0.004 C 
ATOM      3  C3  NON d   1      25.386 -15.303  -1.467  0.00  0.00     0.099 C 
ATOM      4  N1  NON d   1      24.526 -14.817  -2.431  0.00  0.00    -0.321 N 
ATOM      5  C4  NON d   1      24.676 -14.075  -3.574  0.00  0.00     0.245 C 
ATOM      6  O1  NON d   1      23.660 -13.911  -4.257  0.00  0.00    -0.271 OA
ATOM      7  C5  NON d   1      26.035 -13.489  -4.037  0.00  0.00     0.187 C 
ATOM      8  C6  NON d   1      27.055 -14.640  -4.169  0.00  0.00     0.120 C 
ATOM      9  S1  NON d   1      27.745 -15.188  -5.770  0.00  0.00    -0.095 SA
ATOM     10  S2  NON d   1      29.381 -14.001  -6.174  0.00  0.00    -0.097 SA
ATOM     11  C7  NON d   1      30.138 -13.617  -4.539  0.00  0.00     0.090 C 
ATOM     12  C8  NON d   1      29.459 -12.342  -4.079  0.00  0.00     0.038 C 
ATOM     13  C9  NON d   1      29.339 -12.008  -2.614  0.00  0.00    -0.027 C 
ATOM     14  C10 NON d   1      28.148 -11.532  -2.230  0.00  0.00     0.002 C 
ATOM     15  C11 NON d   1      27.836 -10.375  -1.359  0.00  0.00     0.163 C 
ATOM     16  C12 NON d   1      28.384  -9.123  -2.112  0.00  0.00     0.139 C 
ATOM     17  C13 NON d   1      28.343  -9.250  -3.662  0.00  0.00     0.221 C 
ATOM     18  O2  NON d   1      29.371  -9.092  -4.303  0.00  0.00    -0.274 OA
ATOM     19  N2  NON d   1      27.154  -9.690  -4.236  0.00  0.00    -0.347 N 
ATOM     20  C14 NON d   1      27.055 -10.283  -5.607  0.00  0.00     0.180 C 
ATOM     21  C18 NON d   1      25.902 -11.392  -5.760  0.00  0.00     0.241 C 
ATOM     22  O3  NON d   1      24.957 -11.158  -6.532  0.00  0.00    -0.271 OA
ATOM     23  N3  NON d   1      25.789 -12.651  -5.254  0.00  0.00    -0.345 N 
ATOM     24  O4  NON d   1      28.357 -10.526  -0.040  0.00  0.00    -0.310 OA
ATOM     25  C19 NON d   1      28.641 -11.680   0.602  0.00  0.00     0.282 C 
ATOM     26  O5  NON d   1      29.569 -11.625   1.410  0.00  0.00    -0.263 OA
ATOM     27  C20 NON d   1      27.844 -13.028   0.419  0.00  0.00     0.188 C 
ATOM     28  N4  NON d   1      26.678 -13.377  -0.472  0.00  0.00    -0.342 N 
ATOM     29  C24 NON d   1      26.684 -14.666  -1.012  0.00  0.00     0.268 C 
ATOM     30  O6  NON d   1      27.708 -15.347  -1.063  0.00  0.00    -0.266 OA
ATOM     31  H5  NON d   1      23.605 -15.249  -2.445  0.00  0.00     0.169 HD
ATOM     32  H18 NON d   1      26.283  -9.433  -3.794  0.00  0.00     0.163 HD
ATOM     33  H27 NON d   1      24.959 -13.023  -5.715  0.00  0.00     0.163 HD
ATOM     34  H36 NON d   1      25.782 -12.948  -0.282  0.00  0.00     0.163 HD
ENDROOT
BRANCH  20  35
ATOM     35  C15 NON d   1      26.902  -9.123  -6.694  0.00  0.00     0.009 C 
ATOM     36  C16 NON d   1      25.611  -8.288  -6.572  0.00  0.00     0.012 C 
ATOM     37  C17 NON d   1      26.923  -9.647  -8.143  0.00  0.00     0.012 C 
ENDBRANCH  20  35
BRANCH  27  38
ATOM     38  C21 NON d   1      27.527 -13.637   1.837  0.00  0.00     0.010 C 
ATOM     39  C22 NON d   1      27.030 -12.604   2.857  0.00  0.00     0.012 C 
ATOM     40  C23 NON d   1      28.705 -14.450   2.397  0.00  0.00     0.012 C 
ENDBRANCH  27  38
TORSDOF 2
ENDMDL
MODEL 2
REMARK VINA RESULT:    -6.381      3.836      7.162
REMARK INTER + INTRA:          -7.613
REMARK INTER:                  -6.978
REMARK INTRA:                  -0.635
REMARK CONF_INDEPENDENT:        0.597
REMARK UNBOUND:                -0.635
REMARK  2 active torsions:
REMARK  status: ('A' for Active; 'I' for Inactive)
REMARK    1  A    between atoms: C14_20  and  C15_21 
REMARK    2  A    between atoms: C20_30  and  C21_31 
ROOT
ATOM      1  C1  NON d   1      32.755 -20.045  -1.854  0.00  0.00     0.038 C 
ATOM      2  C2  NON d   1      32.025 -19.098  -2.767  0.00  0.00     0.004 C 
ATOM      3  C3  NON d   1      31.503 -17.880  -2.484  0.00  0.00     0.099 C 
ATOM      4  N1  NON d   1      31.758 -17.299  -1.258  0.00  0.00    -0.321 N 
ATOM      5  C4  NON d   1      31.015 -16.585  -0.355  0.00  0.00     0.245 C 
ATOM      6  O1  NON d   1      31.572 -16.303   0.711  0.00  0.00    -0.271 OA
ATOM      7  C5  NON d   1      29.542 -16.167  -0.603  0.00  0.00     0.187 C 
ATOM      8  C6  NON d   1      28.708 -17.432  -0.897  0.00  0.00     0.120 C 
ATOM      9  S1  NON d   1      27.416 -18.065   0.229  0.00  0.00    -0.095 SA
ATOM     10  S2  NON d   1      25.663 -17.084  -0.230  0.00  0.00    -0.097 SA
ATOM     11  C7  NON d   1      25.718 -16.787  -2.048  0.00  0.00     0.090 C 
ATOM     12  C8  NON d   1      26.391 -15.438  -2.207  0.00  0.00     0.038 C 
ATOM     13  C9  NON d   1      27.141 -15.086  -3.467  0.00  0.00    -0.027 C 
ATOM     14  C10 NON d   1      28.315 -14.470  -3.281  0.00  0.00     0.002 C 
ATOM     15  C11 NON d   1      28.870 -13.279  -3.968  0.00  0.00     0.163 C 
ATOM     16  C12 NON d   1      27.903 -12.105  -3.619  0.00  0.00     0.139 C 
ATOM     17  C13 NON d   1      27.233 -12.232  -2.222  0.00  0.00     0.221 C 
ATOM     18  O2  NON d   1      26.014 -12.201  -2.138  0.00  0.00    -0.274 OA
ATOM     19  N2  NON d   1      28.057 -12.530  -1.141  0.00  0.00    -0.347 N 
ATOM     20  C14 NON d   1      27.570 -13.112   0.149  0.00  0.00     0.180 C 
ATOM     21  C18 NON d   1      28.632 -14.077   0.875  0.00  0.00     0.241 C 
ATOM     22  O3  NON d   1      29.079 -13.734   1.983  0.00  0.00    -0.271 OA
ATOM     23  N3  NON d   1      29.102 -15.310   0.544  0.00  0.00    -0.345 N 
ATOM     24  O4  NON d   1      29.041 -13.486  -5.368  0.00  0.00    -0.310 OA
ATOM     25  C19 NON d   1      29.215 -14.664  -6.008  0.00  0.00     0.282 C 
ATOM     26  O5  NON d   1      28.769 -14.717  -7.155  0.00  0.00    -0.263 OA
ATOM     27  C20 NON d   1      29.975 -15.907  -5.408  0.00  0.00     0.188 C 
ATOM     28  N4  NON d   1      30.623 -16.119  -4.062  0.00  0.00    -0.342 N 
ATOM     29  C24 NON d   1      30.506 -17.401  -3.519  0.00  0.00     0.268 C 
ATOM     30  O6  NON d   1      29.655 -18.200  -3.912  0.00  0.00    -0.266 OA
ATOM     31  H5  NON d   1      32.607 -17.617  -0.797  0.00  0.00     0.169 HD
ATOM     32  H18 NON d   1      29.001 -12.169  -1.143  0.00  0.00     0.163 HD
ATOM     33  H27 NON d   1      29.657 -15.583   1.355  0.00  0.00     0.163 HD
ATOM     34  H36 NON d   1      31.452 -15.585  -3.838  0.00  0.00     0.163 HD
ENDROOT
BRANCH  20  35
ATOM     35  C15 NON d   1      27.075 -11.947   1.122  0.00  0.00     0.009 C 
ATOM     36  C16 NON d   1      28.113 -10.836   1.383  0.00  0.00     0.012 C 
ATOM     37  C17 NON d   1      26.655 -12.459   2.513  0.00  0.00     0.012 C 
ENDBRANCH  20  35
BRANCH  27  38
ATOM     38  C21 NON d   1      30.979 -16.469  -6.485  0.00  0.00     0.010 C 
ATOM     39  C22 NON d   1      30.779 -17.957  -6.798  0.00  0.00     0.012 C 
ATOM     40  C23 NON d   1      32.443 -16.166  -6.129  0.00  0.00     0.012 C 
ENDBRANCH  27  38
TORSDOF 2
ENDMDL
MODEL 3
REMARK VINA RESULT:    -6.350      3.133      7.223
REMARK INTER + INTRA:          -7.550
REMARK INTER:                  -6.947
REMARK INTRA:                  -0.603
REMARK CONF_INDEPENDENT:        0.597
REMARK UNBOUND:                -0.603
REMARK  2 active torsions:
REMARK  status: ('A' for Active; 'I' for Inactive)
REMARK    1  A    between atoms: C14_20  and  C15_21 
REMARK    2  A    between atoms: C20_30  and  C21_31 
ROOT
ATOM      1  C1  NON d   1      25.386  -8.051  -5.551  0.00  0.00     0.038 C 
ATOM      2  C2  NON d   1      25.775  -9.366  -4.932  0.00  0.00     0.004 C 
ATOM      3  C3  NON d   1      25.798  -9.714  -3.623  0.00  0.00     0.099 C 
ATOM      4  N1  NON d   1      25.272  -8.852  -2.682  0.00  0.00    -0.321 N 
ATOM      5  C4  NON d   1      25.644  -8.450  -1.425  0.00  0.00     0.245 C 
ATOM      6  O1  NON d   1      24.957  -7.563  -0.909  0.00  0.00    -0.271 OA
ATOM      7  C5  NON d   1      26.875  -9.024  -0.677  0.00  0.00     0.187 C 
ATOM      8  C6  NON d   1      28.131  -8.821  -1.552  0.00  0.00     0.120 C 
ATOM      9  S1  NON d   1      29.491  -7.687  -1.104  0.00  0.00    -0.095 SA
ATOM     10  S2  NON d   1      30.789  -8.731   0.109  0.00  0.00    -0.097 SA
ATOM     11  C7  NON d   1      30.744 -10.473  -0.491  0.00  0.00     0.090 C 
ATOM     12  C8  NON d   1      29.636 -11.135   0.304  0.00  0.00     0.038 C 
ATOM     13  C9  NON d   1      28.889 -12.325  -0.244  0.00  0.00    -0.027 C 
ATOM     14  C10 NON d   1      27.562 -12.298  -0.068  0.00  0.00     0.002 C 
ATOM     15  C11 NON d   1      26.655 -13.373   0.399  0.00  0.00     0.163 C 
ATOM     16  C12 NON d   1      27.102 -13.694   1.859  0.00  0.00     0.139 C 
ATOM     17  C13 NON d   1      27.684 -12.471   2.625  0.00  0.00     0.221 C 
ATOM     18  O2  NON d   1      28.799 -12.550   3.118  0.00  0.00    -0.274 OA
ATOM     19  N2  NON d   1      26.959 -11.284   2.580  0.00  0.00    -0.347 N 
ATOM     20  C14 NON d   1      27.543  -9.935   2.860  0.00  0.00     0.180 C 
ATOM     21  C18 NON d   1      26.864  -8.741   2.025  0.00  0.00     0.241 C 
ATOM     22  O3  NON d   1      26.255  -7.856   2.650  0.00  0.00    -0.271 OA
ATOM     23  N3  NON d   1      26.899  -8.434   0.699  0.00  0.00    -0.345 N 
ATOM     24  O4  NON d   1      26.659 -14.507  -0.466  0.00  0.00    -0.310 OA
ATOM     25  C19 NON d   1      26.967 -14.534  -1.781  0.00  0.00     0.282 C 
ATOM     26  O5  NON d   1      27.473 -15.581  -2.187  0.00  0.00    -0.263 OA
ATOM     27  C20 NON d   1      26.678 -13.362  -2.795  0.00  0.00     0.188 C 
ATOM     28  N4  NON d   1      26.070 -11.997  -2.586  0.00  0.00    -0.342 N 
ATOM     29  C24 NON d   1      26.613 -10.961  -3.349  0.00  0.00     0.268 C 
ATOM     30  O6  NON d   1      27.720 -11.053  -3.881  0.00  0.00    -0.266 OA
ATOM     31  H5  NON d   1      24.571  -8.204  -3.033  0.00  0.00     0.169 HD
ATOM     32  H18 NON d   1      25.951 -11.338   2.542  0.00  0.00     0.163 HD
ATOM     33  H27 NON d   1      26.432  -7.529   0.648  0.00  0.00     0.163 HD
ATOM     34  H36 NON d   1      25.090 -11.941  -2.340  0.00  0.00     0.163 HD
ENDROOT
BRANCH  20  35
ATOM     35  C15 NON d   1      27.517  -9.643   4.430  0.00  0.00     0.009 C 
ATOM     36  C16 NON d   1      28.236  -8.347   4.860  0.00  0.00     0.012 C 
ATOM     37  C17 NON d   1      28.155 -10.769   5.265  0.00  0.00     0.012 C 
ENDBRANCH  20  35
BRANCH  27  38
ATOM     38  C21 NON d   1      26.019 -13.956  -4.096  0.00  0.00     0.010 C 
ATOM     39  C22 NON d   1      26.704 -13.511  -5.395  0.00  0.00     0.012 C 
ATOM     40  C23 NON d   1      24.504 -13.700  -4.151  0.00  0.00     0.012 C 
ENDBRANCH  27  38
TORSDOF 2
ENDMDL
MODEL 4
REMARK VINA RESULT:    -6.223      3.138      7.616
REMARK INTER + INTRA:          -7.404
REMARK INTER:                  -6.820
REMARK INTRA:                  -0.584
REMARK CONF_INDEPENDENT:        0.597
REMARK UNBOUND:                -0.584
REMARK  2 active torsions:
REMARK  status: ('A' for Active; 'I' for Inactive)
REMARK    1  A    between atoms: C14_20  and  C15_21 
REMARK    2  A    between atoms: C20_30  and  C21_31 
ROOT
ATOM      1  C1  NON d   1      27.344  -8.048  -9.351  0.00  0.00     0.038 C 
ATOM      2  C2  NON d   1      28.255  -9.184  -8.971  0.00  0.00     0.004 C 
ATOM      3  C3  NON d   1      27.966 -10.306  -8.270  0.00  0.00     0.099 C 
ATOM      4  N1  NON d   1      26.652 -10.587  -7.950  0.00  0.00    -0.321 N 
ATOM      5  C4  NON d   1      26.012 -11.077  -6.842  0.00  0.00     0.245 C 
ATOM      6  O1  NON d   1      24.778 -11.103  -6.890  0.00  0.00    -0.271 OA
ATOM      7  C5  NON d   1      26.756 -11.548  -5.565  0.00  0.00     0.187 C 
ATOM      8  C6  NON d   1      27.632 -10.388  -5.043  0.00  0.00     0.120 C 
ATOM      9  S1  NON d   1      27.307  -9.518  -3.469  0.00  0.00    -0.095 SA
ATOM     10  S2  NON d   1      28.236 -10.586  -1.972  0.00  0.00    -0.097 SA
ATOM     11  C7  NON d   1      29.758 -11.294  -2.732  0.00  0.00     0.090 C 
ATOM     12  C8  NON d   1      29.334 -12.640  -3.285  0.00  0.00     0.038 C 
ATOM     13  C9  NON d   1      30.060 -13.270  -4.446  0.00  0.00    -0.027 C 
ATOM     14  C10 NON d   1      29.277 -13.822  -5.381  0.00  0.00     0.002 C 
ATOM     15  C11 NON d   1      29.402 -15.136  -6.055  0.00  0.00     0.163 C 
ATOM     16  C12 NON d   1      29.248 -16.202  -4.926  0.00  0.00     0.139 C 
ATOM     17  C13 NON d   1      28.318 -15.759  -3.760  0.00  0.00     0.221 C 
ATOM     18  O2  NON d   1      28.745 -15.775  -2.616  0.00  0.00    -0.274 OA
ATOM     19  N2  NON d   1      27.082 -15.217  -4.099  0.00  0.00    -0.347 N 
ATOM     20  C14 NON d   1      26.267 -14.355  -3.186  0.00  0.00     0.180 C 
ATOM     21  C18 NON d   1      25.387 -13.245  -3.945  0.00  0.00     0.241 C 
ATOM     22  O3  NON d   1      24.149 -13.320  -3.869  0.00  0.00    -0.271 OA
ATOM     23  N3  NON d   1      25.744 -12.119  -4.620  0.00  0.00    -0.345 N 
ATOM     24  O4  NON d   1      30.612 -15.257  -6.799  0.00  0.00    -0.310 OA
ATOM     25  C19 NON d   1      31.354 -14.258  -7.325  0.00  0.00     0.282 C 
ATOM     26  O5  NON d   1      32.565 -14.472  -7.390  0.00  0.00    -0.263 OA
ATOM     27  C20 NON d   1      30.769 -12.906  -7.887  0.00  0.00     0.188 C 
ATOM     28  N4  NON d   1      29.354 -12.387  -7.948  0.00  0.00    -0.342 N 
ATOM     29  C24 NON d   1      29.195 -11.015  -7.739  0.00  0.00     0.268 C 
ATOM     30  O6  NON d   1      30.065 -10.332  -7.199  0.00  0.00    -0.266 OA
ATOM     31  H5  NON d   1      25.958 -10.168  -8.564  0.00  0.00     0.169 HD
ATOM     32  H18 NON d   1      26.615 -15.564  -4.924  0.00  0.00     0.163 HD
ATOM     33  H27 NON d   1      24.853 -11.664  -4.821  0.00  0.00     0.163 HD
ATOM     34  H36 NON d   1      28.699 -12.852  -8.562  0.00  0.00     0.163 HD
ENDROOT
BRANCH  20  35
ATOM     35  C15 NON d   1      25.367 -15.267  -2.233  0.00  0.00     0.009 C 
ATOM     36  C16 NON d   1      25.916 -15.449  -0.803  0.00  0.00     0.012 C 
ATOM     37  C17 NON d   1      25.156 -16.691  -2.782  0.00  0.00     0.012 C 
ENDBRANCH  20  35
BRANCH  27  38
ATOM     38  C21 NON d   1      31.423 -12.604  -9.288  0.00  0.00     0.010 C 
ATOM     39  C22 NON d   1      32.717 -11.785  -9.203  0.00  0.00     0.012 C 
ATOM     40  C23 NON d   1      30.426 -11.967 -10.270  0.00  0.00     0.012 C 
ENDBRANCH  27  38
TORSDOF 2
ENDMDL
MODEL 5
REMARK VINA RESULT:    -6.204      2.957      5.446
REMARK INTER + INTRA:          -7.557
REMARK INTER:                  -6.800
REMARK INTRA:                  -0.756
REMARK CONF_INDEPENDENT:        0.597
REMARK UNBOUND:                -0.756
REMARK  2 active torsions:
REMARK  status: ('A' for Active; 'I' for Inactive)
REMARK    1  A    between atoms: C14_20  and  C15_21 
REMARK    2  A    between atoms: C20_30  and  C21_31 
ROOT
ATOM      1  C1  NON d   1      27.056 -12.290   1.988  0.00  0.00     0.038 C 
ATOM      2  C2  NON d   1      26.790 -12.949   0.661  0.00  0.00     0.004 C 
ATOM      3  C3  NON d   1      27.483 -12.832  -0.497  0.00  0.00     0.099 C 
ATOM      4  N1  NON d   1      28.684 -12.152  -0.506  0.00  0.00    -0.321 N 
ATOM      5  C4  NON d   1      29.287 -11.268  -1.363  0.00  0.00     0.245 C 
ATOM      6  O1  NON d   1      30.354 -10.778  -0.980  0.00  0.00    -0.271 OA
ATOM      7  C5  NON d   1      28.679 -10.852  -2.727  0.00  0.00     0.187 C 
ATOM      8  C6  NON d   1      27.265 -10.278  -2.487  0.00  0.00     0.120 C 
ATOM      9  S1  NON d   1      26.839  -8.522  -2.757  0.00  0.00    -0.095 SA
ATOM     10  S2  NON d   1      26.336  -8.308  -4.744  0.00  0.00    -0.097 SA
ATOM     11  C7  NON d   1      25.530  -9.892  -5.230  0.00  0.00     0.090 C 
ATOM     12  C8  NON d   1      26.660 -10.777  -5.720  0.00  0.00     0.038 C 
ATOM     13  C9  NON d   1      26.555 -12.279  -5.658  0.00  0.00    -0.027 C 
ATOM     14  C10 NON d   1      27.654 -12.913  -5.230  0.00  0.00     0.002 C 
ATOM     15  C11 NON d   1      28.322 -14.114  -5.785  0.00  0.00     0.163 C 
ATOM     16  C12 NON d   1      28.799 -13.706  -7.213  0.00  0.00     0.139 C 
ATOM     17  C13 NON d   1      29.169 -12.201  -7.350  0.00  0.00     0.221 C 
ATOM     18  O2  NON d   1      28.623 -11.527  -8.210  0.00  0.00    -0.274 OA
ATOM     19  N2  NON d   1      30.001 -11.655  -6.377  0.00  0.00    -0.347 N 
ATOM     20  C14 NON d   1      30.105 -10.190  -6.090  0.00  0.00     0.180 C 
ATOM     21  C18 NON d   1      30.420  -9.845  -4.552  0.00  0.00     0.241 C 
ATOM     22  O3  NON d   1      31.496  -9.283  -4.282  0.00  0.00    -0.271 OA
ATOM     23  N3  NON d   1      29.665  -9.969  -3.427  0.00  0.00    -0.345 N 
ATOM     24  O4  NON d   1      27.481 -15.265  -5.766  0.00  0.00    -0.310 OA
ATOM     25  C19 NON d   1      26.438 -15.506  -4.942  0.00  0.00     0.282 C 
ATOM     26  O5  NON d   1      25.530 -16.188  -5.418  0.00  0.00    -0.263 OA
ATOM     27  C20 NON d   1      26.349 -15.024  -3.444  0.00  0.00     0.188 C 
ATOM     28  N4  NON d   1      27.298 -14.201  -2.609  0.00  0.00    -0.342 N 
ATOM     29  C24 NON d   1      26.708 -13.310  -1.709  0.00  0.00     0.268 C 
ATOM     30  O6  NON d   1      25.536 -12.950  -1.821  0.00  0.00    -0.266 OA
ATOM     31  H5  NON d   1      29.165 -12.112   0.390  0.00  0.00     0.169 HD
ATOM     32  H18 NON d   1      30.711 -12.246  -5.966  0.00  0.00     0.163 HD
ATOM     33  H27 NON d   1      30.225  -9.512  -2.707  0.00  0.00     0.163 HD
ATOM     34  H36 NON d   1      28.191 -14.605  -2.358  0.00  0.00     0.163 HD
ENDROOT
BRANCH  20  35
ATOM     35  C15 NON d   1      31.167  -9.515  -7.073  0.00  0.00     0.009 C 
ATOM     36  C16 NON d   1      30.558  -8.843  -8.321  0.00  0.00     0.012 C 
ATOM     37  C17 NON d   1      32.215 -10.509  -7.606  0.00  0.00     0.012 C 
ENDBRANCH  20  35
BRANCH  27  38
ATOM     38  C21 NON d   1      25.878 -16.226  -2.541  0.00  0.00     0.010 C 
ATOM     39  C22 NON d   1      24.551 -15.971  -1.815  0.00  0.00     0.012 C 
ATOM     40  C23 NON d   1      26.971 -16.680  -1.560  0.00  0.00     0.012 C 
ENDBRANCH  27  38
TORSDOF 2
ENDMDL
MODEL 6
REMARK VINA RESULT:    -6.158      3.100      4.933
REMARK INTER + INTRA:          -7.180
REMARK INTER:                  -6.754
REMARK INTRA:                  -0.426
REMARK CONF_INDEPENDENT:        0.597
REMARK UNBOUND:                -0.426
REMARK  2 active torsions:
REMARK  status: ('A' for Active; 'I' for Inactive)
REMARK    1  A    between atoms: C14_20  and  C15_21 
REMARK    2  A    between atoms: C20_30  and  C21_31 
ROOT
ATOM      1  C1  NON d   1      32.097 -18.573  -1.137  0.00  0.00     0.038 C 
ATOM      2  C2  NON d   1      30.676 -18.091  -1.031  0.00  0.00     0.004 C 
ATOM      3  C3  NON d   1      29.984 -17.295  -1.882  0.00  0.00     0.099 C 
ATOM      4  N1  NON d   1      30.539 -16.958  -3.101  0.00  0.00    -0.321 N 
ATOM      5  C4  NON d   1      30.594 -15.815  -3.854  0.00  0.00     0.245 C 
ATOM      6  O1  NON d   1      31.284 -15.866  -4.877  0.00  0.00    -0.271 OA
ATOM      7  C5  NON d   1      29.875 -14.499  -3.459  0.00  0.00     0.187 C 
ATOM      8  C6  NON d   1      30.349 -14.075  -2.051  0.00  0.00     0.120 C 
ATOM      9  S1  NON d   1      31.360 -12.585  -1.741  0.00  0.00    -0.095 SA
ATOM     10  S2  NON d   1      30.065 -10.996  -1.530  0.00  0.00    -0.097 SA
ATOM     11  C7  NON d   1      28.553 -11.684  -0.732  0.00  0.00     0.090 C 
ATOM     12  C8  NON d   1      27.664 -12.119  -1.881  0.00  0.00     0.038 C 
ATOM     13  C9  NON d   1      26.647 -13.218  -1.706  0.00  0.00    -0.027 C 
ATOM     14  C10 NON d   1      26.583 -14.104  -2.707  0.00  0.00     0.002 C 
ATOM     15  C11 NON d   1      25.394 -14.661  -3.394  0.00  0.00     0.163 C 
ATOM     16  C12 NON d   1      24.700 -13.444  -4.082  0.00  0.00     0.139 C 
ATOM     17  C13 NON d   1      25.684 -12.326  -4.530  0.00  0.00     0.221 C 
ATOM     18  O2  NON d   1      25.509 -11.182  -4.138  0.00  0.00    -0.274 OA
ATOM     19  N2  NON d   1      26.815 -12.716  -5.241  0.00  0.00    -0.347 N 
ATOM     20  C14 NON d   1      28.054 -11.886  -5.366  0.00  0.00     0.180 C 
ATOM     21  C18 NON d   1      29.409 -12.743  -5.479  0.00  0.00     0.241 C 
ATOM     22  O3  NON d   1      30.070 -12.667  -6.529  0.00  0.00    -0.271 OA
ATOM     23  N3  NON d   1      30.067 -13.512  -4.569  0.00  0.00    -0.345 N 
ATOM     24  O4  NON d   1      24.540 -15.386  -2.512  0.00  0.00    -0.310 OA
ATOM     25  C19 NON d   1      24.883 -15.993  -1.355  0.00  0.00     0.282 C 
ATOM     26  O5  NON d   1      24.003 -16.034  -0.494  0.00  0.00    -0.263 OA
ATOM     27  C20 NON d   1      26.278 -16.674  -1.078  0.00  0.00     0.188 C 
ATOM     28  N4  NON d   1      27.514 -16.787  -1.935  0.00  0.00    -0.342 N 
ATOM     29  C24 NON d   1      28.736 -16.699  -1.264  0.00  0.00     0.268 C 
ATOM     30  O6  NON d   1      28.827 -16.217  -0.135  0.00  0.00    -0.266 OA
ATOM     31  H5  NON d   1      31.236 -17.610  -3.453  0.00  0.00     0.169 HD
ATOM     32  H18 NON d   1      26.742 -13.510  -5.861  0.00  0.00     0.163 HD
ATOM     33  H27 NON d   1      30.937 -13.756  -5.043  0.00  0.00     0.163 HD
ATOM     34  H36 NON d   1      27.471 -17.361  -2.767  0.00  0.00     0.163 HD
ENDROOT
BRANCH  20  35
ATOM     35  C15 NON d   1      27.905 -10.861  -6.582  0.00  0.00     0.009 C 
ATOM     36  C16 NON d   1      27.172  -9.548  -6.237  0.00  0.00     0.012 C 
ATOM     37  C17 NON d   1      27.148 -11.456  -7.785  0.00  0.00     0.012 C 
ENDBRANCH  20  35
BRANCH  27  38
ATOM     38  C21 NON d   1      26.042 -18.093  -0.436  0.00  0.00     0.010 C 
ATOM     39  C22 NON d   1      24.583 -18.563  -0.495  0.00  0.00     0.012 C 
ATOM     40  C23 NON d   1      26.599 -18.185   0.993  0.00  0.00     0.012 C 
ENDBRANCH  27  38
TORSDOF 2
ENDMDL
MODEL 7
REMARK VINA RESULT:    -6.065      2.732      3.928
REMARK INTER + INTRA:          -6.863
REMARK INTER:                  -6.661
REMARK INTRA:                  -0.202
REMARK CONF_INDEPENDENT:        0.597
REMARK UNBOUND:                -0.202
REMARK  2 active torsions:
REMARK  status: ('A' for Active; 'I' for Inactive)
REMARK    1  A    between atoms: C14_20  and  C15_21 
REMARK    2  A    between atoms: C20_30  and  C21_31 
ROOT
ATOM      1  C1  NON d   1      28.878 -15.442   0.575  0.00  0.00     0.038 C 
ATOM      2  C2  NON d   1      28.548 -14.041   1.012  0.00  0.00     0.004 C 
ATOM      3  C3  NON d   1      27.820 -13.099   0.366  0.00  0.00     0.099 C 
ATOM      4  N1  NON d   1      27.136 -13.440  -0.784  0.00  0.00    -0.321 N 
ATOM      5  C4  NON d   1      26.917 -12.832  -1.993  0.00  0.00     0.245 C 
ATOM      6  O1  NON d   1      26.320 -13.502  -2.842  0.00  0.00    -0.271 OA
ATOM      7  C5  NON d   1      27.409 -11.401  -2.329  0.00  0.00     0.187 C 
ATOM      8  C6  NON d   1      28.937 -11.336  -2.118  0.00  0.00     0.120 C 
ATOM      9  S1  NON d   1      30.128 -11.118  -3.486  0.00  0.00    -0.095 SA
ATOM     10  S2  NON d   1      30.322  -9.093  -3.817  0.00  0.00    -0.097 SA
ATOM     11  C7  NON d   1      30.135  -8.295  -2.167  0.00  0.00     0.090 C 
ATOM     12  C8  NON d   1      28.650  -8.024  -2.026  0.00  0.00     0.038 C 
ATOM     13  C9  NON d   1      28.001  -7.932  -0.668  0.00  0.00    -0.027 C 
ATOM     14  C10 NON d   1      26.825  -8.561  -0.553  0.00  0.00     0.002 C 
ATOM     15  C11 NON d   1      25.563  -8.087   0.065  0.00  0.00     0.163 C 
ATOM     16  C12 NON d   1      25.117  -6.857  -0.784  0.00  0.00     0.139 C 
ATOM     17  C13 NON d   1      25.529  -6.940  -2.282  0.00  0.00     0.221 C 
ATOM     18  O2  NON d   1      26.182  -6.031  -2.774  0.00  0.00    -0.274 OA
ATOM     19  N2  NON d   1      25.260  -8.128  -2.955  0.00  0.00    -0.347 N 
ATOM     20  C14 NON d   1      25.951  -8.553  -4.213  0.00  0.00     0.180 C 
ATOM     21  C18 NON d   1      26.118 -10.144  -4.363  0.00  0.00     0.241 C 
ATOM     22  O3  NON d   1      25.530 -10.714  -5.299  0.00  0.00    -0.271 OA
ATOM     23  N3  NON d   1      26.891 -11.037  -3.687  0.00  0.00    -0.345 N 
ATOM     24  O4  NON d   1      25.707  -7.805   1.455  0.00  0.00    -0.310 OA
ATOM     25  C19 NON d   1      26.615  -8.327   2.309  0.00  0.00     0.282 C 
ATOM     26  O5  NON d   1      26.965  -7.590   3.230  0.00  0.00    -0.263 OA
ATOM     27  C20 NON d   1      27.187  -9.794   2.222  0.00  0.00     0.188 C 
ATOM     28  N4  NON d   1      26.934 -10.900   1.228  0.00  0.00    -0.342 N 
ATOM     29  C24 NON d   1      28.033 -11.700   0.908  0.00  0.00     0.268 C 
ATOM     30  O6  NON d   1      29.189 -11.337   1.124  0.00  0.00    -0.266 OA
ATOM     31  H5  NON d   1      26.901 -14.425  -0.871  0.00  0.00     0.169 HD
ATOM     32  H18 NON d   1      24.433  -8.648  -2.698  0.00  0.00     0.163 HD
ATOM     33  H27 NON d   1      26.765 -11.907  -4.205  0.00  0.00     0.163 HD
ATOM     34  H36 NON d   1      26.016 -11.326   1.208  0.00  0.00     0.163 HD
ENDROOT
BRANCH  20  35
ATOM     35  C15 NON d   1      25.217  -7.917  -5.481  0.00  0.00     0.009 C 
ATOM     36  C16 NON d   1      25.605  -6.457  -5.789  0.00  0.00     0.012 C 
ATOM     37  C17 NON d   1      23.682  -7.922  -5.356  0.00  0.00     0.012 C 
ENDBRANCH  20  35
BRANCH  27  38
ATOM     38  C21 NON d   1      27.143 -10.451   3.652  0.00  0.00     0.010 C 
ATOM     39  C22 NON d   1      28.052  -9.763   4.678  0.00  0.00     0.012 C 
ATOM     40  C23 NON d   1      27.404 -11.966   3.605  0.00  0.00     0.012 C 
ENDBRANCH  27  38
TORSDOF 2
ENDMDL
MODEL 8
REMARK VINA RESULT:    -6.011      6.191     10.122
REMARK INTER + INTRA:          -7.296
REMARK INTER:                  -6.607
REMARK INTRA:                  -0.688
REMARK CONF_INDEPENDENT:        0.597
REMARK UNBOUND:                -0.688
REMARK  2 active torsions:
REMARK  status: ('A' for Active; 'I' for Inactive)
REMARK    1  A    between atoms: C14_20  and  C15_21 
REMARK    2  A    between atoms: C20_30  and  C21_31 
ROOT
ATOM      1  C1  NON d   1      35.650  -9.656   6.739  0.00  0.00     0.038 C 
ATOM      2  C2  NON d   1      34.391 -10.335   7.206  0.00  0.00     0.004 C 
ATOM      3  C3  NON d   1      33.549 -11.134   6.507  0.00  0.00     0.099 C 
ATOM      4  N1  NON d   1      33.898 -11.543   5.235  0.00  0.00    -0.321 N 
ATOM      5  C4  NON d   1      33.226 -11.692   4.050  0.00  0.00     0.245 C 
ATOM      6  O1  NON d   1      33.910 -11.996   3.068  0.00  0.00    -0.271 OA
ATOM      7  C5  NON d   1      31.699 -11.465   3.902  0.00  0.00     0.187 C 
ATOM      8  C6  NON d   1      31.360 -10.036   4.379  0.00  0.00     0.120 C 
ATOM      9  S1  NON d   1      30.776  -8.717   3.256  0.00  0.00    -0.095 SA
ATOM     10  S2  NON d   1      28.730  -8.902   3.100  0.00  0.00    -0.097 SA
ATOM     11  C7  NON d   1      28.155  -9.507   4.743  0.00  0.00     0.090 C 
ATOM     12  C8  NON d   1      28.193 -11.019   4.642  0.00  0.00     0.038 C 
ATOM     13  C9  NON d   1      28.368 -11.877   5.870  0.00  0.00    -0.027 C 
ATOM     14  C10 NON d   1      29.222 -12.899   5.736  0.00  0.00     0.002 C 
ATOM     15  C11 NON d   1      29.068 -14.312   6.156  0.00  0.00     0.163 C 
ATOM     16  C12 NON d   1      27.869 -14.868   5.327  0.00  0.00     0.139 C 
ATOM     17  C13 NON d   1      27.718 -14.219   3.922  0.00  0.00     0.221 C 
ATOM     18  O2  NON d   1      26.655 -13.701   3.613  0.00  0.00    -0.274 OA
ATOM     19  N2  NON d   1      28.861 -14.125   3.134  0.00  0.00    -0.347 N 
ATOM     20  C14 NON d   1      29.014 -13.173   1.989  0.00  0.00     0.180 C 
ATOM     21  C18 NON d   1      30.520 -12.655   1.764  0.00  0.00     0.241 C 
ATOM     22  O3  NON d   1      31.095 -12.958   0.704  0.00  0.00    -0.271 OA
ATOM     23  N3  NON d   1      31.308 -11.828   2.503  0.00  0.00    -0.345 N 
ATOM     24  O4  NON d   1      28.905 -14.450   7.566  0.00  0.00    -0.310 OA
ATOM     25  C19 NON d   1      29.324 -13.598   8.527  0.00  0.00     0.282 C 
ATOM     26  O5  NON d   1      28.629 -13.558   9.543  0.00  0.00    -0.263 OA
ATOM     27  C20 NON d   1      30.635 -12.725   8.443  0.00  0.00     0.188 C 
ATOM     28  N4  NON d   1      31.663 -12.584   7.348  0.00  0.00    -0.342 N 
ATOM     29  C24 NON d   1      32.197 -11.306   7.170  0.00  0.00     0.268 C 
ATOM     30  O6  NON d   1      31.639 -10.298   7.608  0.00  0.00    -0.266 OA
ATOM     31  H5  NON d   1      34.897 -11.551   5.043  0.00  0.00     0.169 HD
ATOM     32  H18 NON d   1      29.556 -14.855   3.207  0.00  0.00     0.163 HD
ATOM     33  H27 NON d   1      32.129 -11.687   1.913  0.00  0.00     0.163 HD
ATOM     34  H36 NON d   1      32.255 -13.377   7.141  0.00  0.00     0.163 HD
ENDROOT
BRANCH  20  35
ATOM     35  C15 NON d   1      28.409 -13.816   0.659  0.00  0.00     0.009 C 
ATOM     36  C16 NON d   1      26.910 -13.537   0.429  0.00  0.00     0.012 C 
ATOM     37  C17 NON d   1      28.561 -15.348   0.605  0.00  0.00     0.012 C 
ENDBRANCH  20  35
BRANCH  27  38
ATOM     38  C21 NON d   1      31.430 -12.855   9.796  0.00  0.00     0.010 C 
ATOM     39  C22 NON d   1      31.642 -14.304  10.253  0.00  0.00     0.012 C 
ATOM     40  C23 NON d   1      30.812 -12.003  10.918  0.00  0.00     0.012 C 
ENDBRANCH  27  38
TORSDOF 2
ENDMDL
MODEL 9
REMARK VINA RESULT:    -5.980      2.844      6.888
REMARK INTER + INTRA:          -7.097
REMARK INTER:                  -6.576
REMARK INTRA:                  -0.521
REMARK CONF_INDEPENDENT:        0.597
REMARK UNBOUND:                -0.521
REMARK  2 active torsions:
REMARK  status: ('A' for Active; 'I' for Inactive)
REMARK    1  A    between atoms: C14_20  and  C15_21 
REMARK    2  A    between atoms: C20_30  and  C21_31 
ROOT
ATOM      1  C1  NON d   1      31.581 -17.339  -6.322  0.00  0.00     0.038 C 
ATOM      2  C2  NON d   1      30.710 -16.177  -6.714  0.00  0.00     0.004 C 
ATOM      3  C3  NON d   1      30.360 -15.094  -5.979  0.00  0.00     0.099 C 
ATOM      4  N1  NON d   1      30.955 -14.884  -4.751  0.00  0.00    -0.321 N 
ATOM      5  C4  NON d   1      30.515 -14.462  -3.524  0.00  0.00     0.245 C 
ATOM      6  O1  NON d   1      31.341 -14.492  -2.606  0.00  0.00    -0.271 OA
ATOM      7  C5  NON d   1      29.059 -14.001  -3.253  0.00  0.00     0.187 C 
ATOM      8  C6  NON d   1      28.093 -15.137  -3.657  0.00  0.00     0.120 C 
ATOM      9  S1  NON d   1      27.089 -16.074  -2.453  0.00  0.00    -0.095 SA
ATOM     10  S2  NON d   1      25.347 -15.015  -2.148  0.00  0.00    -0.097 SA
ATOM     11  C7  NON d   1      24.960 -14.212  -3.761  0.00  0.00     0.090 C 
ATOM     12  C8  NON d   1      25.661 -12.869  -3.711  0.00  0.00     0.038 C 
ATOM     13  C9  NON d   1      26.091 -12.167  -4.975  0.00  0.00    -0.027 C 
ATOM     14  C10 NON d   1      27.313 -11.621  -4.939  0.00  0.00     0.002 C 
ATOM     15  C11 NON d   1      27.755 -10.280  -5.390  0.00  0.00     0.163 C 
ATOM     16  C12 NON d   1      26.990  -9.261  -4.490  0.00  0.00     0.139 C 
ATOM     17  C13 NON d   1      26.687  -9.786  -3.058  0.00  0.00     0.221 C 
ATOM     18  O2  NON d   1      25.534  -9.789  -2.653  0.00  0.00    -0.274 OA
ATOM     19  N2  NON d   1      27.736 -10.373  -2.356  0.00  0.00    -0.347 N 
ATOM     20  C14 NON d   1      27.552 -11.302  -1.197  0.00  0.00     0.180 C 
ATOM     21  C18 NON d   1      28.695 -12.425  -1.070  0.00  0.00     0.241 C 
ATOM     22  O3  NON d   1      29.429 -12.410  -0.067  0.00  0.00    -0.271 OA
ATOM     23  N3  NON d   1      28.982 -13.510  -1.840  0.00  0.00    -0.345 N 
ATOM     24  O4  NON d   1      27.553 -10.079  -6.787  0.00  0.00    -0.310 OA
ATOM     25  C19 NON d   1      27.480 -11.024  -7.750  0.00  0.00     0.282 C 
ATOM     26  O5  NON d   1      26.756 -10.752  -8.708  0.00  0.00    -0.263 OA
ATOM     27  C20 NON d   1      28.281 -12.381  -7.737  0.00  0.00     0.188 C 
ATOM     28  N4  NON d   1      29.231 -12.963  -6.720  0.00  0.00    -0.342 N 
ATOM     29  C24 NON d   1      29.169 -14.346  -6.543  0.00  0.00     0.268 C 
ATOM     30  O6  NON d   1      28.194 -15.007  -6.905  0.00  0.00    -0.266 OA
ATOM     31  H5  NON d   1      31.870 -15.314  -4.635  0.00  0.00     0.169 HD
ATOM     32  H18 NON d   1      28.670 -10.020  -2.505  0.00  0.00     0.163 HD
ATOM     33  H27 NON d   1      29.704 -13.999  -1.310  0.00  0.00     0.163 HD
ATOM     34  H36 NON d   1      30.125 -12.508  -6.583  0.00  0.00     0.163 HD
ENDROOT
BRANCH  20  35
ATOM     35  C15 NON d   1      27.398 -10.466   0.155  0.00  0.00     0.009 C 
ATOM     36  C16 NON d   1      28.639  -9.638   0.549  0.00  0.00     0.012 C 
ATOM     37  C17 NON d   1      27.082 -11.347   1.378  0.00  0.00     0.012 C 
ENDBRANCH  20  35
BRANCH  27  38
ATOM     38  C21 NON d   1      28.940 -12.605  -9.151  0.00  0.00     0.010 C 
ATOM     39  C22 NON d   1      30.019 -11.573  -9.501  0.00  0.00     0.012 C 
ATOM     40  C23 NON d   1      27.891 -12.716 -10.270  0.00  0.00     0.012 C 
ENDBRANCH  27  38
TORSDOF 2
ENDMDL
