MODEL 1
REMARK VINA RESULT:   -10.209      0.000      0.000
REMARK INTER + INTRA:         -15.110
REMARK INTER:                 -13.491
REMARK INTRA:                  -1.619
REMARK CONF_INDEPENDENT:        3.281
REMARK UNBOUND:                -1.619
REMARK  11 active torsions:
REMARK  status: ('A' for Active; 'I' for Inactive)
REMARK    1  A    between atoms: C2_2  and  C3_4 
REMARK    2  A    between atoms: C3_4  and  C4_5 
REMARK    3  A    between atoms: C4_5  and  C5_6 
REMARK    4  A    between atoms: C5_6  and  C6_7 
REMARK    5  A    between atoms: C6_7  and  C7_8 
REMARK    6  A    between atoms: C8_9  and  C7_8 
REMARK    7  A    between atoms: C8_9  and  N1_10 
REMARK    8  A    between atoms: C8_9  and  C15_18 
REMARK    9  A    between atoms: N1_10  and  C9_11 
REMARK       I    between atoms: C15_18  and  N3_20 
REMARK   10  A    between atoms: N3_20  and  C16_21 
REMARK   11  A    between atoms: C17_23  and  C18_24 
ROOT
ATOM      1  C8  NON d   1      27.506 -17.042  -0.189  0.00  0.00     0.314 C 
ENDROOT
BRANCH   1   2
ATOM      2  C7  NON d   1      26.664 -18.270   0.244  0.00  0.00     0.045 C 
BRANCH   2   3
ATOM      3  C6  NON d   1      25.169 -17.934   0.475  0.00  0.00     0.003 C 
BRANCH   3   4
ATOM      4  C5  NON d   1      24.395 -17.846  -0.846  0.00  0.00     0.000 C 
BRANCH   4   5
ATOM      5  C4  NON d   1      23.263 -18.873  -1.007  0.00  0.00     0.007 C 
BRANCH   5   6
ATOM      6  C3  NON d   1      21.892 -18.385  -0.538  0.00  0.00     0.077 C 
BRANCH   6   7
ATOM      7  C2  NON d   1      20.741 -19.317  -0.874  0.00  0.00     0.123 C 
ATOM      8  C1  NON d   1      19.824 -19.694   0.261  0.00  0.00     0.091 C 
ATOM      9  O1  NON d   1      20.509 -19.699  -2.020  0.00  0.00    -0.298 OA
ENDBRANCH   6   7
ENDBRANCH   5   6
ENDBRANCH   4   5
ENDBRANCH   3   4
ENDBRANCH   2   3
ENDBRANCH   1   2
BRANCH   1  10
ATOM     10  N1  NON d   1      28.980 -17.201   0.025  0.00  0.00     0.119 N 
ATOM     11  H15 NON d   1      29.161 -18.186   0.209  0.00  0.00     0.319 HD
BRANCH  10  12
ATOM     12  C9  NON d   1      29.770 -16.823  -1.149  0.00  0.00     0.318 C 
ATOM     13  C10 NON d   1      28.938 -16.704  -2.452  0.00  0.00     0.057 C 
ATOM     14  C11 NON d   1      28.503 -15.319  -2.914  0.00  0.00     0.006 C 
ATOM     15  C12 NON d   1      28.775 -14.206  -1.929  0.00  0.00     0.020 C 
ATOM     16  C13 NON d   1      30.128 -14.320  -1.249  0.00  0.00     0.118 C 
ATOM     17  N2  NON d   1      30.558 -15.648  -0.852  0.00  0.00    -0.389 N 
ATOM     18  C14 NON d   1      31.431 -15.656   0.307  0.00  0.00     0.145 C 
ENDBRANCH  10  12
ENDBRANCH   1  10
BRANCH   1  19
ATOM     19  C15 NON d   1      27.041 -15.773   0.588  0.00  0.00     0.257 C 
ATOM     20  O2  NON d   1      26.161 -15.045   0.140  0.00  0.00    -0.271 OA
ATOM     21  N3  NON d   1      27.801 -15.559   1.722  0.00  0.00    -0.304 N 
ATOM     22  H28 NON d   1      28.514 -16.255   1.912  0.00  0.00     0.171 HD
BRANCH  21  23
ATOM     23  C16 NON d   1      27.776 -14.482   2.562  0.00  0.00     0.173 A 
ATOM     24  N4  NON d   1      28.055 -14.587   3.844  0.00  0.00    -0.223 NA
ATOM     25  C17 NON d   1      28.016 -13.325   4.441  0.00  0.00     0.076 A 
ATOM     26  C24 NON d   1      27.629 -12.312   3.575  0.00  0.00     0.085 A 
ATOM     27  S1  NON d   1      27.358 -12.928   2.013  0.00  0.00    -0.061 SA
BRANCH  25  28
ATOM     28  C18 NON d   1      28.415 -13.113   5.834  0.00  0.00    -0.007 A 
ATOM     29  C19 NON d   1      28.203 -11.871   6.450  0.00  0.00     0.014 A 
ATOM     30  C20 NON d   1      28.517 -11.674   7.800  0.00  0.00     0.001 A 
ATOM     31  C21 NON d   1      29.054 -12.715   8.555  0.00  0.00     0.000 A 
ATOM     32  C22 NON d   1      29.289 -13.947   7.959  0.00  0.00     0.001 A 
ATOM     33  C23 NON d   1      28.979 -14.144   6.608  0.00  0.00     0.014 A 
ENDBRANCH  25  28
ENDBRANCH  21  23
ENDBRANCH   1  19
TORSDOF 11
ENDMDL
MODEL 2
REMARK VINA RESULT:    -9.938      2.693      8.095
REMARK INTER + INTRA:         -14.723
REMARK INTER:                 -13.220
REMARK INTRA:                  -1.503
REMARK CONF_INDEPENDENT:        3.281
REMARK UNBOUND:                -1.503
REMARK  11 active torsions:
REMARK  status: ('A' for Active; 'I' for Inactive)
REMARK    1  A    between atoms: C2_2  and  C3_4 
REMARK    2  A    between atoms: C3_4  and  C4_5 
REMARK    3  A    between atoms: C4_5  and  C5_6 
REMARK    4  A    between atoms: C5_6  and  C6_7 
REMARK    5  A    between atoms: C6_7  and  C7_8 
REMARK    6  A    between atoms: C8_9  and  C7_8 
REMARK    7  A    between atoms: C8_9  and  N1_10 
REMARK    8  A    between atoms: C8_9  and  C15_18 
REMARK    9  A    between atoms: N1_10  and  C9_11 
REMARK       I    between atoms: C15_18  and  N3_20 
REMARK   10  A    between atoms: N3_20  and  C16_21 
REMARK   11  A    between atoms: C17_23  and  C18_24 
ROOT
ATOM      1  C8  NON d   1      27.202 -15.049   0.654  0.00  0.00     0.314 C 
ENDROOT
BRANCH   1   2
ATOM      2  C7  NON d   1      28.071 -14.522  -0.517  0.00  0.00     0.045 C 
BRANCH   2   3
ATOM      3  C6  NON d   1      27.452 -14.801  -1.910  0.00  0.00     0.003 C 
BRANCH   3   4
ATOM      4  C5  NON d   1      26.054 -14.187  -2.044  0.00  0.00     0.000 C 
BRANCH   4   5
ATOM      5  C4  NON d   1      25.630 -13.841  -3.480  0.00  0.00     0.007 C 
BRANCH   5   6
ATOM      6  C3  NON d   1      26.791 -13.599  -4.445  0.00  0.00     0.077 C 
BRANCH   6   7
ATOM      7  C2  NON d   1      27.090 -14.759  -5.378  0.00  0.00     0.123 C 
ATOM      8  C1  NON d   1      28.529 -14.944  -5.786  0.00  0.00     0.091 C 
ATOM      9  O1  NON d   1      26.229 -15.559  -5.740  0.00  0.00    -0.298 OA
ENDBRANCH   6   7
ENDBRANCH   5   6
ENDBRANCH   4   5
ENDBRANCH   3   4
ENDBRANCH   2   3
ENDBRANCH   1   2
BRANCH   1  10
ATOM     10  N1  NON d   1      27.958 -15.279   1.926  0.00  0.00     0.119 N 
ATOM     11  H15 NON d   1      28.829 -15.750   1.687  0.00  0.00     0.319 HD
BRANCH  10  12
ATOM     12  C9  NON d   1      28.308 -14.034   2.615  0.00  0.00     0.318 C 
ATOM     13  C10 NON d   1      27.331 -13.655   3.758  0.00  0.00     0.057 C 
ATOM     14  C11 NON d   1      27.728 -13.979   5.193  0.00  0.00     0.006 C 
ATOM     15  C12 NON d   1      28.974 -14.823   5.332  0.00  0.00     0.020 C 
ATOM     16  C13 NON d   1      30.084 -14.424   4.375  0.00  0.00     0.118 C 
ATOM     17  N2  NON d   1      29.694 -14.072   3.022  0.00  0.00    -0.389 N 
ATOM     18  C14 NON d   1      30.715 -14.351   2.030  0.00  0.00     0.145 C 
ENDBRANCH  10  12
ENDBRANCH   1  10
BRANCH   1  19
ATOM     19  C15 NON d   1      26.516 -16.389   0.251  0.00  0.00     0.257 C 
ATOM     20  O2  NON d   1      27.177 -17.408   0.072  0.00  0.00    -0.271 OA
ATOM     21  N3  NON d   1      25.161 -16.228   0.037  0.00  0.00    -0.304 N 
ATOM     22  H28 NON d   1      24.797 -15.295   0.201  0.00  0.00     0.171 HD
BRANCH  21  23
ATOM     23  C16 NON d   1      24.272 -17.139  -0.458  0.00  0.00     0.173 A 
ATOM     24  N4  NON d   1      23.276 -17.610   0.263  0.00  0.00    -0.223 NA
ATOM     25  C17 NON d   1      22.495 -18.468  -0.514  0.00  0.00     0.076 A 
ATOM     26  C24 NON d   1      22.991 -18.666  -1.794  0.00  0.00     0.085 A 
ATOM     27  S1  NON d   1      24.402 -17.749  -2.040  0.00  0.00    -0.061 SA
BRANCH  25  28
ATOM     28  C18 NON d   1      21.241 -19.039  -0.017  0.00  0.00    -0.007 A 
ATOM     29  C19 NON d   1      20.244 -19.448  -0.915  0.00  0.00     0.014 A 
ATOM     30  C20 NON d   1      19.069 -20.056  -0.458  0.00  0.00     0.001 A 
ATOM     31  C21 NON d   1      18.869 -20.260   0.906  0.00  0.00     0.000 A 
ATOM     32  C22 NON d   1      19.836 -19.845   1.813  0.00  0.00     0.001 A 
ATOM     33  C23 NON d   1      21.009 -19.234   1.358  0.00  0.00     0.014 A 
ENDBRANCH  25  28
ENDBRANCH  21  23
ENDBRANCH   1  19
TORSDOF 11
ENDMDL
MODEL 3
REMARK VINA RESULT:    -9.915      1.055      2.004
REMARK INTER + INTRA:         -14.445
REMARK INTER:                 -13.197
REMARK INTRA:                  -1.248
REMARK CONF_INDEPENDENT:        3.281
REMARK UNBOUND:                -1.248
REMARK  11 active torsions:
REMARK  status: ('A' for Active; 'I' for Inactive)
REMARK    1  A    between atoms: C2_2  and  C3_4 
REMARK    2  A    between atoms: C3_4  and  C4_5 
REMARK    3  A    between atoms: C4_5  and  C5_6 
REMARK    4  A    between atoms: C5_6  and  C6_7 
REMARK    5  A    between atoms: C6_7  and  C7_8 
REMARK    6  A    between atoms: C8_9  and  C7_8 
REMARK    7  A    between atoms: C8_9  and  N1_10 
REMARK    8  A    between atoms: C8_9  and  C15_18 
REMARK    9  A    between atoms: N1_10  and  C9_11 
REMARK       I    between atoms: C15_18  and  N3_20 
REMARK   10  A    between atoms: N3_20  and  C16_21 
REMARK   11  A    between atoms: C17_23  and  C18_24 
ROOT
ATOM      1  C8  NON d   1      27.884 -16.719  -0.402  0.00  0.00     0.314 C 
ENDROOT
BRANCH   1   2
ATOM      2  C7  NON d   1      26.764 -17.791  -0.363  0.00  0.00     0.045 C 
BRANCH   2   3
ATOM      3  C6  NON d   1      25.356 -17.193  -0.115  0.00  0.00     0.003 C 
BRANCH   3   4
ATOM      4  C5  NON d   1      24.298 -17.834  -1.020  0.00  0.00     0.000 C 
BRANCH   4   5
ATOM      5  C4  NON d   1      23.198 -18.615  -0.284  0.00  0.00     0.007 C 
BRANCH   5   6
ATOM      6  C3  NON d   1      21.773 -18.178  -0.626  0.00  0.00     0.077 C 
BRANCH   6   7
ATOM      7  C2  NON d   1      20.768 -19.313  -0.711  0.00  0.00     0.123 C 
ATOM      8  C1  NON d   1      20.303 -19.902   0.597  0.00  0.00     0.091 C 
ATOM      9  O1  NON d   1      20.291 -19.701  -1.776  0.00  0.00    -0.298 OA
ENDBRANCH   6   7
ENDBRANCH   5   6
ENDBRANCH   4   5
ENDBRANCH   3   4
ENDBRANCH   2   3
ENDBRANCH   1   2
BRANCH   1  10
ATOM     10  N1  NON d   1      29.179 -17.161   0.208  0.00  0.00     0.119 N 
ATOM     11  H15 NON d   1      29.276 -18.160   0.038  0.00  0.00     0.319 HD
BRANCH  10  12
ATOM     12  C9  NON d   1      30.344 -16.500  -0.386  0.00  0.00     0.318 C 
ATOM     13  C10 NON d   1      30.488 -15.009   0.013  0.00  0.00     0.057 C 
ATOM     14  C11 NON d   1      31.468 -14.643   1.122  0.00  0.00     0.006 C 
ATOM     15  C12 NON d   1      32.065 -15.822   1.856  0.00  0.00     0.020 C 
ATOM     16  C13 NON d   1      32.446 -16.972   0.941  0.00  0.00     0.118 C 
ATOM     17  N2  NON d   1      31.531 -17.287  -0.141  0.00  0.00    -0.389 N 
ATOM     18  C14 NON d   1      31.547 -18.684  -0.531  0.00  0.00     0.145 C 
ENDBRANCH  10  12
ENDBRANCH   1  10
BRANCH   1  19
ATOM     19  C15 NON d   1      27.418 -15.430   0.339  0.00  0.00     0.257 C 
ATOM     20  O2  NON d   1      26.795 -14.552  -0.252  0.00  0.00    -0.271 OA
ATOM     21  N3  NON d   1      27.881 -15.390   1.640  0.00  0.00    -0.304 N 
ATOM     22  H28 NON d   1      28.415 -16.198   1.941  0.00  0.00     0.171 HD
BRANCH  21  23
ATOM     23  C16 NON d   1      27.792 -14.361   2.534  0.00  0.00     0.173 A 
ATOM     24  N4  NON d   1      28.051 -14.523   3.815  0.00  0.00    -0.223 NA
ATOM     25  C17 NON d   1      27.945 -13.297   4.476  0.00  0.00     0.076 A 
ATOM     26  C24 NON d   1      27.529 -12.257   3.657  0.00  0.00     0.085 A 
ATOM     27  S1  NON d   1      27.316 -12.800   2.059  0.00  0.00    -0.061 SA
BRANCH  25  28
ATOM     28  C18 NON d   1      28.307 -13.143   5.887  0.00  0.00    -0.007 A 
ATOM     29  C19 NON d   1      28.913 -14.200   6.582  0.00  0.00     0.014 A 
ATOM     30  C20 NON d   1      29.326 -14.045   7.910  0.00  0.00     0.001 A 
ATOM     31  C21 NON d   1      29.136 -12.831   8.567  0.00  0.00     0.000 A 
ATOM     32  C22 NON d   1      28.521 -11.777   7.903  0.00  0.00     0.001 A 
ATOM     33  C23 NON d   1      28.104 -11.932   6.576  0.00  0.00     0.014 A 
ENDBRANCH  25  28
ENDBRANCH  21  23
ENDBRANCH   1  19
TORSDOF 11
ENDMDL
MODEL 4
REMARK VINA RESULT:    -9.833      2.950      7.246
REMARK INTER + INTRA:         -14.657
REMARK INTER:                 -13.114
REMARK INTRA:                  -1.543
REMARK CONF_INDEPENDENT:        3.281
REMARK UNBOUND:                -1.543
REMARK  11 active torsions:
REMARK  status: ('A' for Active; 'I' for Inactive)
REMARK    1  A    between atoms: C2_2  and  C3_4 
REMARK    2  A    between atoms: C3_4  and  C4_5 
REMARK    3  A    between atoms: C4_5  and  C5_6 
REMARK    4  A    between atoms: C5_6  and  C6_7 
REMARK    5  A    between atoms: C6_7  and  C7_8 
REMARK    6  A    between atoms: C8_9  and  C7_8 
REMARK    7  A    between atoms: C8_9  and  N1_10 
REMARK    8  A    between atoms: C8_9  and  C15_18 
REMARK    9  A    between atoms: N1_10  and  C9_11 
REMARK       I    between atoms: C15_18  and  N3_20 
REMARK   10  A    between atoms: N3_20  and  C16_21 
REMARK   11  A    between atoms: C17_23  and  C18_24 
ROOT
ATOM      1  C8  NON d   1      27.788 -17.374  -0.128  0.00  0.00     0.314 C 
ENDROOT
BRANCH   1   2
ATOM      2  C7  NON d   1      26.599 -18.368  -0.145  0.00  0.00     0.045 C 
BRANCH   2   3
ATOM      3  C6  NON d   1      25.337 -17.822   0.567  0.00  0.00     0.003 C 
BRANCH   3   4
ATOM      4  C5  NON d   1      24.209 -17.520  -0.426  0.00  0.00     0.000 C 
BRANCH   4   5
ATOM      5  C4  NON d   1      23.191 -18.655  -0.620  0.00  0.00     0.007 C 
BRANCH   5   6
ATOM      6  C3  NON d   1      21.732 -18.198  -0.668  0.00  0.00     0.077 C 
BRANCH   6   7
ATOM      7  C2  NON d   1      20.719 -19.326  -0.747  0.00  0.00     0.123 C 
ATOM      8  C1  NON d   1      20.202 -19.861   0.564  0.00  0.00     0.091 C 
ATOM      9  O1  NON d   1      20.277 -19.749  -1.813  0.00  0.00    -0.298 OA
ENDBRANCH   6   7
ENDBRANCH   5   6
ENDBRANCH   4   5
ENDBRANCH   3   4
ENDBRANCH   2   3
ENDBRANCH   1   2
BRANCH   1  10
ATOM     10  N1  NON d   1      27.762 -16.404   1.014  0.00  0.00     0.119 N 
ATOM     11  H15 NON d   1      28.542 -16.629   1.629  0.00  0.00     0.319 HD
BRANCH  10  12
ATOM     12  C9  NON d   1      27.929 -15.013   0.585  0.00  0.00     0.318 C 
ATOM     13  C10 NON d   1      26.670 -14.135   0.802  0.00  0.00     0.057 C 
ATOM     14  C11 NON d   1      26.617 -13.229   2.027  0.00  0.00     0.006 C 
ATOM     15  C12 NON d   1      27.741 -13.433   3.017  0.00  0.00     0.020 C 
ATOM     16  C13 NON d   1      29.094 -13.636   2.359  0.00  0.00     0.118 C 
ATOM     17  N2  NON d   1      29.132 -14.462   1.167  0.00  0.00    -0.389 N 
ATOM     18  C14 NON d   1      30.392 -15.156   0.977  0.00  0.00     0.145 C 
ENDBRANCH  10  12
ENDBRANCH   1  10
BRANCH   1  19
ATOM     19  C15 NON d   1      27.822 -16.555  -1.454  0.00  0.00     0.257 C 
ATOM     20  O2  NON d   1      28.873 -16.381  -2.062  0.00  0.00    -0.271 OA
ATOM     21  N3  NON d   1      26.588 -16.008  -1.750  0.00  0.00    -0.304 N 
ATOM     22  H28 NON d   1      25.840 -16.235  -1.104  0.00  0.00     0.171 HD
BRANCH  21  23
ATOM     23  C16 NON d   1      26.276 -15.125  -2.744  0.00  0.00     0.173 A 
ATOM     24  N4  NON d   1      27.169 -14.709  -3.618  0.00  0.00    -0.223 NA
ATOM     25  C17 NON d   1      26.559 -13.870  -4.553  0.00  0.00     0.076 A 
ATOM     26  C24 NON d   1      25.218 -13.628  -4.293  0.00  0.00     0.085 A 
ATOM     27  S1  NON d   1      24.711 -14.481  -2.911  0.00  0.00    -0.061 SA
BRANCH  25  28
ATOM     28  C18 NON d   1      27.277 -13.361  -5.724  0.00  0.00    -0.007 A 
ATOM     29  C19 NON d   1      27.035 -12.062  -6.195  0.00  0.00     0.014 A 
ATOM     30  C20 NON d   1      27.762 -11.539  -7.270  0.00  0.00     0.001 A 
ATOM     31  C21 NON d   1      28.741 -12.309  -7.896  0.00  0.00     0.000 A 
ATOM     32  C22 NON d   1      28.984 -13.604  -7.457  0.00  0.00     0.001 A 
ATOM     33  C23 NON d   1      28.255 -14.129  -6.384  0.00  0.00     0.014 A 
ENDBRANCH  25  28
ENDBRANCH  21  23
ENDBRANCH   1  19
TORSDOF 11
ENDMDL
MODEL 5
REMARK VINA RESULT:    -9.832      3.207      6.393
REMARK INTER + INTRA:         -14.681
REMARK INTER:                 -13.113
REMARK INTRA:                  -1.568
REMARK CONF_INDEPENDENT:        3.281
REMARK UNBOUND:                -1.568
REMARK  11 active torsions:
REMARK  status: ('A' for Active; 'I' for Inactive)
REMARK    1  A    between atoms: C2_2  and  C3_4 
REMARK    2  A    between atoms: C3_4  and  C4_5 
REMARK    3  A    between atoms: C4_5  and  C5_6 
REMARK    4  A    between atoms: C5_6  and  C6_7 
REMARK    5  A    between atoms: C6_7  and  C7_8 
REMARK    6  A    between atoms: C8_9  and  C7_8 
REMARK    7  A    between atoms: C8_9  and  N1_10 
REMARK    8  A    between atoms: C8_9  and  C15_18 
REMARK    9  A    between atoms: N1_10  and  C9_11 
REMARK       I    between atoms: C15_18  and  N3_20 
REMARK   10  A    between atoms: N3_20  and  C16_21 
REMARK   11  A    between atoms: C17_23  and  C18_24 
ROOT
ATOM      1  C8  NON d   1      27.799 -17.349  -0.091  0.00  0.00     0.314 C 
ENDROOT
BRANCH   1   2
ATOM      2  C7  NON d   1      26.656 -18.397  -0.089  0.00  0.00     0.045 C 
BRANCH   2   3
ATOM      3  C6  NON d   1      25.306 -17.825   0.413  0.00  0.00     0.003 C 
BRANCH   3   4
ATOM      4  C5  NON d   1      24.289 -17.687  -0.725  0.00  0.00     0.000 C 
BRANCH   4   5
ATOM      5  C4  NON d   1      23.189 -18.759  -0.750  0.00  0.00     0.007 C 
BRANCH   5   6
ATOM      6  C3  NON d   1      21.763 -18.207  -0.784  0.00  0.00     0.077 C 
BRANCH   6   7
ATOM      7  C2  NON d   1      20.678 -19.263  -0.891  0.00  0.00     0.123 C 
ATOM      8  C1  NON d   1      20.035 -19.704   0.400  0.00  0.00     0.091 C 
ATOM      9  O1  NON d   1      20.280 -19.700  -1.969  0.00  0.00    -0.298 OA
ENDBRANCH   6   7
ENDBRANCH   5   6
ENDBRANCH   4   5
ENDBRANCH   3   4
ENDBRANCH   2   3
ENDBRANCH   1   2
BRANCH   1  10
ATOM     10  N1  NON d   1      27.729 -16.361   1.034  0.00  0.00     0.119 N 
ATOM     11  H15 NON d   1      28.474 -16.586   1.690  0.00  0.00     0.319 HD
BRANCH  10  12
ATOM     12  C9  NON d   1      27.937 -14.980   0.592  0.00  0.00     0.318 C 
ATOM     13  C10 NON d   1      26.709 -14.059   0.815  0.00  0.00     0.057 C 
ATOM     14  C11 NON d   1      26.697 -13.144   2.034  0.00  0.00     0.006 C 
ATOM     15  C12 NON d   1      27.823 -13.376   3.014  0.00  0.00     0.020 C 
ATOM     16  C13 NON d   1      29.163 -13.628   2.345  0.00  0.00     0.118 C 
ATOM     17  N2  NON d   1      29.162 -14.463   1.159  0.00  0.00    -0.389 N 
ATOM     18  C14 NON d   1      30.397 -15.199   0.962  0.00  0.00     0.145 C 
ENDBRANCH  10  12
ENDBRANCH   1  10
BRANCH   1  19
ATOM     19  C15 NON d   1      27.795 -16.554  -1.431  0.00  0.00     0.257 C 
ATOM     20  O2  NON d   1      28.814 -16.451  -2.107  0.00  0.00    -0.271 OA
ATOM     21  N3  NON d   1      26.579 -15.939  -1.659  0.00  0.00    -0.304 N 
ATOM     22  H28 NON d   1      25.861 -16.111  -0.963  0.00  0.00     0.171 HD
BRANCH  21  23
ATOM     23  C16 NON d   1      26.255 -15.054  -2.648  0.00  0.00     0.173 A 
ATOM     24  N4  NON d   1      26.308 -13.751  -2.467  0.00  0.00    -0.223 NA
ATOM     25  C17 NON d   1      25.990 -13.095  -3.659  0.00  0.00     0.076 A 
ATOM     26  C24 NON d   1      25.632 -13.954  -4.688  0.00  0.00     0.085 A 
ATOM     27  S1  NON d   1      25.737 -15.575  -4.181  0.00  0.00    -0.061 SA
BRANCH  25  28
ATOM     28  C18 NON d   1      26.096 -11.641  -3.796  0.00  0.00    -0.007 A 
ATOM     29  C19 NON d   1      25.905 -11.032  -5.045  0.00  0.00     0.014 A 
ATOM     30  C20 NON d   1      25.937  -9.639  -5.179  0.00  0.00     0.001 A 
ATOM     31  C21 NON d   1      26.165  -8.832  -4.066  0.00  0.00     0.000 A 
ATOM     32  C22 NON d   1      26.375  -9.416  -2.823  0.00  0.00     0.001 A 
ATOM     33  C23 NON d   1      26.347 -10.809  -2.689  0.00  0.00     0.014 A 
ENDBRANCH  25  28
ENDBRANCH  21  23
ENDBRANCH   1  19
TORSDOF 11
ENDMDL
MODEL 6
REMARK VINA RESULT:    -9.422      1.613      2.797
REMARK INTER + INTRA:         -14.395
REMARK INTER:                 -12.703
REMARK INTRA:                  -1.692
REMARK CONF_INDEPENDENT:        3.281
REMARK UNBOUND:                -1.692
REMARK  11 active torsions:
REMARK  status: ('A' for Active; 'I' for Inactive)
REMARK    1  A    between atoms: C2_2  and  C3_4 
REMARK    2  A    between atoms: C3_4  and  C4_5 
REMARK    3  A    between atoms: C4_5  and  C5_6 
REMARK    4  A    between atoms: C5_6  and  C6_7 
REMARK    5  A    between atoms: C6_7  and  C7_8 
REMARK    6  A    between atoms: C8_9  and  C7_8 
REMARK    7  A    between atoms: C8_9  and  N1_10 
REMARK    8  A    between atoms: C8_9  and  C15_18 
REMARK    9  A    between atoms: N1_10  and  C9_11 
REMARK       I    between atoms: C15_18  and  N3_20 
REMARK   10  A    between atoms: N3_20  and  C16_21 
REMARK   11  A    between atoms: C17_23  and  C18_24 
ROOT
ATOM      1  C8  NON d   1      27.448 -16.999  -0.127  0.00  0.00     0.314 C 
ENDROOT
BRANCH   1   2
ATOM      2  C7  NON d   1      26.482 -18.152   0.249  0.00  0.00     0.045 C 
BRANCH   2   3
ATOM      3  C6  NON d   1      24.991 -17.729   0.230  0.00  0.00     0.003 C 
BRANCH   3   4
ATOM      4  C5  NON d   1      24.391 -17.825  -1.178  0.00  0.00     0.000 C 
BRANCH   4   5
ATOM      5  C4  NON d   1      23.160 -18.737  -1.301  0.00  0.00     0.007 C 
BRANCH   5   6
ATOM      6  C3  NON d   1      22.032 -18.417  -0.319  0.00  0.00     0.077 C 
BRANCH   6   7
ATOM      7  C2  NON d   1      20.822 -19.327  -0.430  0.00  0.00     0.123 C 
ATOM      8  C1  NON d   1      20.136 -19.697   0.861  0.00  0.00     0.091 C 
ATOM      9  O1  NON d   1      20.366 -19.697  -1.510  0.00  0.00    -0.298 OA
ENDBRANCH   6   7
ENDBRANCH   5   6
ENDBRANCH   4   5
ENDBRANCH   3   4
ENDBRANCH   2   3
ENDBRANCH   1   2
BRANCH   1  10
ATOM     10  N1  NON d   1      28.888 -17.281   0.174  0.00  0.00     0.119 N 
ATOM     11  H15 NON d   1      28.998 -18.291   0.238  0.00  0.00     0.319 HD
BRANCH  10  12
ATOM     12  C9  NON d   1      29.793 -16.808  -0.876  0.00  0.00     0.318 C 
ATOM     13  C10 NON d   1      29.248 -17.016  -2.313  0.00  0.00     0.057 C 
ATOM     14  C11 NON d   1      28.602 -15.834  -3.025  0.00  0.00     0.006 C 
ATOM     15  C12 NON d   1      28.389 -14.612  -2.162  0.00  0.00     0.020 C 
ATOM     16  C13 NON d   1      29.557 -14.314  -1.238  0.00  0.00     0.118 C 
ATOM     17  N2  NON d   1      30.197 -15.448  -0.597  0.00  0.00    -0.389 N 
ATOM     18  C14 NON d   1      30.785 -15.135   0.691  0.00  0.00     0.145 C 
ENDBRANCH  10  12
ENDBRANCH   1  10
BRANCH   1  19
ATOM     19  C15 NON d   1      27.045 -15.695   0.626  0.00  0.00     0.257 C 
ATOM     20  O2  NON d   1      26.239 -14.908   0.139  0.00  0.00    -0.271 OA
ATOM     21  N3  NON d   1      27.770 -15.530   1.790  0.00  0.00    -0.304 N 
ATOM     22  H28 NON d   1      28.422 -16.275   2.012  0.00  0.00     0.171 HD
BRANCH  21  23
ATOM     23  C16 NON d   1      27.789 -14.449   2.624  0.00  0.00     0.173 A 
ATOM     24  N4  NON d   1      27.560 -13.227   2.192  0.00  0.00    -0.223 NA
ATOM     25  C17 NON d   1      27.577 -12.335   3.267  0.00  0.00     0.076 A 
ATOM     26  C24 NON d   1      27.898 -12.929   4.478  0.00  0.00     0.085 A 
ATOM     27  S1  NON d   1      28.133 -14.603   4.282  0.00  0.00    -0.061 SA
BRANCH  25  28
ATOM     28  C18 NON d   1      27.222 -10.923   3.108  0.00  0.00    -0.007 A 
ATOM     29  C19 NON d   1      27.795  -9.950   3.941  0.00  0.00     0.014 A 
ATOM     30  C20 NON d   1      27.517  -8.591   3.758  0.00  0.00     0.001 A 
ATOM     31  C21 NON d   1      26.656  -8.181   2.741  0.00  0.00     0.000 A 
ATOM     32  C22 NON d   1      26.063  -9.130   1.917  0.00  0.00     0.001 A 
ATOM     33  C23 NON d   1      26.338 -10.489   2.102  0.00  0.00     0.014 A 
ENDBRANCH  25  28
ENDBRANCH  21  23
ENDBRANCH   1  19
TORSDOF 11
ENDMDL
MODEL 7
REMARK VINA RESULT:    -8.738      2.047      2.911
REMARK INTER + INTRA:         -14.276
REMARK INTER:                 -12.020
REMARK INTRA:                  -2.256
REMARK CONF_INDEPENDENT:        3.281
REMARK UNBOUND:                -2.256
REMARK  11 active torsions:
REMARK  status: ('A' for Active; 'I' for Inactive)
REMARK    1  A    between atoms: C2_2  and  C3_4 
REMARK    2  A    between atoms: C3_4  and  C4_5 
REMARK    3  A    between atoms: C4_5  and  C5_6 
REMARK    4  A    between atoms: C5_6  and  C6_7 
REMARK    5  A    between atoms: C6_7  and  C7_8 
REMARK    6  A    between atoms: C8_9  and  C7_8 
REMARK    7  A    between atoms: C8_9  and  N1_10 
REMARK    8  A    between atoms: C8_9  and  C15_18 
REMARK    9  A    between atoms: N1_10  and  C9_11 
REMARK       I    between atoms: C15_18  and  N3_20 
REMARK   10  A    between atoms: N3_20  and  C16_21 
REMARK   11  A    between atoms: C17_23  and  C18_24 
ROOT
ATOM      1  C8  NON d   1      27.559 -16.655   0.087  0.00  0.00     0.314 C 
ENDROOT
BRANCH   1   2
ATOM      2  C7  NON d   1      26.744 -17.877   0.584  0.00  0.00     0.045 C 
BRANCH   2   3
ATOM      3  C6  NON d   1      25.520 -18.198  -0.311  0.00  0.00     0.003 C 
BRANCH   3   4
ATOM      4  C5  NON d   1      24.782 -16.926  -0.743  0.00  0.00     0.000 C 
BRANCH   4   5
ATOM      5  C4  NON d   1      25.156 -16.398  -2.137  0.00  0.00     0.007 C 
BRANCH   5   6
ATOM      6  C3  NON d   1      24.749 -14.947  -2.397  0.00  0.00     0.077 C 
BRANCH   6   7
ATOM      7  C2  NON d   1      25.167 -14.406  -3.752  0.00  0.00     0.123 C 
ATOM      8  C1  NON d   1      25.594 -12.961  -3.800  0.00  0.00     0.091 C 
ATOM      9  O1  NON d   1      25.229 -15.111  -4.759  0.00  0.00    -0.298 OA
ENDBRANCH   6   7
ENDBRANCH   5   6
ENDBRANCH   4   5
ENDBRANCH   3   4
ENDBRANCH   2   3
ENDBRANCH   1   2
BRANCH   1  10
ATOM     10  N1  NON d   1      29.043 -16.806   0.230  0.00  0.00     0.119 N 
ATOM     11  H15 NON d   1      29.235 -17.783   0.442  0.00  0.00     0.319 HD
BRANCH  10  12
ATOM     12  C9  NON d   1      29.770 -16.472  -0.997  0.00  0.00     0.318 C 
ATOM     13  C10 NON d   1      28.936 -16.662  -2.291  0.00  0.00     0.057 C 
ATOM     14  C11 NON d   1      28.293 -15.437  -2.928  0.00  0.00     0.006 C 
ATOM     15  C12 NON d   1      28.383 -14.172  -2.107  0.00  0.00     0.020 C 
ATOM     16  C13 NON d   1      29.733 -13.981  -1.439  0.00  0.00     0.118 C 
ATOM     17  N2  NON d   1      30.362 -15.159  -0.873  0.00  0.00    -0.389 N 
ATOM     18  C14 NON d   1      31.221 -14.875   0.261  0.00  0.00     0.145 C 
ENDBRANCH  10  12
ENDBRANCH   1  10
BRANCH   1  19
ATOM     19  C15 NON d   1      27.128 -15.373   0.862  0.00  0.00     0.257 C 
ATOM     20  O2  NON d   1      26.311 -14.592   0.386  0.00  0.00    -0.271 OA
ATOM     21  N3  NON d   1      27.846 -15.216   2.032  0.00  0.00    -0.304 N 
ATOM     22  H28 NON d   1      28.511 -15.953   2.243  0.00  0.00     0.171 HD
BRANCH  21  23
ATOM     23  C16 NON d   1      27.841 -14.150   2.887  0.00  0.00     0.173 A 
ATOM     24  N4  NON d   1      28.022 -14.291   4.183  0.00  0.00    -0.223 NA
ATOM     25  C17 NON d   1      28.034 -13.037   4.797  0.00  0.00     0.076 A 
ATOM     26  C24 NON d   1      27.783 -11.987   3.925  0.00  0.00     0.085 A 
ATOM     27  S1  NON d   1      27.578 -12.563   2.338  0.00  0.00    -0.061 SA
BRANCH  25  28
ATOM     28  C18 NON d   1      28.349 -12.872   6.218  0.00  0.00    -0.007 A 
ATOM     29  C19 NON d   1      28.897 -13.936   6.950  0.00  0.00     0.014 A 
ATOM     30  C20 NON d   1      29.266 -13.773   8.290  0.00  0.00     0.001 A 
ATOM     31  C21 NON d   1      29.087 -12.544   8.923  0.00  0.00     0.000 A 
ATOM     32  C22 NON d   1      28.528 -11.483   8.222  0.00  0.00     0.001 A 
ATOM     33  C23 NON d   1      28.156 -11.646   6.883  0.00  0.00     0.014 A 
ENDBRANCH  25  28
ENDBRANCH  21  23
ENDBRANCH   1  19
TORSDOF 11
ENDMDL
MODEL 8
REMARK VINA RESULT:    -8.506      4.107      7.617
REMARK INTER + INTRA:         -14.453
REMARK INTER:                 -11.787
REMARK INTRA:                  -2.666
REMARK CONF_INDEPENDENT:        3.281
REMARK UNBOUND:                -2.666
REMARK  11 active torsions:
REMARK  status: ('A' for Active; 'I' for Inactive)
REMARK    1  A    between atoms: C2_2  and  C3_4 
REMARK    2  A    between atoms: C3_4  and  C4_5 
REMARK    3  A    between atoms: C4_5  and  C5_6 
REMARK    4  A    between atoms: C5_6  and  C6_7 
REMARK    5  A    between atoms: C6_7  and  C7_8 
REMARK    6  A    between atoms: C8_9  and  C7_8 
REMARK    7  A    between atoms: C8_9  and  N1_10 
REMARK    8  A    between atoms: C8_9  and  C15_18 
REMARK    9  A    between atoms: N1_10  and  C9_11 
REMARK       I    between atoms: C15_18  and  N3_20 
REMARK   10  A    between atoms: N3_20  and  C16_21 
REMARK   11  A    between atoms: C17_23  and  C18_24 
ROOT
ATOM      1  C8  NON d   1      27.853 -17.219   0.039  0.00  0.00     0.314 C 
ENDROOT
BRANCH   1   2
ATOM      2  C7  NON d   1      28.043 -15.786   0.602  0.00  0.00     0.045 C 
BRANCH   2   3
ATOM      3  C6  NON d   1      26.789 -14.893   0.430  0.00  0.00     0.003 C 
BRANCH   3   4
ATOM      4  C5  NON d   1      27.148 -13.508  -0.120  0.00  0.00     0.000 C 
BRANCH   4   5
ATOM      5  C4  NON d   1      27.107 -13.385  -1.652  0.00  0.00     0.007 C 
BRANCH   5   6
ATOM      6  C3  NON d   1      25.837 -13.939  -2.300  0.00  0.00     0.077 C 
BRANCH   6   7
ATOM      7  C2  NON d   1      26.052 -14.597  -3.651  0.00  0.00     0.123 C 
ATOM      8  C1  NON d   1      27.459 -14.582  -4.192  0.00  0.00     0.091 C 
ATOM      9  O1  NON d   1      25.154 -15.179  -4.257  0.00  0.00    -0.298 OA
ENDBRANCH   6   7
ENDBRANCH   5   6
ENDBRANCH   4   5
ENDBRANCH   3   4
ENDBRANCH   2   3
ENDBRANCH   1   2
BRANCH   1  10
ATOM     10  N1  NON d   1      28.943 -17.664  -0.889  0.00  0.00     0.119 N 
ATOM     11  H15 NON d   1      28.538 -17.755  -1.818  0.00  0.00     0.319 HD
BRANCH  10  12
ATOM     12  C9  NON d   1      30.042 -16.700  -0.981  0.00  0.00     0.318 C 
ATOM     13  C10 NON d   1      30.986 -16.708   0.249  0.00  0.00     0.057 C 
ATOM     14  C11 NON d   1      32.303 -17.469   0.151  0.00  0.00     0.006 C 
ATOM     15  C12 NON d   1      32.461 -18.307  -1.096  0.00  0.00     0.020 C 
ATOM     16  C13 NON d   1      31.959 -17.619  -2.353  0.00  0.00     0.118 C 
ATOM     17  N2  NON d   1      30.728 -16.859  -2.243  0.00  0.00    -0.389 N 
ATOM     18  C14 NON d   1      29.964 -16.803  -3.475  0.00  0.00     0.145 C 
ENDBRANCH  10  12
ENDBRANCH   1  10
BRANCH   1  19
ATOM     19  C15 NON d   1      26.498 -17.319  -0.725  0.00  0.00     0.257 C 
ATOM     20  O2  NON d   1      26.432 -17.079  -1.926  0.00  0.00    -0.271 OA
ATOM     21  N3  NON d   1      25.448 -17.593   0.129  0.00  0.00    -0.304 N 
ATOM     22  H28 NON d   1      25.695 -17.725   1.104  0.00  0.00     0.171 HD
BRANCH  21  23
ATOM     23  C16 NON d   1      24.113 -17.613  -0.158  0.00  0.00     0.173 A 
ATOM     24  N4  NON d   1      23.319 -18.575   0.265  0.00  0.00    -0.223 NA
ATOM     25  C17 NON d   1      22.003 -18.305  -0.119  0.00  0.00     0.076 A 
ATOM     26  C24 NON d   1      21.873 -17.162  -0.895  0.00  0.00     0.085 A 
ATOM     27  S1  NON d   1      23.382 -16.405  -1.105  0.00  0.00    -0.061 SA
BRANCH  25  28
ATOM     28  C18 NON d   1      20.880 -19.133   0.326  0.00  0.00    -0.007 A 
ATOM     29  C19 NON d   1      20.642 -19.327   1.695  0.00  0.00     0.014 A 
ATOM     30  C20 NON d   1      19.535 -20.059   2.136  0.00  0.00     0.001 A 
ATOM     31  C21 NON d   1      18.648 -20.615   1.215  0.00  0.00     0.000 A 
ATOM     32  C22 NON d   1      18.876 -20.450  -0.145  0.00  0.00     0.001 A 
ATOM     33  C23 NON d   1      19.986 -19.721  -0.588  0.00  0.00     0.014 A 
ENDBRANCH  25  28
ENDBRANCH  21  23
ENDBRANCH   1  19
TORSDOF 11
ENDMDL
MODEL 9
REMARK VINA RESULT:    -7.256      4.600      9.454
REMARK INTER + INTRA:         -14.330
REMARK INTER:                 -10.537
REMARK INTRA:                  -3.793
REMARK CONF_INDEPENDENT:        3.281
REMARK UNBOUND:                -3.793
REMARK  11 active torsions:
REMARK  status: ('A' for Active; 'I' for Inactive)
REMARK    1  A    between atoms: C2_2  and  C3_4 
REMARK    2  A    between atoms: C3_4  and  C4_5 
REMARK    3  A    between atoms: C4_5  and  C5_6 
REMARK    4  A    between atoms: C5_6  and  C6_7 
REMARK    5  A    between atoms: C6_7  and  C7_8 
REMARK    6  A    between atoms: C8_9  and  C7_8 
REMARK    7  A    between atoms: C8_9  and  N1_10 
REMARK    8  A    between atoms: C8_9  and  C15_18 
REMARK    9  A    between atoms: N1_10  and  C9_11 
REMARK       I    between atoms: C15_18  and  N3_20 
REMARK   10  A    between atoms: N3_20  and  C16_21 
REMARK   11  A    between atoms: C17_23  and  C18_24 
ROOT
ATOM      1  C8  NON d   1      25.289 -15.021  -2.396  0.00  0.00     0.314 C 
ENDROOT
BRANCH   1   2
ATOM      2  C7  NON d   1      26.059 -14.017  -1.500  0.00  0.00     0.045 C 
BRANCH   2   3
ATOM      3  C6  NON d   1      26.967 -14.707  -0.451  0.00  0.00     0.003 C 
BRANCH   3   4
ATOM      4  C5  NON d   1      28.300 -13.969  -0.280  0.00  0.00     0.000 C 
BRANCH   4   5
ATOM      5  C4  NON d   1      29.518 -14.872  -0.034  0.00  0.00     0.007 C 
BRANCH   5   6
ATOM      6  C3  NON d   1      29.219 -16.371  -0.089  0.00  0.00     0.077 C 
BRANCH   6   7
ATOM      7  C2  NON d   1      29.026 -16.926  -1.489  0.00  0.00     0.123 C 
ATOM      8  C1  NON d   1      30.257 -17.449  -2.183  0.00  0.00     0.091 C 
ATOM      9  O1  NON d   1      27.920 -17.019  -2.020  0.00  0.00    -0.298 OA
ENDBRANCH   6   7
ENDBRANCH   5   6
ENDBRANCH   4   5
ENDBRANCH   3   4
ENDBRANCH   2   3
ENDBRANCH   1   2
BRANCH   1  10
ATOM     10  N1  NON d   1      25.284 -16.428  -1.878  0.00  0.00     0.119 N 
ATOM     11  H15 NON d   1      26.248 -16.690  -1.687  0.00  0.00     0.319 HD
BRANCH  10  12
ATOM     12  C9  NON d   1      24.533 -16.571  -0.629  0.00  0.00     0.318 C 
ATOM     13  C10 NON d   1      23.010 -16.325  -0.781  0.00  0.00     0.057 C 
ATOM     14  C11 NON d   1      22.086 -17.532  -0.895  0.00  0.00     0.006 C 
ATOM     15  C12 NON d   1      22.790 -18.860  -1.041  0.00  0.00     0.020 C 
ATOM     16  C13 NON d   1      24.008 -18.999  -0.145  0.00  0.00     0.118 C 
ATOM     17  N2  NON d   1      24.860 -17.833  -0.003  0.00  0.00    -0.389 N 
ATOM     18  C14 NON d   1      26.251 -18.154   0.256  0.00  0.00     0.145 C 
ENDBRANCH  10  12
ENDBRANCH   1  10
BRANCH   1  19
ATOM     19  C15 NON d   1      25.901 -15.038  -3.830  0.00  0.00     0.257 C 
ATOM     20  O2  NON d   1      25.182 -15.106  -4.822  0.00  0.00    -0.271 OA
ATOM     21  N3  NON d   1      27.281 -15.074  -3.797  0.00  0.00    -0.304 N 
ATOM     22  H28 NON d   1      27.701 -15.048  -2.874  0.00  0.00     0.171 HD
BRANCH  21  23
ATOM     23  C16 NON d   1      28.144 -15.237  -4.844  0.00  0.00     0.173 A 
ATOM     24  N4  NON d   1      28.935 -16.285  -4.943  0.00  0.00    -0.223 NA
ATOM     25  C17 NON d   1      29.655 -16.221  -6.139  0.00  0.00     0.076 A 
ATOM     26  C24 NON d   1      29.421 -15.065  -6.868  0.00  0.00     0.085 A 
ATOM     27  S1  NON d   1      28.274 -14.083  -6.086  0.00  0.00    -0.061 SA
BRANCH  25  28
ATOM     28  C18 NON d   1      30.518 -17.318  -6.583  0.00  0.00    -0.007 A 
ATOM     29  C19 NON d   1      30.405 -18.589  -6.000  0.00  0.00     0.014 A 
ATOM     30  C20 NON d   1      31.175 -19.663  -6.460  0.00  0.00     0.001 A 
ATOM     31  C21 NON d   1      32.075 -19.483  -7.509  0.00  0.00     0.000 A 
ATOM     32  C22 NON d   1      32.215 -18.229  -8.089  0.00  0.00     0.001 A 
ATOM     33  C23 NON d   1      31.448 -17.153  -7.627  0.00  0.00     0.014 A 
ENDBRANCH  25  28
ENDBRANCH  21  23
ENDBRANCH   1  19
TORSDOF 11
ENDMDL
