MODEL 1
REMARK VINA RESULT:   -33.391      0.000      0.000
REMARK INTER + INTRA:         -38.609
REMARK INTER:                 -36.374
REMARK INTRA:                  -2.235
REMARK CONF_INDEPENDENT:        2.983
REMARK UNBOUND:                -2.235
REMARK  10 active torsions:
REMARK  status: ('A' for Active; 'I' for Inactive)
REMARK    1  A    between atoms: N3_3  and  C1_4 
REMARK    2  A    between atoms: C5_8  and  C6_9 
REMARK    3  A    between atoms: C6_9  and  O1_10 
REMARK    4  A    between atoms: O1_10  and  C7_11 
REMARK       I    between atoms: C7_11  and  N4_13 
REMARK    5  A    between atoms: N4_13  and  C8_14 
REMARK    6  A    between atoms: C8_14  and  C9_15 
REMARK    7  A    between atoms: C12_18  and  C13_19 
REMARK       I    between atoms: C13_19  and  N5_21 
REMARK    8  A    between atoms: N5_21  and  C14_22 
REMARK    9  A    between atoms: C16_24  and  C17_25 
REMARK   10  A    between atoms: C25_33  and  N6_34 
ROOT
ATOM      1  N1  NON d   1      18.673 -20.483  -0.525  0.00  0.00     0.068 N 
ATOM      2  N2  NON d   1      19.266 -19.573  -0.877  0.00  0.00    -0.162 NA
ATOM      3  N3  NON d   1      19.903 -18.575  -1.270  0.00  0.00    -0.073 NA
ENDROOT
BRANCH   3   4
ATOM      4  C1  NON d   1      21.277 -18.539  -0.955  0.00  0.00     0.093 A 
ATOM      5  C2  NON d   1      22.013 -19.632  -0.469  0.00  0.00     0.034 A 
ATOM      6  C3  NON d   1      23.374 -19.509  -0.190  0.00  0.00     0.003 A 
ATOM      7  C4  NON d   1      24.018 -18.292  -0.395  0.00  0.00     0.009 A 
ATOM      8  C5  NON d   1      23.318 -17.176  -0.883  0.00  0.00    -0.032 A 
ATOM      9  C28 NON d   1      21.951 -17.316  -1.158  0.00  0.00     0.043 A 
BRANCH   8  10
ATOM     10  C6  NON d   1      24.105 -15.892  -1.074  0.00  0.00     0.219 C 
BRANCH  10  11
ATOM     11  O1  NON d   1      23.836 -15.155  -2.277  0.00  0.00    -0.299 OA
BRANCH  11  12
ATOM     12  C7  NON d   1      24.994 -14.716  -2.854  0.00  0.00     0.361 C 
ATOM     13  O2  NON d   1      25.188 -13.570  -3.239  0.00  0.00    -0.239 OA
ATOM     14  N4  NON d   1      25.933 -15.713  -2.925  0.00  0.00    -0.333 N 
ATOM     15  H6  NON d   1      25.731 -16.542  -2.389  0.00  0.00     0.165 HD
BRANCH  14  16
ATOM     16  C8  NON d   1      27.279 -15.380  -3.355  0.00  0.00     0.163 C 
BRANCH  16  17
ATOM     17  C9  NON d   1      28.431 -16.187  -2.788  0.00  0.00    -0.040 A 
ATOM     18  C10 NON d   1      28.271 -16.781  -1.516  0.00  0.00     0.010 A 
ATOM     19  C11 NON d   1      29.255 -17.613  -0.946  0.00  0.00     0.017 A 
ATOM     20  C12 NON d   1      30.433 -17.870  -1.646  0.00  0.00     0.032 A 
ATOM     21  C26 NON d   1      30.610 -17.254  -2.899  0.00  0.00     0.017 A 
ATOM     22  C27 NON d   1      29.630 -16.424  -3.462  0.00  0.00     0.010 A 
BRANCH  20  23
ATOM     23  C13 NON d   1      31.502 -18.822  -1.200  0.00  0.00     0.256 C 
ATOM     24  O3  NON d   1      32.072 -19.448  -2.094  0.00  0.00    -0.267 OA
ATOM     25  N5  NON d   1      31.764 -18.965   0.157  0.00  0.00    -0.321 N 
ATOM     26  H11 NON d   1      31.117 -18.545   0.806  0.00  0.00     0.169 HD
BRANCH  25  27
ATOM     27  C14 NON d   1      32.815 -19.745   0.754  0.00  0.00     0.057 A 
ATOM     28  C15 NON d   1      32.661 -20.075   2.131  0.00  0.00     0.043 A 
ATOM     29  C16 NON d   1      33.603 -20.846   2.864  0.00  0.00    -0.024 A 
ATOM     30  C23 NON d   1      34.735 -21.256   2.143  0.00  0.00     0.014 A 
ATOM     31  C24 NON d   1      34.930 -20.911   0.807  0.00  0.00     0.026 A 
ATOM     32  C25 NON d   1      33.977 -20.185   0.087  0.00  0.00     0.033 A 
BRANCH  29  33
ATOM     33  C17 NON d   1      33.446 -21.208   4.318  0.00  0.00    -0.026 A 
ATOM     34  C18 NON d   1      34.524 -21.632   5.120  0.00  0.00     0.012 A 
ATOM     35  C19 NON d   1      34.362 -21.978   6.471  0.00  0.00     0.001 A 
ATOM     36  C20 NON d   1      33.112 -21.911   7.073  0.00  0.00     0.000 A 
ATOM     37  C21 NON d   1      32.024 -21.493   6.324  0.00  0.00     0.001 A 
ATOM     38  C22 NON d   1      32.194 -21.150   4.976  0.00  0.00     0.012 A 
ENDBRANCH  29  33
BRANCH  32  39
ATOM     39  N6  NON d   1      34.395 -19.706  -1.172  0.00  0.00    -0.301 NA
ATOM     40  H20 NON d   1      34.045 -18.754  -1.317  0.00  0.00     0.124 HD
ATOM     41  H21 NON d   1      34.085 -20.290  -1.940  0.00  0.00     0.124 HD
ENDBRANCH  32  39
ENDBRANCH  25  27
ENDBRANCH  20  23
ENDBRANCH  16  17
ENDBRANCH  14  16
ENDBRANCH  11  12
ENDBRANCH  10  11
ENDBRANCH   8  10
ENDBRANCH   3   4
TORSDOF 10
ENDMDL
MODEL 2
REMARK VINA RESULT:   -32.881      6.189     13.289
REMARK INTER + INTRA:         -38.104
REMARK INTER:                 -35.864
REMARK INTRA:                  -2.240
REMARK CONF_INDEPENDENT:        2.983
REMARK UNBOUND:                -2.240
REMARK  10 active torsions:
REMARK  status: ('A' for Active; 'I' for Inactive)
REMARK    1  A    between atoms: N3_3  and  C1_4 
REMARK    2  A    between atoms: C5_8  and  C6_9 
REMARK    3  A    between atoms: C6_9  and  O1_10 
REMARK    4  A    between atoms: O1_10  and  C7_11 
REMARK       I    between atoms: C7_11  and  N4_13 
REMARK    5  A    between atoms: N4_13  and  C8_14 
REMARK    6  A    between atoms: C8_14  and  C9_15 
REMARK    7  A    between atoms: C12_18  and  C13_19 
REMARK       I    between atoms: C13_19  and  N5_21 
REMARK    8  A    between atoms: N5_21  and  C14_22 
REMARK    9  A    between atoms: C16_24  and  C17_25 
REMARK   10  A    between atoms: C25_33  and  N6_34 
ROOT
ATOM      1  N1  NON d   1      18.806 -19.091  -0.939  0.00  0.00     0.068 N 
ATOM      2  N2  NON d   1      19.905 -19.325  -1.142  0.00  0.00    -0.162 NA
ATOM      3  N3  NON d   1      21.102 -19.594  -1.367  0.00  0.00    -0.073 NA
ENDROOT
BRANCH   3   4
ATOM      4  C1  NON d   1      22.048 -18.613  -1.006  0.00  0.00     0.093 A 
ATOM      5  C2  NON d   1      21.771 -17.240  -0.895  0.00  0.00     0.034 A 
ATOM      6  C3  NON d   1      22.768 -16.338  -0.525  0.00  0.00     0.003 A 
ATOM      7  C4  NON d   1      24.056 -16.796  -0.260  0.00  0.00     0.009 A 
ATOM      8  C5  NON d   1      24.373 -18.161  -0.358  0.00  0.00    -0.032 A 
ATOM      9  C28 NON d   1      23.359 -19.054  -0.731  0.00  0.00     0.043 A 
BRANCH   8  10
ATOM     10  C6  NON d   1      25.803 -18.565  -0.051  0.00  0.00     0.219 C 
BRANCH  10  11
ATOM     11  O1  NON d   1      26.693 -17.507   0.338  0.00  0.00    -0.299 OA
BRANCH  11  12
ATOM     12  C7  NON d   1      27.351 -16.995  -0.745  0.00  0.00     0.361 C 
ATOM     13  O2  NON d   1      28.387 -17.453  -1.210  0.00  0.00    -0.239 OA
ATOM     14  N4  NON d   1      26.692 -15.914  -1.273  0.00  0.00    -0.333 N 
ATOM     15  H6  NON d   1      25.753 -15.768  -0.935  0.00  0.00     0.165 HD
BRANCH  14  16
ATOM     16  C8  NON d   1      27.159 -15.350  -2.526  0.00  0.00     0.163 C 
BRANCH  16  17
ATOM     17  C9  NON d   1      26.860 -13.891  -2.809  0.00  0.00    -0.040 A 
ATOM     18  C10 NON d   1      25.929 -13.583  -3.828  0.00  0.00     0.010 A 
ATOM     19  C11 NON d   1      25.530 -12.261  -4.106  0.00  0.00     0.017 A 
ATOM     20  C12 NON d   1      26.059 -11.207  -3.361  0.00  0.00     0.032 A 
ATOM     21  C26 NON d   1      27.010 -11.507  -2.368  0.00  0.00     0.017 A 
ATOM     22  C27 NON d   1      27.407 -12.824  -2.096  0.00  0.00     0.010 A 
BRANCH  20  23
ATOM     23  C13 NON d   1      25.632  -9.775  -3.483  0.00  0.00     0.256 C 
ATOM     24  O3  NON d   1      26.011  -9.023  -2.585  0.00  0.00    -0.267 OA
ATOM     25  N5  NON d   1      24.834  -9.392  -4.553  0.00  0.00    -0.321 N 
ATOM     26  H11 NON d   1      24.433 -10.120  -5.123  0.00  0.00     0.169 HD
BRANCH  25  27
ATOM     27  C14 NON d   1      24.421  -8.053  -4.885  0.00  0.00     0.057 A 
ATOM     28  C15 NON d   1      23.312  -7.929  -5.769  0.00  0.00     0.043 A 
ATOM     29  C16 NON d   1      22.776  -6.680  -6.185  0.00  0.00    -0.024 A 
ATOM     30  C23 NON d   1      23.433  -5.546  -5.683  0.00  0.00     0.014 A 
ATOM     31  C24 NON d   1      24.547  -5.641  -4.851  0.00  0.00     0.026 A 
ATOM     32  C25 NON d   1      25.039  -6.875  -4.417  0.00  0.00     0.033 A 
BRANCH  29  33
ATOM     33  C17 NON d   1      21.597  -6.537  -7.113  0.00  0.00    -0.026 A 
ATOM     34  C18 NON d   1      21.697  -6.721  -8.506  0.00  0.00     0.012 A 
ATOM     35  C19 NON d   1      20.594  -6.571  -9.362  0.00  0.00     0.001 A 
ATOM     36  C20 NON d   1      19.346  -6.234  -8.855  0.00  0.00     0.000 A 
ATOM     37  C21 NON d   1      19.201  -6.049  -7.489  0.00  0.00     0.001 A 
ATOM     38  C22 NON d   1      20.306  -6.199  -6.642  0.00  0.00     0.012 A 
ENDBRANCH  29  33
BRANCH  32  39
ATOM     39  N6  NON d   1      26.296  -6.843  -3.777  0.00  0.00    -0.301 NA
ATOM     40  H20 NON d   1      26.853  -7.654  -4.060  0.00  0.00     0.124 HD
ATOM     41  H21 NON d   1      26.224  -6.831  -2.766  0.00  0.00     0.124 HD
ENDBRANCH  32  39
ENDBRANCH  25  27
ENDBRANCH  20  23
ENDBRANCH  16  17
ENDBRANCH  14  16
ENDBRANCH  11  12
ENDBRANCH  10  11
ENDBRANCH   8  10
ENDBRANCH   3   4
TORSDOF 10
ENDMDL
MODEL 3
REMARK VINA RESULT:   -32.090      5.038      6.108
REMARK INTER + INTRA:         -37.482
REMARK INTER:                 -35.073
REMARK INTRA:                  -2.409
REMARK CONF_INDEPENDENT:        2.983
REMARK UNBOUND:                -2.409
REMARK  10 active torsions:
REMARK  status: ('A' for Active; 'I' for Inactive)
REMARK    1  A    between atoms: N3_3  and  C1_4 
REMARK    2  A    between atoms: C5_8  and  C6_9 
REMARK    3  A    between atoms: C6_9  and  O1_10 
REMARK    4  A    between atoms: O1_10  and  C7_11 
REMARK       I    between atoms: C7_11  and  N4_13 
REMARK    5  A    between atoms: N4_13  and  C8_14 
REMARK    6  A    between atoms: C8_14  and  C9_15 
REMARK    7  A    between atoms: C12_18  and  C13_19 
REMARK       I    between atoms: C13_19  and  N5_21 
REMARK    8  A    between atoms: N5_21  and  C14_22 
REMARK    9  A    between atoms: C16_24  and  C17_25 
REMARK   10  A    between atoms: C25_33  and  N6_34 
ROOT
ATOM      1  N1  NON d   1      19.253 -19.740  -0.743  0.00  0.00     0.068 N 
ATOM      2  N2  NON d   1      19.864 -18.788  -0.896  0.00  0.00    -0.162 NA
ATOM      3  N3  NON d   1      20.520 -17.741  -1.070  0.00  0.00    -0.073 NA
ENDROOT
BRANCH   3   4
ATOM      4  C1  NON d   1      21.913 -17.828  -0.869  0.00  0.00     0.093 A 
ATOM      5  C2  NON d   1      22.571 -18.936  -0.309  0.00  0.00     0.034 A 
ATOM      6  C3  NON d   1      23.957 -18.941  -0.154  0.00  0.00     0.003 A 
ATOM      7  C4  NON d   1      24.704 -17.838  -0.557  0.00  0.00     0.009 A 
ATOM      8  C5  NON d   1      24.085 -16.711  -1.123  0.00  0.00    -0.032 A 
ATOM      9  C28 NON d   1      22.691 -16.723  -1.273  0.00  0.00     0.043 A 
BRANCH   8  10
ATOM     10  C6  NON d   1      24.982 -15.557  -1.532  0.00  0.00     0.219 C 
BRANCH  10  11
ATOM     11  O1  NON d   1      24.436 -14.635  -2.487  0.00  0.00    -0.299 OA
BRANCH  11  12
ATOM     12  C7  NON d   1      25.280 -14.469  -3.548  0.00  0.00     0.361 C 
ATOM     13  O2  NON d   1      25.180 -15.060  -4.616  0.00  0.00    -0.239 OA
ATOM     14  N4  NON d   1      26.246 -13.531  -3.285  0.00  0.00    -0.333 N 
ATOM     15  H6  NON d   1      26.096 -12.970  -2.461  0.00  0.00     0.165 HD
BRANCH  14  16
ATOM     16  C8  NON d   1      27.125 -13.107  -4.359  0.00  0.00     0.163 C 
BRANCH  16  17
ATOM     17  C9  NON d   1      28.076 -14.129  -4.951  0.00  0.00    -0.040 A 
ATOM     18  C10 NON d   1      28.531 -15.180  -4.122  0.00  0.00     0.010 A 
ATOM     19  C11 NON d   1      29.351 -16.218  -4.607  0.00  0.00     0.017 A 
ATOM     20  C12 NON d   1      29.736 -16.226  -5.948  0.00  0.00     0.032 A 
ATOM     21  C26 NON d   1      29.311 -15.164  -6.768  0.00  0.00     0.017 A 
ATOM     22  C27 NON d   1      28.499 -14.131  -6.281  0.00  0.00     0.010 A 
BRANCH  20  23
ATOM     23  C13 NON d   1      30.508 -17.329  -6.608  0.00  0.00     0.256 C 
ATOM     24  O3  NON d   1      31.313 -16.979  -7.471  0.00  0.00    -0.267 OA
ATOM     25  N5  NON d   1      30.262 -18.646  -6.243  0.00  0.00    -0.321 N 
ATOM     26  H11 NON d   1      29.457 -18.829  -5.663  0.00  0.00     0.169 HD
BRANCH  25  27
ATOM     27  C14 NON d   1      30.975 -19.813  -6.690  0.00  0.00     0.057 A 
ATOM     28  C15 NON d   1      31.205 -20.830  -5.721  0.00  0.00     0.043 A 
ATOM     29  C16 NON d   1      31.884 -22.047  -6.004  0.00  0.00    -0.024 A 
ATOM     30  C23 NON d   1      32.349 -22.182  -7.322  0.00  0.00     0.014 A 
ATOM     31  C24 NON d   1      32.175 -21.183  -8.277  0.00  0.00     0.026 A 
ATOM     32  C25 NON d   1      31.470 -20.009  -7.996  0.00  0.00     0.033 A 
BRANCH  29  33
ATOM     33  C17 NON d   1      32.125 -23.133  -4.989  0.00  0.00    -0.026 A 
ATOM     34  C18 NON d   1      33.018 -24.200  -5.211  0.00  0.00     0.012 A 
ATOM     35  C19 NON d   1      33.225 -25.214  -4.262  0.00  0.00     0.001 A 
ATOM     36  C20 NON d   1      32.545 -25.197  -3.051  0.00  0.00     0.000 A 
ATOM     37  C21 NON d   1      31.661 -24.163  -2.787  0.00  0.00     0.001 A 
ATOM     38  C22 NON d   1      31.460 -23.156  -3.740  0.00  0.00     0.012 A 
ENDBRANCH  29  33
BRANCH  32  39
ATOM     39  N6  NON d   1      31.566 -18.990  -8.966  0.00  0.00    -0.301 NA
ATOM     40  H20 NON d   1      32.364 -18.383  -8.758  0.00  0.00     0.124 HD
ATOM     41  H21 NON d   1      30.729 -18.421  -9.026  0.00  0.00     0.124 HD
ENDBRANCH  32  39
ENDBRANCH  25  27
ENDBRANCH  20  23
ENDBRANCH  16  17
ENDBRANCH  14  16
ENDBRANCH  11  12
ENDBRANCH  10  11
ENDBRANCH   8  10
ENDBRANCH   3   4
TORSDOF 10
ENDMDL
MODEL 4
REMARK VINA RESULT:   -31.932      8.207      9.072
REMARK INTER + INTRA:         -37.099
REMARK INTER:                 -34.915
REMARK INTRA:                  -2.184
REMARK CONF_INDEPENDENT:        2.983
REMARK UNBOUND:                -2.184
REMARK  10 active torsions:
REMARK  status: ('A' for Active; 'I' for Inactive)
REMARK    1  A    between atoms: N3_3  and  C1_4 
REMARK    2  A    between atoms: C5_8  and  C6_9 
REMARK    3  A    between atoms: C6_9  and  O1_10 
REMARK    4  A    between atoms: O1_10  and  C7_11 
REMARK       I    between atoms: C7_11  and  N4_13 
REMARK    5  A    between atoms: N4_13  and  C8_14 
REMARK    6  A    between atoms: C8_14  and  C9_15 
REMARK    7  A    between atoms: C12_18  and  C13_19 
REMARK       I    between atoms: C13_19  and  N5_21 
REMARK    8  A    between atoms: N5_21  and  C14_22 
REMARK    9  A    between atoms: C16_24  and  C17_25 
REMARK   10  A    between atoms: C25_33  and  N6_34 
ROOT
ATOM      1  N1  NON d   1      19.164 -19.550  -0.796  0.00  0.00     0.068 N 
ATOM      2  N2  NON d   1      19.876 -18.662  -0.896  0.00  0.00    -0.162 NA
ATOM      3  N3  NON d   1      20.643 -17.686  -1.013  0.00  0.00    -0.073 NA
ENDROOT
BRANCH   3   4
ATOM      4  C1  NON d   1      22.010 -17.922  -0.755  0.00  0.00     0.093 A 
ATOM      5  C2  NON d   1      22.558 -19.179  -0.450  0.00  0.00     0.034 A 
ATOM      6  C3  NON d   1      23.926 -19.323  -0.216  0.00  0.00     0.003 A 
ATOM      7  C4  NON d   1      24.763 -18.213  -0.283  0.00  0.00     0.009 A 
ATOM      8  C5  NON d   1      24.254 -16.940  -0.587  0.00  0.00    -0.032 A 
ATOM      9  C28 NON d   1      22.877 -16.812  -0.821  0.00  0.00     0.043 A 
BRANCH   8  10
ATOM     10  C6  NON d   1      25.243 -15.790  -0.639  0.00  0.00     0.219 C 
BRANCH  10  11
ATOM     11  O1  NON d   1      26.499 -16.061  -1.282  0.00  0.00    -0.299 OA
BRANCH  11  12
ATOM     12  C7  NON d   1      27.545 -15.821  -0.437  0.00  0.00     0.361 C 
ATOM     13  O2  NON d   1      28.148 -16.685   0.187  0.00  0.00    -0.239 OA
ATOM     14  N4  NON d   1      27.864 -14.488  -0.392  0.00  0.00    -0.333 N 
ATOM     15  H6  NON d   1      27.439 -13.913  -1.103  0.00  0.00     0.165 HD
BRANCH  14  16
ATOM     16  C8  NON d   1      29.057 -14.074   0.324  0.00  0.00     0.163 C 
BRANCH  16  17
ATOM     17  C9  NON d   1      29.028 -14.105   1.840  0.00  0.00    -0.040 A 
ATOM     18  C10 NON d   1      30.250 -14.271   2.531  0.00  0.00     0.010 A 
ATOM     19  C11 NON d   1      30.330 -14.232   3.936  0.00  0.00     0.017 A 
ATOM     20  C12 NON d   1      29.175 -14.023   4.690  0.00  0.00     0.032 A 
ATOM     21  C26 NON d   1      27.952 -13.889   4.007  0.00  0.00     0.017 A 
ATOM     22  C27 NON d   1      27.875 -13.932   2.608  0.00  0.00     0.010 A 
BRANCH  20  23
ATOM     23  C13 NON d   1      29.146 -13.848   6.178  0.00  0.00     0.256 C 
ATOM     24  O3  NON d   1      28.542 -14.715   6.810  0.00  0.00    -0.267 OA
ATOM     25  N5  NON d   1      29.757 -12.736   6.745  0.00  0.00    -0.321 N 
ATOM     26  H11 NON d   1      30.059 -12.000   6.125  0.00  0.00     0.169 HD
BRANCH  25  27
ATOM     27  C14 NON d   1      29.918 -12.463   8.149  0.00  0.00     0.057 A 
ATOM     28  C15 NON d   1      30.092 -11.099   8.517  0.00  0.00     0.043 A 
ATOM     29  C16 NON d   1      30.254 -10.662   9.860  0.00  0.00    -0.024 A 
ATOM     30  C23 NON d   1      30.255 -11.680  10.827  0.00  0.00     0.014 A 
ATOM     31  C24 NON d   1      30.129 -13.025  10.489  0.00  0.00     0.026 A 
ATOM     32  C25 NON d   1      29.931 -13.438   9.168  0.00  0.00     0.033 A 
BRANCH  29  33
ATOM     33  C17 NON d   1      30.431  -9.221  10.261  0.00  0.00    -0.026 A 
ATOM     34  C18 NON d   1      30.246  -8.151   9.364  0.00  0.00     0.012 A 
ATOM     35  C19 NON d   1      30.427  -6.812   9.747  0.00  0.00     0.001 A 
ATOM     36  C20 NON d   1      30.799  -6.493  11.047  0.00  0.00     0.000 A 
ATOM     37  C21 NON d   1      30.986  -7.513  11.965  0.00  0.00     0.001 A 
ATOM     38  C22 NON d   1      30.804  -8.847  11.575  0.00  0.00     0.012 A 
ENDBRANCH  29  33
BRANCH  32  39
ATOM     39  N6  NON d   1      30.051 -14.824   8.934  0.00  0.00    -0.301 NA
ATOM     40  H20 NON d   1      30.410 -14.989   7.989  0.00  0.00     0.124 HD
ATOM     41  H21 NON d   1      29.175 -15.321   9.044  0.00  0.00     0.124 HD
ENDBRANCH  32  39
ENDBRANCH  25  27
ENDBRANCH  20  23
ENDBRANCH  16  17
ENDBRANCH  14  16
ENDBRANCH  11  12
ENDBRANCH  10  11
ENDBRANCH   8  10
ENDBRANCH   3   4
TORSDOF 10
ENDMDL
MODEL 5
REMARK VINA RESULT:   -31.845      4.853     10.806
REMARK INTER + INTRA:         -37.270
REMARK INTER:                 -34.828
REMARK INTRA:                  -2.443
REMARK CONF_INDEPENDENT:        2.983
REMARK UNBOUND:                -2.443
REMARK  10 active torsions:
REMARK  status: ('A' for Active; 'I' for Inactive)
REMARK    1  A    between atoms: N3_3  and  C1_4 
REMARK    2  A    between atoms: C5_8  and  C6_9 
REMARK    3  A    between atoms: C6_9  and  O1_10 
REMARK    4  A    between atoms: O1_10  and  C7_11 
REMARK       I    between atoms: C7_11  and  N4_13 
REMARK    5  A    between atoms: N4_13  and  C8_14 
REMARK    6  A    between atoms: C8_14  and  C9_15 
REMARK    7  A    between atoms: C12_18  and  C13_19 
REMARK       I    between atoms: C13_19  and  N5_21 
REMARK    8  A    between atoms: N5_21  and  C14_22 
REMARK    9  A    between atoms: C16_24  and  C17_25 
REMARK   10  A    between atoms: C25_33  and  N6_34 
ROOT
ATOM      1  N1  NON d   1      18.803 -19.010  -1.027  0.00  0.00     0.068 N 
ATOM      2  N2  NON d   1      19.896 -19.318  -1.154  0.00  0.00    -0.162 NA
ATOM      3  N3  NON d   1      21.085 -19.667  -1.296  0.00  0.00    -0.073 NA
ENDROOT
BRANCH   3   4
ATOM      4  C1  NON d   1      22.067 -18.714  -0.957  0.00  0.00     0.093 A 
ATOM      5  C2  NON d   1      21.846 -17.328  -0.895  0.00  0.00     0.034 A 
ATOM      6  C3  NON d   1      22.876 -16.455  -0.543  0.00  0.00     0.003 A 
ATOM      7  C4  NON d   1      24.141 -16.957  -0.248  0.00  0.00     0.009 A 
ATOM      8  C5  NON d   1      24.402 -18.336  -0.296  0.00  0.00    -0.032 A 
ATOM      9  C28 NON d   1      23.356 -19.200  -0.651  0.00  0.00     0.043 A 
BRANCH   8  10
ATOM     10  C6  NON d   1      25.810 -18.789   0.042  0.00  0.00     0.219 C 
BRANCH  10  11
ATOM     11  O1  NON d   1      26.515 -18.001   1.014  0.00  0.00    -0.299 OA
BRANCH  11  12
ATOM     12  C7  NON d   1      27.398 -17.150   0.411  0.00  0.00     0.361 C 
ATOM     13  O2  NON d   1      27.287 -15.930   0.393  0.00  0.00    -0.239 OA
ATOM     14  N4  NON d   1      28.448 -17.827  -0.154  0.00  0.00    -0.333 N 
ATOM     15  H6  NON d   1      28.533 -18.797   0.108  0.00  0.00     0.165 HD
BRANCH  14  16
ATOM     16  C8  NON d   1      29.564 -17.071  -0.691  0.00  0.00     0.163 C 
BRANCH  16  17
ATOM     17  C9  NON d   1      29.335 -16.250  -1.945  0.00  0.00    -0.040 A 
ATOM     18  C10 NON d   1      29.559 -16.864  -3.198  0.00  0.00     0.010 A 
ATOM     19  C11 NON d   1      29.296 -16.205  -4.416  0.00  0.00     0.017 A 
ATOM     20  C12 NON d   1      28.796 -14.903  -4.404  0.00  0.00     0.032 A 
ATOM     21  C26 NON d   1      28.602 -14.277  -3.158  0.00  0.00     0.017 A 
ATOM     22  C27 NON d   1      28.868 -14.935  -1.949  0.00  0.00     0.010 A 
BRANCH  20  23
ATOM     23  C13 NON d   1      28.371 -14.140  -5.622  0.00  0.00     0.256 C 
ATOM     24  O3  NON d   1      28.159 -14.812  -6.631  0.00  0.00    -0.267 OA
ATOM     25  N5  NON d   1      28.268 -12.756  -5.556  0.00  0.00    -0.321 N 
ATOM     26  H11 NON d   1      28.640 -12.297  -4.739  0.00  0.00     0.169 HD
BRANCH  25  27
ATOM     27  C14 NON d   1      27.776 -11.878  -6.585  0.00  0.00     0.057 A 
ATOM     28  C15 NON d   1      26.972 -10.783  -6.158  0.00  0.00     0.043 A 
ATOM     29  C16 NON d   1      26.420  -9.821  -7.047  0.00  0.00    -0.024 A 
ATOM     30  C23 NON d   1      26.698 -10.030  -8.407  0.00  0.00     0.014 A 
ATOM     31  C24 NON d   1      27.447 -11.117  -8.853  0.00  0.00     0.026 A 
ATOM     32  C25 NON d   1      28.018 -12.033  -7.966  0.00  0.00     0.033 A 
BRANCH  29  33
ATOM     33  C17 NON d   1      25.575  -8.655  -6.606  0.00  0.00    -0.026 A 
ATOM     34  C18 NON d   1      26.043  -7.326  -6.618  0.00  0.00     0.012 A 
ATOM     35  C19 NON d   1      25.249  -6.248  -6.192  0.00  0.00     0.001 A 
ATOM     36  C20 NON d   1      23.954  -6.460  -5.739  0.00  0.00     0.000 A 
ATOM     37  C21 NON d   1      23.450  -7.751  -5.716  0.00  0.00     0.001 A 
ATOM     38  C22 NON d   1      24.248  -8.821  -6.142  0.00  0.00     0.012 A 
ENDBRANCH  29  33
BRANCH  32  39
ATOM     39  N6  NON d   1      28.547 -13.203  -8.549  0.00  0.00    -0.301 NA
ATOM     40  H20 NON d   1      27.812 -13.911  -8.640  0.00  0.00     0.124 HD
ATOM     41  H21 NON d   1      29.316 -13.596  -8.019  0.00  0.00     0.124 HD
ENDBRANCH  32  39
ENDBRANCH  25  27
ENDBRANCH  20  23
ENDBRANCH  16  17
ENDBRANCH  14  16
ENDBRANCH  11  12
ENDBRANCH  10  11
ENDBRANCH   8  10
ENDBRANCH   3   4
TORSDOF 10
ENDMDL
MODEL 6
REMARK VINA RESULT:   -31.600      5.978     12.751
REMARK INTER + INTRA:         -36.935
REMARK INTER:                 -34.583
REMARK INTRA:                  -2.353
REMARK CONF_INDEPENDENT:        2.983
REMARK UNBOUND:                -2.353
REMARK  10 active torsions:
REMARK  status: ('A' for Active; 'I' for Inactive)
REMARK    1  A    between atoms: N3_3  and  C1_4 
REMARK    2  A    between atoms: C5_8  and  C6_9 
REMARK    3  A    between atoms: C6_9  and  O1_10 
REMARK    4  A    between atoms: O1_10  and  C7_11 
REMARK       I    between atoms: C7_11  and  N4_13 
REMARK    5  A    between atoms: N4_13  and  C8_14 
REMARK    6  A    between atoms: C8_14  and  C9_15 
REMARK    7  A    between atoms: C12_18  and  C13_19 
REMARK       I    between atoms: C13_19  and  N5_21 
REMARK    8  A    between atoms: N5_21  and  C14_22 
REMARK    9  A    between atoms: C16_24  and  C17_25 
REMARK   10  A    between atoms: C25_33  and  N6_34 
ROOT
ATOM      1  N1  NON d   1      18.805 -19.028  -1.159  0.00  0.00     0.068 N 
ATOM      2  N2  NON d   1      19.902 -19.318  -1.029  0.00  0.00    -0.162 NA
ATOM      3  N3  NON d   1      21.096 -19.649  -0.885  0.00  0.00    -0.073 NA
ENDROOT
BRANCH   3   4
ATOM      4  C1  NON d   1      22.030 -18.600  -0.757  0.00  0.00     0.093 A 
ATOM      5  C2  NON d   1      21.722 -17.236  -0.894  0.00  0.00     0.034 A 
ATOM      6  C3  NON d   1      22.709 -16.262  -0.743  0.00  0.00     0.003 A 
ATOM      7  C4  NON d   1      24.018 -16.639  -0.453  0.00  0.00     0.009 A 
ATOM      8  C5  NON d   1      24.366 -17.992  -0.306  0.00  0.00    -0.032 A 
ATOM      9  C28 NON d   1      23.361 -18.958  -0.460  0.00  0.00     0.043 A 
BRANCH   8  10
ATOM     10  C6  NON d   1      25.816 -18.306   0.010  0.00  0.00     0.219 C 
BRANCH  10  11
ATOM     11  O1  NON d   1      26.677 -17.177   0.232  0.00  0.00    -0.299 OA
BRANCH  11  12
ATOM     12  C7  NON d   1      27.446 -16.922  -0.867  0.00  0.00     0.361 C 
ATOM     13  O2  NON d   1      28.527 -17.449  -1.098  0.00  0.00    -0.239 OA
ATOM     14  N4  NON d   1      26.847 -16.017  -1.706  0.00  0.00    -0.333 N 
ATOM     15  H6  NON d   1      25.877 -15.820  -1.513  0.00  0.00     0.165 HD
BRANCH  14  16
ATOM     16  C8  NON d   1      27.445 -15.757  -3.002  0.00  0.00     0.163 C 
BRANCH  16  17
ATOM     17  C9  NON d   1      27.081 -14.467  -3.712  0.00  0.00    -0.040 A 
ATOM     18  C10 NON d   1      28.125 -13.684  -4.256  0.00  0.00     0.010 A 
ATOM     19  C11 NON d   1      27.877 -12.514  -5.000  0.00  0.00     0.017 A 
ATOM     20  C12 NON d   1      26.564 -12.099  -5.219  0.00  0.00     0.032 A 
ATOM     21  C26 NON d   1      25.523 -12.858  -4.652  0.00  0.00     0.017 A 
ATOM     22  C27 NON d   1      25.774 -14.020  -3.909  0.00  0.00     0.010 A 
BRANCH  20  23
ATOM     23  C13 NON d   1      26.166 -10.942  -6.085  0.00  0.00     0.256 C 
ATOM     24  O3  NON d   1      26.267 -11.119  -7.299  0.00  0.00    -0.267 OA
ATOM     25  N5  NON d   1      25.746  -9.759  -5.490  0.00  0.00    -0.321 N 
ATOM     26  H11 NON d   1      25.877  -9.662  -4.495  0.00  0.00     0.169 HD
BRANCH  25  27
ATOM     27  C14 NON d   1      25.230  -8.593  -6.158  0.00  0.00     0.057 A 
ATOM     28  C15 NON d   1      24.127  -7.939  -5.539  0.00  0.00     0.043 A 
ATOM     29  C16 NON d   1      23.510  -6.771  -6.066  0.00  0.00    -0.024 A 
ATOM     30  C23 NON d   1      24.048  -6.300  -7.274  0.00  0.00     0.014 A 
ATOM     31  C24 NON d   1      25.099  -6.947  -7.921  0.00  0.00     0.026 A 
ATOM     32  C25 NON d   1      25.723  -8.071  -7.373  0.00  0.00     0.033 A 
BRANCH  29  33
ATOM     33  C17 NON d   1      22.349  -6.066  -5.416  0.00  0.00    -0.026 A 
ATOM     34  C18 NON d   1      21.095  -5.923  -6.042  0.00  0.00     0.012 A 
ATOM     35  C19 NON d   1      20.024  -5.252  -5.431  0.00  0.00     0.001 A 
ATOM     36  C20 NON d   1      20.166  -4.700  -4.165  0.00  0.00     0.000 A 
ATOM     37  C21 NON d   1      21.380  -4.822  -3.508  0.00  0.00     0.001 A 
ATOM     38  C22 NON d   1      22.445  -5.492  -4.126  0.00  0.00     0.012 A 
ENDBRANCH  29  33
BRANCH  32  39
ATOM     39  N6  NON d   1      26.606  -8.761  -8.229  0.00  0.00    -0.301 NA
ATOM     40  H20 NON d   1      26.099  -9.490  -8.740  0.00  0.00     0.124 HD
ATOM     41  H21 NON d   1      27.382  -9.187  -7.736  0.00  0.00     0.124 HD
ENDBRANCH  32  39
ENDBRANCH  25  27
ENDBRANCH  20  23
ENDBRANCH  16  17
ENDBRANCH  14  16
ENDBRANCH  11  12
ENDBRANCH  10  11
ENDBRANCH   8  10
ENDBRANCH   3   4
TORSDOF 10
ENDMDL
MODEL 7
REMARK VINA RESULT:   -31.384      6.280      7.261
REMARK INTER + INTRA:         -36.319
REMARK INTER:                 -34.367
REMARK INTRA:                  -1.953
REMARK CONF_INDEPENDENT:        2.983
REMARK UNBOUND:                -1.953
REMARK  10 active torsions:
REMARK  status: ('A' for Active; 'I' for Inactive)
REMARK    1  A    between atoms: N3_3  and  C1_4 
REMARK    2  A    between atoms: C5_8  and  C6_9 
REMARK    3  A    between atoms: C6_9  and  O1_10 
REMARK    4  A    between atoms: O1_10  and  C7_11 
REMARK       I    between atoms: C7_11  and  N4_13 
REMARK    5  A    between atoms: N4_13  and  C8_14 
REMARK    6  A    between atoms: C8_14  and  C9_15 
REMARK    7  A    between atoms: C12_18  and  C13_19 
REMARK       I    between atoms: C13_19  and  N5_21 
REMARK    8  A    between atoms: N5_21  and  C14_22 
REMARK    9  A    between atoms: C16_24  and  C17_25 
REMARK   10  A    between atoms: C25_33  and  N6_34 
ROOT
ATOM      1  N1  NON d   1      18.811 -19.658  -0.877  0.00  0.00     0.068 N 
ATOM      2  N2  NON d   1      19.548 -18.786  -0.895  0.00  0.00    -0.162 NA
ATOM      3  N3  NON d   1      20.343 -17.825  -0.920  0.00  0.00    -0.073 NA
ENDROOT
BRANCH   3   4
ATOM      4  C1  NON d   1      21.703 -18.125  -0.696  0.00  0.00     0.093 A 
ATOM      5  C2  NON d   1      22.214 -19.420  -0.508  0.00  0.00     0.034 A 
ATOM      6  C3  NON d   1      23.577 -19.627  -0.300  0.00  0.00     0.003 A 
ATOM      7  C4  NON d   1      24.448 -18.541  -0.276  0.00  0.00     0.009 A 
ATOM      8  C5  NON d   1      23.977 -17.231  -0.462  0.00  0.00    -0.032 A 
ATOM      9  C28 NON d   1      22.604 -17.041  -0.671  0.00  0.00     0.043 A 
BRANCH   8  10
ATOM     10  C6  NON d   1      25.002 -16.112  -0.420  0.00  0.00     0.219 C 
BRANCH  10  11
ATOM     11  O1  NON d   1      25.903 -16.033  -1.535  0.00  0.00    -0.299 OA
BRANCH  11  12
ATOM     12  C7  NON d   1      26.942 -15.186  -1.269  0.00  0.00     0.361 C 
ATOM     13  O2  NON d   1      26.913 -13.974  -1.443  0.00  0.00    -0.239 OA
ATOM     14  N4  NON d   1      28.021 -15.856  -0.752  0.00  0.00    -0.333 N 
ATOM     15  H6  NON d   1      27.847 -16.806  -0.463  0.00  0.00     0.165 HD
BRANCH  14  16
ATOM     16  C8  NON d   1      29.150 -15.091  -0.256  0.00  0.00     0.163 C 
BRANCH  16  17
ATOM     17  C9  NON d   1      29.023 -14.425   1.100  0.00  0.00    -0.040 A 
ATOM     18  C10 NON d   1      27.822 -14.603   1.824  0.00  0.00     0.010 A 
ATOM     19  C11 NON d   1      27.645 -14.089   3.123  0.00  0.00     0.017 A 
ATOM     20  C12 NON d   1      28.678 -13.377   3.733  0.00  0.00     0.032 A 
ATOM     21  C26 NON d   1      29.863 -13.170   3.002  0.00  0.00     0.017 A 
ATOM     22  C27 NON d   1      30.034 -13.680   1.708  0.00  0.00     0.010 A 
BRANCH  20  23
ATOM     23  C13 NON d   1      28.656 -12.880   5.147  0.00  0.00     0.256 C 
ATOM     24  O3  NON d   1      27.594 -12.388   5.527  0.00  0.00    -0.267 OA
ATOM     25  N5  NON d   1      29.807 -12.972   5.919  0.00  0.00    -0.321 N 
ATOM     26  H11 NON d   1      30.666 -13.221   5.452  0.00  0.00     0.169 HD
BRANCH  25  27
ATOM     27  C14 NON d   1      29.938 -12.646   7.315  0.00  0.00     0.057 A 
ATOM     28  C15 NON d   1      30.448 -13.670   8.163  0.00  0.00     0.043 A 
ATOM     29  C16 NON d   1      30.646 -13.505   9.561  0.00  0.00    -0.024 A 
ATOM     30  C23 NON d   1      30.280 -12.251  10.076  0.00  0.00     0.014 A 
ATOM     31  C24 NON d   1      29.739 -11.248   9.274  0.00  0.00     0.026 A 
ATOM     32  C25 NON d   1      29.586 -11.410   7.894  0.00  0.00     0.033 A 
BRANCH  29  33
ATOM     33  C17 NON d   1      31.192 -14.578  10.467  0.00  0.00    -0.026 A 
ATOM     34  C18 NON d   1      32.542 -14.625  10.865  0.00  0.00     0.012 A 
ATOM     35  C19 NON d   1      33.042 -15.638  11.699  0.00  0.00     0.001 A 
ATOM     36  C20 NON d   1      32.206 -16.643  12.169  0.00  0.00     0.000 A 
ATOM     37  C21 NON d   1      30.869 -16.632  11.807  0.00  0.00     0.001 A 
ATOM     38  C22 NON d   1      30.378 -15.619  10.974  0.00  0.00     0.012 A 
ENDBRANCH  29  33
BRANCH  32  39
ATOM     39  N6  NON d   1      28.820 -10.421   7.242  0.00  0.00    -0.301 NA
ATOM     40  H20 NON d   1      28.491 -10.773   6.339  0.00  0.00     0.124 HD
ATOM     41  H21 NON d   1      29.332  -9.560   7.091  0.00  0.00     0.124 HD
ENDBRANCH  32  39
ENDBRANCH  25  27
ENDBRANCH  20  23
ENDBRANCH  16  17
ENDBRANCH  14  16
ENDBRANCH  11  12
ENDBRANCH  10  11
ENDBRANCH   8  10
ENDBRANCH   3   4
TORSDOF 10
ENDMDL
MODEL 8
REMARK VINA RESULT:   -31.327      6.751      7.688
REMARK INTER + INTRA:         -36.243
REMARK INTER:                 -34.310
REMARK INTRA:                  -1.933
REMARK CONF_INDEPENDENT:        2.983
REMARK UNBOUND:                -1.933
REMARK  10 active torsions:
REMARK  status: ('A' for Active; 'I' for Inactive)
REMARK    1  A    between atoms: N3_3  and  C1_4 
REMARK    2  A    between atoms: C5_8  and  C6_9 
REMARK    3  A    between atoms: C6_9  and  O1_10 
REMARK    4  A    between atoms: O1_10  and  C7_11 
REMARK       I    between atoms: C7_11  and  N4_13 
REMARK    5  A    between atoms: N4_13  and  C8_14 
REMARK    6  A    between atoms: C8_14  and  C9_15 
REMARK    7  A    between atoms: C12_18  and  C13_19 
REMARK       I    between atoms: C13_19  and  N5_21 
REMARK    8  A    between atoms: N5_21  and  C14_22 
REMARK    9  A    between atoms: C16_24  and  C17_25 
REMARK   10  A    between atoms: C25_33  and  N6_34 
ROOT
ATOM      1  N1  NON d   1      18.849 -19.774  -0.814  0.00  0.00     0.068 N 
ATOM      2  N2  NON d   1      19.535 -18.865  -0.895  0.00  0.00    -0.162 NA
ATOM      3  N3  NON d   1      20.273 -17.864  -0.989  0.00  0.00    -0.073 NA
ENDROOT
BRANCH   3   4
ATOM      4  C1  NON d   1      21.655 -18.079  -0.803  0.00  0.00     0.093 A 
ATOM      5  C2  NON d   1      22.239 -19.329  -0.539  0.00  0.00     0.034 A 
ATOM      6  C3  NON d   1      23.619 -19.452  -0.377  0.00  0.00     0.003 A 
ATOM      7  C4  NON d   1      24.433 -18.327  -0.476  0.00  0.00     0.009 A 
ATOM      8  C5  NON d   1      23.888 -17.060  -0.741  0.00  0.00    -0.032 A 
ATOM      9  C28 NON d   1      22.499 -16.954  -0.902  0.00  0.00     0.043 A 
BRANCH   8  10
ATOM     10  C6  NON d   1      24.854 -15.893  -0.830  0.00  0.00     0.219 C 
BRANCH  10  11
ATOM     11  O1  NON d   1      25.762 -15.904  -1.943  0.00  0.00    -0.299 OA
BRANCH  11  12
ATOM     12  C7  NON d   1      26.885 -15.176  -1.668  0.00  0.00     0.361 C 
ATOM     13  O2  NON d   1      26.975 -13.962  -1.797  0.00  0.00    -0.239 OA
ATOM     14  N4  NON d   1      27.900 -15.970  -1.199  0.00  0.00    -0.333 N 
ATOM     15  H6  NON d   1      27.638 -16.908  -0.941  0.00  0.00     0.165 HD
BRANCH  14  16
ATOM     16  C8  NON d   1      29.109 -15.341  -0.699  0.00  0.00     0.163 C 
BRANCH  16  17
ATOM     17  C9  NON d   1      28.986 -14.380   0.467  0.00  0.00    -0.040 A 
ATOM     18  C10 NON d   1      27.747 -14.300   1.142  0.00  0.00     0.010 A 
ATOM     19  C11 NON d   1      27.564 -13.496   2.284  0.00  0.00     0.017 A 
ATOM     20  C12 NON d   1      28.630 -12.746   2.780  0.00  0.00     0.032 A 
ATOM     21  C26 NON d   1      29.857 -12.798   2.092  0.00  0.00     0.017 A 
ATOM     22  C27 NON d   1      30.034 -13.597   0.954  0.00  0.00     0.010 A 
BRANCH  20  23
ATOM     23  C13 NON d   1      28.595 -11.945   4.047  0.00  0.00     0.256 C 
ATOM     24  O3  NON d   1      27.749 -11.052   4.095  0.00  0.00    -0.267 OA
ATOM     25  N5  NON d   1      29.510 -12.224   5.055  0.00  0.00    -0.321 N 
ATOM     26  H11 NON d   1      30.272 -12.848   4.836  0.00  0.00     0.169 HD
BRANCH  25  27
ATOM     27  C14 NON d   1      29.554 -11.634   6.367  0.00  0.00     0.057 A 
ATOM     28  C15 NON d   1      29.424 -12.524   7.470  0.00  0.00     0.043 A 
ATOM     29  C16 NON d   1      29.457 -12.101   8.827  0.00  0.00    -0.024 A 
ATOM     30  C23 NON d   1      29.606 -10.720   9.023  0.00  0.00     0.014 A 
ATOM     31  C24 NON d   1      29.693  -9.824   7.960  0.00  0.00     0.026 A 
ATOM     32  C25 NON d   1      29.699 -10.256   6.630  0.00  0.00     0.033 A 
BRANCH  29  33
ATOM     33  C17 NON d   1      29.329 -13.034  10.003  0.00  0.00    -0.026 A 
ATOM     34  C18 NON d   1      30.383 -13.860  10.441  0.00  0.00     0.012 A 
ATOM     35  C19 NON d   1      30.246 -14.736  11.530  0.00  0.00     0.001 A 
ATOM     36  C20 NON d   1      29.047 -14.816  12.226  0.00  0.00     0.000 A 
ATOM     37  C21 NON d   1      27.985 -14.017  11.834  0.00  0.00     0.001 A 
ATOM     38  C22 NON d   1      28.129 -13.147  10.745  0.00  0.00     0.012 A 
ENDBRANCH  29  33
BRANCH  32  39
ATOM     39  N6  NON d   1      29.557  -9.246   5.657  0.00  0.00    -0.301 NA
ATOM     40  H20 NON d   1      28.893  -8.537   5.983  0.00  0.00     0.124 HD
ATOM     41  H21 NON d   1      29.243  -9.601   4.761  0.00  0.00     0.124 HD
ENDBRANCH  32  39
ENDBRANCH  25  27
ENDBRANCH  20  23
ENDBRANCH  16  17
ENDBRANCH  14  16
ENDBRANCH  11  12
ENDBRANCH  10  11
ENDBRANCH   8  10
ENDBRANCH   3   4
TORSDOF 10
ENDMDL
MODEL 9
REMARK VINA RESULT:   -31.042      8.643     10.417
REMARK INTER + INTRA:         -35.995
REMARK INTER:                 -34.025
REMARK INTRA:                  -1.970
REMARK CONF_INDEPENDENT:        2.983
REMARK UNBOUND:                -1.970
REMARK  10 active torsions:
REMARK  status: ('A' for Active; 'I' for Inactive)
REMARK    1  A    between atoms: N3_3  and  C1_4 
REMARK    2  A    between atoms: C5_8  and  C6_9 
REMARK    3  A    between atoms: C6_9  and  O1_10 
REMARK    4  A    between atoms: O1_10  and  C7_11 
REMARK       I    between atoms: C7_11  and  N4_13 
REMARK    5  A    between atoms: N4_13  and  C8_14 
REMARK    6  A    between atoms: C8_14  and  C9_15 
REMARK    7  A    between atoms: C12_18  and  C13_19 
REMARK       I    between atoms: C13_19  and  N5_21 
REMARK    8  A    between atoms: N5_21  and  C14_22 
REMARK    9  A    between atoms: C16_24  and  C17_25 
REMARK   10  A    between atoms: C25_33  and  N6_34 
ROOT
ATOM      1  N1  NON d   1      18.821 -18.984  -1.149  0.00  0.00     0.068 N 
ATOM      2  N2  NON d   1      19.903 -19.322  -1.007  0.00  0.00    -0.162 NA
ATOM      3  N3  NON d   1      21.079 -19.704  -0.849  0.00  0.00    -0.073 NA
ENDROOT
BRANCH   3   4
ATOM      4  C1  NON d   1      22.065 -18.699  -0.775  0.00  0.00     0.093 A 
ATOM      5  C2  NON d   1      21.811 -17.322  -0.895  0.00  0.00     0.034 A 
ATOM      6  C3  NON d   1      22.848 -16.394  -0.801  0.00  0.00     0.003 A 
ATOM      7  C4  NON d   1      24.152 -16.829  -0.586  0.00  0.00     0.009 A 
ATOM      8  C5  NON d   1      24.448 -18.196  -0.459  0.00  0.00    -0.032 A 
ATOM      9  C28 NON d   1      23.394 -19.116  -0.555  0.00  0.00     0.043 A 
BRANCH   8  10
ATOM     10  C6  NON d   1      25.899 -18.575  -0.226  0.00  0.00     0.219 C 
BRANCH  10  11
ATOM     11  O1  NON d   1      26.573 -17.884   0.837  0.00  0.00    -0.299 OA
BRANCH  11  12
ATOM     12  C7  NON d   1      27.346 -16.868   0.350  0.00  0.00     0.361 C 
ATOM     13  O2  NON d   1      28.380 -17.024  -0.287  0.00  0.00    -0.239 OA
ATOM     14  N4  NON d   1      26.807 -15.640   0.637  0.00  0.00    -0.333 N 
ATOM     15  H6  NON d   1      25.858 -15.648   0.977  0.00  0.00     0.165 HD
BRANCH  14  16
ATOM     16  C8  NON d   1      27.407 -14.455   0.052  0.00  0.00     0.163 C 
BRANCH  16  17
ATOM     17  C9  NON d   1      27.397 -13.173   0.862  0.00  0.00    -0.040 A 
ATOM     18  C10 NON d   1      27.650 -11.954   0.191  0.00  0.00     0.010 A 
ATOM     19  C11 NON d   1      27.582 -10.709   0.846  0.00  0.00     0.017 A 
ATOM     20  C12 NON d   1      27.256 -10.656   2.201  0.00  0.00     0.032 A 
ATOM     21  C26 NON d   1      27.036 -11.870   2.879  0.00  0.00     0.017 A 
ATOM     22  C27 NON d   1      27.107 -13.108   2.225  0.00  0.00     0.010 A 
BRANCH  20  23
ATOM     23  C13 NON d   1      27.041  -9.394   2.980  0.00  0.00     0.256 C 
ATOM     24  O3  NON d   1      25.933  -8.872   2.864  0.00  0.00    -0.267 OA
ATOM     25  N5  NON d   1      28.081  -8.881   3.746  0.00  0.00    -0.321 N 
ATOM     26  H11 NON d   1      28.997  -9.286   3.623  0.00  0.00     0.169 HD
BRANCH  25  27
ATOM     27  C14 NON d   1      28.023  -7.750   4.633  0.00  0.00     0.057 A 
ATOM     28  C15 NON d   1      28.615  -7.916   5.917  0.00  0.00     0.043 A 
ATOM     29  C16 NON d   1      28.649  -6.893   6.904  0.00  0.00    -0.024 A 
ATOM     30  C23 NON d   1      28.031  -5.686   6.541  0.00  0.00     0.014 A 
ATOM     31  C24 NON d   1      27.407  -5.514   5.307  0.00  0.00     0.026 A 
ATOM     32  C25 NON d   1      27.415  -6.514   4.331  0.00  0.00     0.033 A 
BRANCH  29  33
ATOM     33  C17 NON d   1      29.280  -7.054   8.263  0.00  0.00    -0.026 A 
ATOM     34  C18 NON d   1      29.259  -6.039   9.239  0.00  0.00     0.012 A 
ATOM     35  C19 NON d   1      29.862  -6.197  10.498  0.00  0.00     0.001 A 
ATOM     36  C20 NON d   1      30.508  -7.381  10.828  0.00  0.00     0.000 A 
ATOM     37  C21 NON d   1      30.549  -8.409   9.900  0.00  0.00     0.001 A 
ATOM     38  C22 NON d   1      29.946  -8.243   8.646  0.00  0.00     0.012 A 
ENDBRANCH  29  33
BRANCH  32  39
ATOM     39  N6  NON d   1      26.558  -6.303   3.230  0.00  0.00    -0.301 NA
ATOM     40  H20 NON d   1      25.607  -6.111   3.559  0.00  0.00     0.124 HD
ATOM     41  H21 NON d   1      26.533  -7.090   2.593  0.00  0.00     0.124 HD
ENDBRANCH  32  39
ENDBRANCH  25  27
ENDBRANCH  20  23
ENDBRANCH  16  17
ENDBRANCH  14  16
ENDBRANCH  11  12
ENDBRANCH  10  11
ENDBRANCH   8  10
ENDBRANCH   3   4
TORSDOF 10
ENDMDL
