MODEL 1
REMARK VINA RESULT:   -33.013      0.000      0.000
REMARK INTER + INTRA:         -36.891
REMARK INTER:                 -35.101
REMARK INTRA:                  -1.790
REMARK CONF_INDEPENDENT:        2.088
REMARK UNBOUND:                -1.790
REMARK  7 active torsions:
REMARK  status: ('A' for Active; 'I' for Inactive)
REMARK    1  A    between atoms: N1_1  and  C1_2 
REMARK    2  A    between atoms: C6_7  and  N2_8 
REMARK       I    between atoms: N2_8  and  C7_9 
REMARK    3  A    between atoms: C7_9  and  C8_11 
REMARK    4  A    between atoms: C11_14  and  C12_15 
REMARK    5  A    between atoms: C12_15  and  N3_16 
REMARK    6  A    between atoms: N3_16  and  C13_17 
REMARK    7  A    between atoms: C16_21  and  C17_22 
ROOT
ATOM      1  C8  NON d   1      23.607 -17.841  -0.407  0.00  0.00     0.032 A 
ATOM      2  C9  NON d   1      24.774 -18.200   0.281  0.00  0.00     0.017 A 
ATOM      3  C10 NON d   1      25.913 -17.394   0.236  0.00  0.00     0.009 A 
ATOM      4  C11 NON d   1      25.932 -16.203  -0.507  0.00  0.00    -0.045 A 
ATOM      5  C20 NON d   1      24.762 -15.836  -1.188  0.00  0.00     0.009 A 
ATOM      6  C21 NON d   1      23.612 -16.649  -1.145  0.00  0.00     0.017 A 
ENDROOT
BRANCH   4   7
ATOM      7  C12 NON d   1      27.202 -15.370  -0.458  0.00  0.00     0.134 C 
BRANCH   7   8
ATOM      8  N3  NON d   1      27.053 -14.024  -0.974  0.00  0.00    -0.257 NA
ATOM      9  H12 NON d   1      27.869 -13.426  -0.905  0.00  0.00     0.131 HD
BRANCH   8  10
ATOM     10  C13 NON d   1      26.702 -13.995  -2.324  0.00  0.00     0.202 A 
ATOM     11  N4  NON d   1      25.498 -13.538  -2.699  0.00  0.00    -0.231 NA
ATOM     12  C14 NON d   1      25.216 -13.541  -4.010  0.00  0.00     0.122 A 
ATOM     13  C15 NON d   1      26.091 -13.981  -4.966  0.00  0.00     0.053 A 
ATOM     14  C16 NON d   1      27.309 -14.435  -4.501  0.00  0.00     0.092 A 
ATOM     15  N7  NON d   1      27.614 -14.458  -3.181  0.00  0.00    -0.216 NA
BRANCH  14  16
ATOM     16  C17 NON d   1      28.344 -14.906  -5.443  0.00  0.00     0.107 A 
ATOM     17  C18 NON d   1      29.458 -15.758  -5.167  0.00  0.00     0.054 A 
ATOM     18  C19 NON d   1      30.113 -15.923  -6.362  0.00  0.00     0.112 A 
ATOM     19  N5  NON d   1      29.405 -15.199  -7.270  0.00  0.00    -0.289 N 
ATOM     20  N6  NON d   1      28.348 -14.568  -6.746  0.00  0.00    -0.173 NA
ATOM     21  H17 NON d   1      29.583 -15.090  -8.263  0.00  0.00     0.188 HD
ENDBRANCH  14  16
ENDBRANCH   8  10
ENDBRANCH   7   8
ENDBRANCH   4   7
BRANCH   1  22
ATOM     22  C7  NON d   1      22.446 -18.788  -0.309  0.00  0.00     0.256 C 
ATOM     23  N2  NON d   1      21.591 -18.644   0.766  0.00  0.00    -0.321 N 
ATOM     24  H7  NON d   1      21.754 -17.922   1.456  0.00  0.00     0.169 HD
ATOM     25  O1  NON d   1      22.330 -19.638  -1.190  0.00  0.00    -0.267 OA
BRANCH  23  26
ATOM     26  C6  NON d   1      20.481 -19.464   1.092  0.00  0.00     0.056 A 
ATOM     27  C5  NON d   1      20.247 -20.002   2.360  0.00  0.00     0.031 A 
ATOM     28  C4  NON d   1      19.113 -20.782   2.604  0.00  0.00     0.002 A 
ATOM     29  C3  NON d   1      18.208 -21.039   1.579  0.00  0.00     0.002 A 
ATOM     30  C2  NON d   1      18.435 -20.518   0.305  0.00  0.00     0.025 A 
ATOM     31  C1  NON d   1      19.554 -19.713   0.058  0.00  0.00     0.033 A 
BRANCH  31  32
ATOM     32  N1  NON d   1      19.854 -19.303  -1.270  0.00  0.00    -0.301 NA
ATOM     33  H1  NON d   1      20.290 -20.058  -1.796  0.00  0.00     0.124 HD
ATOM     34  H2  NON d   1      20.499 -18.515  -1.229  0.00  0.00     0.124 HD
ENDBRANCH  31  32
ENDBRANCH  23  26
ENDBRANCH   1  22
TORSDOF 7
ENDMDL
MODEL 2
REMARK VINA RESULT:   -32.842      2.971      5.360
REMARK INTER + INTRA:         -36.932
REMARK INTER:                 -34.930
REMARK INTRA:                  -2.002
REMARK CONF_INDEPENDENT:        2.088
REMARK UNBOUND:                -2.002
REMARK  7 active torsions:
REMARK  status: ('A' for Active; 'I' for Inactive)
REMARK    1  A    between atoms: N1_1  and  C1_2 
REMARK    2  A    between atoms: C6_7  and  N2_8 
REMARK       I    between atoms: N2_8  and  C7_9 
REMARK    3  A    between atoms: C7_9  and  C8_11 
REMARK    4  A    between atoms: C11_14  and  C12_15 
REMARK    5  A    between atoms: C12_15  and  N3_16 
REMARK    6  A    between atoms: N3_16  and  C13_17 
REMARK    7  A    between atoms: C16_21  and  C17_22 
ROOT
ATOM      1  C8  NON d   1      23.661 -17.882  -0.386  0.00  0.00     0.032 A 
ATOM      2  C9  NON d   1      24.839 -18.273   0.265  0.00  0.00     0.017 A 
ATOM      3  C10 NON d   1      25.991 -17.488   0.203  0.00  0.00     0.009 A 
ATOM      4  C11 NON d   1      26.013 -16.285  -0.522  0.00  0.00    -0.045 A 
ATOM      5  C20 NON d   1      24.833 -15.886  -1.165  0.00  0.00     0.009 A 
ATOM      6  C21 NON d   1      23.668 -16.678  -1.105  0.00  0.00     0.017 A 
ENDROOT
BRANCH   4   7
ATOM      7  C12 NON d   1      27.299 -15.477  -0.492  0.00  0.00     0.134 C 
BRANCH   7   8
ATOM      8  N3  NON d   1      27.107 -14.046  -0.626  0.00  0.00    -0.257 NA
ATOM      9  H12 NON d   1      26.234 -13.750  -1.048  0.00  0.00     0.131 HD
BRANCH   8  10
ATOM     10  C13 NON d   1      27.157 -13.374   0.597  0.00  0.00     0.202 A 
ATOM     11  N4  NON d   1      26.656 -12.135   0.707  0.00  0.00    -0.231 NA
ATOM     12  C14 NON d   1      26.739 -11.539   1.906  0.00  0.00     0.122 A 
ATOM     13  C15 NON d   1      27.304 -12.132   3.003  0.00  0.00     0.053 A 
ATOM     14  C16 NON d   1      27.796 -13.406   2.809  0.00  0.00     0.092 A 
ATOM     15  N7  NON d   1      27.740 -14.026   1.605  0.00  0.00    -0.216 NA
BRANCH  14  16
ATOM     16  C17 NON d   1      28.401 -14.156   3.928  0.00  0.00     0.107 A 
ATOM     17  C18 NON d   1      29.785 -14.431   4.154  0.00  0.00     0.054 A 
ATOM     18  C19 NON d   1      29.843 -15.138   5.330  0.00  0.00     0.112 A 
ATOM     19  N5  NON d   1      28.555 -15.257   5.748  0.00  0.00    -0.289 N 
ATOM     20  N6  NON d   1      27.667 -14.692   4.922  0.00  0.00    -0.173 NA
ATOM     21  H17 NON d   1      28.206 -15.711   6.587  0.00  0.00     0.188 HD
ENDBRANCH  14  16
ENDBRANCH   8  10
ENDBRANCH   7   8
ENDBRANCH   4   7
BRANCH   1  22
ATOM     22  C7  NON d   1      22.486 -18.809  -0.273  0.00  0.00     0.256 C 
ATOM     23  N2  NON d   1      21.605 -18.604   0.772  0.00  0.00    -0.321 N 
ATOM     24  H7  NON d   1      21.762 -17.851   1.431  0.00  0.00     0.169 HD
ATOM     25  O1  NON d   1      22.380 -19.698  -1.115  0.00  0.00    -0.267 OA
BRANCH  23  26
ATOM     26  C6  NON d   1      20.477 -19.393   1.109  0.00  0.00     0.056 A 
ATOM     27  C5  NON d   1      20.211 -19.875   2.392  0.00  0.00     0.031 A 
ATOM     28  C4  NON d   1      19.061 -20.628   2.645  0.00  0.00     0.002 A 
ATOM     29  C3  NON d   1      18.172 -20.914   1.614  0.00  0.00     0.002 A 
ATOM     30  C2  NON d   1      18.431 -20.449   0.324  0.00  0.00     0.025 A 
ATOM     31  C1  NON d   1      19.567 -19.671   0.067  0.00  0.00     0.033 A 
BRANCH  31  32
ATOM     32  N1  NON d   1      19.899 -19.319  -1.270  0.00  0.00    -0.301 NA
ATOM     33  H1  NON d   1      20.356 -20.093  -1.749  0.00  0.00     0.124 HD
ATOM     34  H2  NON d   1      20.536 -18.523  -1.249  0.00  0.00     0.124 HD
ENDBRANCH  31  32
ENDBRANCH  23  26
ENDBRANCH   1  22
TORSDOF 7
ENDMDL
MODEL 3
REMARK VINA RESULT:   -32.665      1.390      2.366
REMARK INTER + INTRA:         -36.463
REMARK INTER:                 -34.753
REMARK INTRA:                  -1.711
REMARK CONF_INDEPENDENT:        2.088
REMARK UNBOUND:                -1.711
REMARK  7 active torsions:
REMARK  status: ('A' for Active; 'I' for Inactive)
REMARK    1  A    between atoms: N1_1  and  C1_2 
REMARK    2  A    between atoms: C6_7  and  N2_8 
REMARK       I    between atoms: N2_8  and  C7_9 
REMARK    3  A    between atoms: C7_9  and  C8_11 
REMARK    4  A    between atoms: C11_14  and  C12_15 
REMARK    5  A    between atoms: C12_15  and  N3_16 
REMARK    6  A    between atoms: N3_16  and  C13_17 
REMARK    7  A    between atoms: C16_21  and  C17_22 
ROOT
ATOM      1  C8  NON d   1      23.640 -17.849  -0.468  0.00  0.00     0.032 A 
ATOM      2  C9  NON d   1      24.862 -18.268   0.077  0.00  0.00     0.017 A 
ATOM      3  C10 NON d   1      26.004 -17.472  -0.023  0.00  0.00     0.009 A 
ATOM      4  C11 NON d   1      25.972 -16.232  -0.682  0.00  0.00    -0.045 A 
ATOM      5  C20 NON d   1      24.749 -15.807  -1.219  0.00  0.00     0.009 A 
ATOM      6  C21 NON d   1      23.594 -16.609  -1.120  0.00  0.00     0.017 A 
ENDROOT
BRANCH   4   7
ATOM      7  C12 NON d   1      27.255 -15.418  -0.700  0.00  0.00     0.134 C 
BRANCH   7   8
ATOM      8  N3  NON d   1      28.458 -16.198  -0.480  0.00  0.00    -0.257 NA
ATOM      9  H12 NON d   1      28.338 -17.074   0.015  0.00  0.00     0.131 HD
BRANCH   8  10
ATOM     10  C13 NON d   1      29.106 -16.543  -1.666  0.00  0.00     0.202 A 
ATOM     11  N4  NON d   1      30.017 -17.528  -1.675  0.00  0.00    -0.231 NA
ATOM     12  C14 NON d   1      30.611 -17.810  -2.844  0.00  0.00     0.122 A 
ATOM     13  C15 NON d   1      30.331 -17.149  -4.009  0.00  0.00     0.053 A 
ATOM     14  C16 NON d   1      29.382 -16.151  -3.918  0.00  0.00     0.092 A 
ATOM     15  N7  NON d   1      28.778 -15.833  -2.747  0.00  0.00    -0.216 NA
BRANCH  14  16
ATOM     16  C17 NON d   1      28.976 -15.389  -5.116  0.00  0.00     0.107 A 
ATOM     17  C18 NON d   1      28.054 -14.299  -5.192  0.00  0.00     0.054 A 
ATOM     18  C19 NON d   1      28.028 -13.917  -6.511  0.00  0.00     0.112 A 
ATOM     19  N5  NON d   1      28.894 -14.749  -7.149  0.00  0.00    -0.289 N 
ATOM     20  N6  NON d   1      29.466 -15.650  -6.342  0.00  0.00    -0.173 NA
ATOM     21  H17 NON d   1      29.144 -14.761  -8.133  0.00  0.00     0.188 HD
ENDBRANCH  14  16
ENDBRANCH   8  10
ENDBRANCH   7   8
ENDBRANCH   4   7
BRANCH   1  22
ATOM     22  C7  NON d   1      22.478 -18.789  -0.323  0.00  0.00     0.256 C 
ATOM     23  N2  NON d   1      21.610 -18.577   0.731  0.00  0.00    -0.321 N 
ATOM     24  H7  NON d   1      21.766 -17.812   1.375  0.00  0.00     0.169 HD
ATOM     25  O1  NON d   1      22.372 -19.694  -1.148  0.00  0.00    -0.267 OA
BRANCH  23  26
ATOM     26  C6  NON d   1      20.497 -19.375   1.097  0.00  0.00     0.056 A 
ATOM     27  C5  NON d   1      20.261 -19.849   2.389  0.00  0.00     0.031 A 
ATOM     28  C4  NON d   1      19.124 -20.611   2.671  0.00  0.00     0.002 A 
ATOM     29  C3  NON d   1      18.217 -20.913   1.661  0.00  0.00     0.002 A 
ATOM     30  C2  NON d   1      18.446 -20.456   0.362  0.00  0.00     0.025 A 
ATOM     31  C1  NON d   1      19.569 -19.669   0.076  0.00  0.00     0.033 A 
BRANCH  31  32
ATOM     32  N1  NON d   1      19.870 -19.325  -1.270  0.00  0.00    -0.301 NA
ATOM     33  H1  NON d   1      20.640 -19.887  -1.628  0.00  0.00     0.124 HD
ATOM     34  H2  NON d   1      20.137 -18.342  -1.303  0.00  0.00     0.124 HD
ENDBRANCH  31  32
ENDBRANCH  23  26
ENDBRANCH   1  22
TORSDOF 7
ENDMDL
MODEL 4
REMARK VINA RESULT:   -32.623      2.090      3.482
REMARK INTER + INTRA:         -36.476
REMARK INTER:                 -34.711
REMARK INTRA:                  -1.765
REMARK CONF_INDEPENDENT:        2.088
REMARK UNBOUND:                -1.765
REMARK  7 active torsions:
REMARK  status: ('A' for Active; 'I' for Inactive)
REMARK    1  A    between atoms: N1_1  and  C1_2 
REMARK    2  A    between atoms: C6_7  and  N2_8 
REMARK       I    between atoms: N2_8  and  C7_9 
REMARK    3  A    between atoms: C7_9  and  C8_11 
REMARK    4  A    between atoms: C11_14  and  C12_15 
REMARK    5  A    between atoms: C12_15  and  N3_16 
REMARK    6  A    between atoms: N3_16  and  C13_17 
REMARK    7  A    between atoms: C16_21  and  C17_22 
ROOT
ATOM      1  C8  NON d   1      23.700 -17.960  -0.509  0.00  0.00     0.032 A 
ATOM      2  C9  NON d   1      23.553 -16.801  -1.283  0.00  0.00     0.017 A 
ATOM      3  C10 NON d   1      24.619 -15.919  -1.467  0.00  0.00     0.009 A 
ATOM      4  C11 NON d   1      25.870 -16.156  -0.876  0.00  0.00    -0.045 A 
ATOM      5  C20 NON d   1      26.023 -17.321  -0.110  0.00  0.00     0.009 A 
ATOM      6  C21 NON d   1      24.947 -18.212   0.079  0.00  0.00     0.017 A 
ENDROOT
BRANCH   4   7
ATOM      7  C12 NON d   1      26.981 -15.163  -1.172  0.00  0.00     0.134 C 
BRANCH   7   8
ATOM      8  N3  NON d   1      26.549 -13.780  -1.213  0.00  0.00    -0.257 NA
ATOM      9  H12 NON d   1      27.201 -13.097  -0.845  0.00  0.00     0.131 HD
BRANCH   8  10
ATOM     10  C13 NON d   1      26.262 -13.338  -2.506  0.00  0.00     0.202 A 
ATOM     11  N4  NON d   1      26.124 -14.222  -3.505  0.00  0.00    -0.231 NA
ATOM     12  C14 NON d   1      25.855 -13.736  -4.727  0.00  0.00     0.122 A 
ATOM     13  C15 NON d   1      25.716 -12.400  -4.991  0.00  0.00     0.053 A 
ATOM     14  C16 NON d   1      25.872 -11.556  -3.911  0.00  0.00     0.092 A 
ATOM     15  N7  NON d   1      26.160 -12.018  -2.670  0.00  0.00    -0.216 NA
BRANCH  14  16
ATOM     16  C17 NON d   1      25.715 -10.097  -4.070  0.00  0.00     0.107 A 
ATOM     17  C18 NON d   1      26.094  -9.290  -5.187  0.00  0.00     0.054 A 
ATOM     18  C19 NON d   1      25.725  -8.006  -4.869  0.00  0.00     0.112 A 
ATOM     19  N5  NON d   1      25.165  -8.083  -3.632  0.00  0.00    -0.289 N 
ATOM     20  N6  NON d   1      25.158  -9.320  -3.121  0.00  0.00    -0.173 NA
ATOM     21  H17 NON d   1      24.767  -7.333  -3.074  0.00  0.00     0.188 HD
ENDBRANCH  14  16
ENDBRANCH   8  10
ENDBRANCH   7   8
ENDBRANCH   4   7
BRANCH   1  22
ATOM     22  C7  NON d   1      22.486 -18.830  -0.357  0.00  0.00     0.256 C 
ATOM     23  N2  NON d   1      21.662 -18.599   0.728  0.00  0.00    -0.321 N 
ATOM     24  H7  NON d   1      21.884 -17.866   1.390  0.00  0.00     0.169 HD
ATOM     25  O1  NON d   1      22.300 -19.699  -1.206  0.00  0.00    -0.267 OA
BRANCH  23  26
ATOM     26  C6  NON d   1      20.512 -19.337   1.102  0.00  0.00     0.056 A 
ATOM     27  C5  NON d   1      20.248 -19.777   2.401  0.00  0.00     0.031 A 
ATOM     28  C4  NON d   1      19.076 -20.480   2.690  0.00  0.00     0.002 A 
ATOM     29  C3  NON d   1      18.160 -20.758   1.681  0.00  0.00     0.002 A 
ATOM     30  C2  NON d   1      18.416 -20.335   0.376  0.00  0.00     0.025 A 
ATOM     31  C1  NON d   1      19.575 -19.606   0.082  0.00  0.00     0.033 A 
BRANCH  31  32
ATOM     32  N1  NON d   1      19.897 -19.301  -1.269  0.00  0.00    -0.301 NA
ATOM     33  H1  NON d   1      20.290 -20.112  -1.744  0.00  0.00     0.124 HD
ATOM     34  H2  NON d   1      20.587 -18.550  -1.277  0.00  0.00     0.124 HD
ENDBRANCH  31  32
ENDBRANCH  23  26
ENDBRANCH   1  22
TORSDOF 7
ENDMDL
MODEL 5
REMARK VINA RESULT:   -32.427      1.295      2.568
REMARK INTER + INTRA:         -36.535
REMARK INTER:                 -34.515
REMARK INTRA:                  -2.020
REMARK CONF_INDEPENDENT:        2.088
REMARK UNBOUND:                -2.020
REMARK  7 active torsions:
REMARK  status: ('A' for Active; 'I' for Inactive)
REMARK    1  A    between atoms: N1_1  and  C1_2 
REMARK    2  A    between atoms: C6_7  and  N2_8 
REMARK       I    between atoms: N2_8  and  C7_9 
REMARK    3  A    between atoms: C7_9  and  C8_11 
REMARK    4  A    between atoms: C11_14  and  C12_15 
REMARK    5  A    between atoms: C12_15  and  N3_16 
REMARK    6  A    between atoms: N3_16  and  C13_17 
REMARK    7  A    between atoms: C16_21  and  C17_22 
ROOT
ATOM      1  C8  NON d   1      23.630 -17.874  -0.564  0.00  0.00     0.032 A 
ATOM      2  C9  NON d   1      24.882 -18.367  -0.173  0.00  0.00     0.017 A 
ATOM      3  C10 NON d   1      26.036 -17.595  -0.316  0.00  0.00     0.009 A 
ATOM      4  C11 NON d   1      25.984 -16.304  -0.867  0.00  0.00    -0.045 A 
ATOM      5  C20 NON d   1      24.731 -15.805  -1.250  0.00  0.00     0.009 A 
ATOM      6  C21 NON d   1      23.564 -16.583  -1.107  0.00  0.00     0.017 A 
ENDROOT
BRANCH   4   7
ATOM      7  C12 NON d   1      27.285 -15.524  -0.941  0.00  0.00     0.134 C 
BRANCH   7   8
ATOM      8  N3  NON d   1      28.319 -16.162  -1.732  0.00  0.00    -0.257 NA
ATOM      9  H12 NON d   1      28.229 -17.164  -1.859  0.00  0.00     0.131 HD
BRANCH   8  10
ATOM     10  C13 NON d   1      28.411 -15.645  -3.025  0.00  0.00     0.202 A 
ATOM     11  N4  NON d   1      29.167 -16.261  -3.946  0.00  0.00    -0.231 NA
ATOM     12  C14 NON d   1      29.221 -15.713  -5.169  0.00  0.00     0.122 A 
ATOM     13  C15 NON d   1      28.548 -14.571  -5.512  0.00  0.00     0.053 A 
ATOM     14  C16 NON d   1      27.792 -13.998  -4.510  0.00  0.00     0.092 A 
ATOM     15  N7  NON d   1      27.732 -14.521  -3.261  0.00  0.00    -0.216 NA
BRANCH  14  16
ATOM     16  C17 NON d   1      26.998 -12.781  -4.772  0.00  0.00     0.107 A 
ATOM     17  C18 NON d   1      27.086 -11.900  -5.895  0.00  0.00     0.054 A 
ATOM     18  C19 NON d   1      26.132 -10.933  -5.692  0.00  0.00     0.112 A 
ATOM     19  N5  NON d   1      25.535 -11.250  -4.512  0.00  0.00    -0.289 N 
ATOM     20  N6  NON d   1      26.042 -12.344  -3.931  0.00  0.00    -0.173 NA
ATOM     21  H17 NON d   1      24.775 -10.767  -4.042  0.00  0.00     0.188 HD
ENDBRANCH  14  16
ENDBRANCH   8  10
ENDBRANCH   7   8
ENDBRANCH   4   7
BRANCH   1  22
ATOM     22  C7  NON d   1      22.457 -18.794  -0.385  0.00  0.00     0.256 C 
ATOM     23  N2  NON d   1      21.618 -18.562   0.688  0.00  0.00    -0.321 N 
ATOM     24  H7  NON d   1      21.803 -17.796   1.324  0.00  0.00     0.169 HD
ATOM     25  O1  NON d   1      22.315 -19.700  -1.203  0.00  0.00    -0.267 OA
BRANCH  23  26
ATOM     26  C6  NON d   1      20.501 -19.339   1.086  0.00  0.00     0.056 A 
ATOM     27  C5  NON d   1      20.283 -19.792   2.389  0.00  0.00     0.031 A 
ATOM     28  C4  NON d   1      19.140 -20.534   2.702  0.00  0.00     0.002 A 
ATOM     29  C3  NON d   1      18.211 -20.838   1.712  0.00  0.00     0.002 A 
ATOM     30  C2  NON d   1      18.423 -20.402   0.404  0.00  0.00     0.025 A 
ATOM     31  C1  NON d   1      19.550 -19.635   0.086  0.00  0.00     0.033 A 
BRANCH  31  32
ATOM     32  N1  NON d   1      19.831 -19.314  -1.270  0.00  0.00    -0.301 NA
ATOM     33  H1  NON d   1      20.298 -20.087  -1.740  0.00  0.00     0.124 HD
ATOM     34  H2  NON d   1      20.444 -18.499  -1.292  0.00  0.00     0.124 HD
ENDBRANCH  31  32
ENDBRANCH  23  26
ENDBRANCH   1  22
TORSDOF 7
ENDMDL
MODEL 6
REMARK VINA RESULT:   -31.869      2.226      2.898
REMARK INTER + INTRA:         -35.623
REMARK INTER:                 -33.957
REMARK INTRA:                  -1.666
REMARK CONF_INDEPENDENT:        2.088
REMARK UNBOUND:                -1.666
REMARK  7 active torsions:
REMARK  status: ('A' for Active; 'I' for Inactive)
REMARK    1  A    between atoms: N1_1  and  C1_2 
REMARK    2  A    between atoms: C6_7  and  N2_8 
REMARK       I    between atoms: N2_8  and  C7_9 
REMARK    3  A    between atoms: C7_9  and  C8_11 
REMARK    4  A    between atoms: C11_14  and  C12_15 
REMARK    5  A    between atoms: C12_15  and  N3_16 
REMARK    6  A    between atoms: N3_16  and  C13_17 
REMARK    7  A    between atoms: C16_21  and  C17_22 
ROOT
ATOM      1  C8  NON d   1      23.376 -17.443  -0.653  0.00  0.00     0.032 A 
ATOM      2  C9  NON d   1      24.421 -18.205  -0.113  0.00  0.00     0.017 A 
ATOM      3  C10 NON d   1      25.754 -17.894  -0.388  0.00  0.00     0.009 A 
ATOM      4  C11 NON d   1      26.092 -16.816  -1.222  0.00  0.00    -0.045 A 
ATOM      5  C20 NON d   1      25.049 -16.046  -1.754  0.00  0.00     0.009 A 
ATOM      6  C21 NON d   1      23.702 -16.358  -1.479  0.00  0.00     0.017 A 
ENDROOT
BRANCH   4   7
ATOM      7  C12 NON d   1      27.571 -16.529  -1.425  0.00  0.00     0.134 C 
BRANCH   7   8
ATOM      8  N3  NON d   1      28.179 -15.753  -0.362  0.00  0.00    -0.257 NA
ATOM      9  H12 NON d   1      29.185 -15.832  -0.271  0.00  0.00     0.131 HD
BRANCH   8  10
ATOM     10  C13 NON d   1      27.937 -14.384  -0.481  0.00  0.00     0.202 A 
ATOM     11  N4  NON d   1      28.228 -13.557   0.533  0.00  0.00    -0.231 NA
ATOM     12  C14 NON d   1      27.967 -12.252   0.362  0.00  0.00     0.122 A 
ATOM     13  C15 NON d   1      27.427 -11.738  -0.786  0.00  0.00     0.053 A 
ATOM     14  C16 NON d   1      27.157 -12.653  -1.783  0.00  0.00     0.092 A 
ATOM     15  N7  NON d   1      27.395 -13.978  -1.631  0.00  0.00    -0.216 NA
BRANCH  14  16
ATOM     16  C17 NON d   1      26.601 -12.210  -3.078  0.00  0.00     0.107 A 
ATOM     17  C18 NON d   1      26.723 -12.851  -4.350  0.00  0.00     0.054 A 
ATOM     18  C19 NON d   1      26.020 -12.071  -5.235  0.00  0.00     0.112 A 
ATOM     19  N5  NON d   1      25.525 -11.040  -4.500  0.00  0.00    -0.289 N 
ATOM     20  N6  NON d   1      25.868 -11.089  -3.207  0.00  0.00    -0.173 NA
ATOM     21  H17 NON d   1      24.946 -10.267  -4.812  0.00  0.00     0.188 HD
ENDBRANCH  14  16
ENDBRANCH   8  10
ENDBRANCH   7   8
ENDBRANCH   4   7
BRANCH   1  22
ATOM     22  C7  NON d   1      21.979 -17.874  -0.310  0.00  0.00     0.256 C 
ATOM     23  N2  NON d   1      21.828 -18.861   0.644  0.00  0.00    -0.321 N 
ATOM     24  H7  NON d   1      22.641 -19.271   1.087  0.00  0.00     0.169 HD
ATOM     25  O1  NON d   1      21.053 -17.325  -0.904  0.00  0.00    -0.267 OA
BRANCH  23  26
ATOM     26  C6  NON d   1      20.618 -19.466   1.068  0.00  0.00     0.056 A 
ATOM     27  C5  NON d   1      20.366 -19.890   2.375  0.00  0.00     0.031 A 
ATOM     28  C4  NON d   1      19.134 -20.455   2.714  0.00  0.00     0.002 A 
ATOM     29  C3  NON d   1      18.146 -20.610   1.748  0.00  0.00     0.002 A 
ATOM     30  C2  NON d   1      18.387 -20.202   0.436  0.00  0.00     0.025 A 
ATOM     31  C1  NON d   1      19.609 -19.609   0.092  0.00  0.00     0.033 A 
BRANCH  31  32
ATOM     32  N1  NON d   1      19.901 -19.325  -1.270  0.00  0.00    -0.301 NA
ATOM     33  H1  NON d   1      20.871 -19.544  -1.490  0.00  0.00     0.124 HD
ATOM     34  H2  NON d   1      19.743 -18.331  -1.436  0.00  0.00     0.124 HD
ENDBRANCH  31  32
ENDBRANCH  23  26
ENDBRANCH   1  22
TORSDOF 7
ENDMDL
MODEL 7
REMARK VINA RESULT:   -31.774      1.572      2.150
REMARK INTER + INTRA:         -35.884
REMARK INTER:                 -33.862
REMARK INTRA:                  -2.022
REMARK CONF_INDEPENDENT:        2.088
REMARK UNBOUND:                -2.022
REMARK  7 active torsions:
REMARK  status: ('A' for Active; 'I' for Inactive)
REMARK    1  A    between atoms: N1_1  and  C1_2 
REMARK    2  A    between atoms: C6_7  and  N2_8 
REMARK       I    between atoms: N2_8  and  C7_9 
REMARK    3  A    between atoms: C7_9  and  C8_11 
REMARK    4  A    between atoms: C11_14  and  C12_15 
REMARK    5  A    between atoms: C12_15  and  N3_16 
REMARK    6  A    between atoms: N3_16  and  C13_17 
REMARK    7  A    between atoms: C16_21  and  C17_22 
ROOT
ATOM      1  C8  NON d   1      23.700 -17.902  -0.509  0.00  0.00     0.032 A 
ATOM      2  C9  NON d   1      23.498 -16.712  -1.221  0.00  0.00     0.017 A 
ATOM      3  C10 NON d   1      24.538 -15.800  -1.406  0.00  0.00     0.009 A 
ATOM      4  C11 NON d   1      25.817 -16.037  -0.877  0.00  0.00    -0.045 A 
ATOM      5  C20 NON d   1      26.024 -17.232  -0.174  0.00  0.00     0.009 A 
ATOM      6  C21 NON d   1      24.975 -18.155   0.015  0.00  0.00     0.017 A 
ENDROOT
BRANCH   4   7
ATOM      7  C12 NON d   1      26.895 -15.008  -1.171  0.00  0.00     0.134 C 
BRANCH   7   8
ATOM      8  N3  NON d   1      26.617 -14.164  -2.317  0.00  0.00    -0.257 NA
ATOM      9  H12 NON d   1      26.831 -13.179  -2.209  0.00  0.00     0.131 HD
BRANCH   8  10
ATOM     10  C13 NON d   1      27.312 -14.557  -3.462  0.00  0.00     0.202 A 
ATOM     11  N4  NON d   1      27.068 -13.958  -4.638  0.00  0.00    -0.231 NA
ATOM     12  C14 NON d   1      27.763 -14.383  -5.703  0.00  0.00     0.122 A 
ATOM     13  C15 NON d   1      28.695 -15.383  -5.643  0.00  0.00     0.053 A 
ATOM     14  C16 NON d   1      28.889 -15.948  -4.400  0.00  0.00     0.092 A 
ATOM     15  N7  NON d   1      28.190 -15.550  -3.309  0.00  0.00    -0.216 NA
BRANCH  14  16
ATOM     16  C17 NON d   1      29.892 -17.015  -4.207  0.00  0.00     0.107 A 
ATOM     17  C18 NON d   1      30.841 -17.146  -3.146  0.00  0.00     0.054 A 
ATOM     18  C19 NON d   1      31.531 -18.306  -3.398  0.00  0.00     0.112 A 
ATOM     19  N5  NON d   1      30.998 -18.807  -4.544  0.00  0.00    -0.289 N 
ATOM     20  N6  NON d   1      30.025 -18.048  -5.060  0.00  0.00    -0.173 NA
ATOM     21  H17 NON d   1      31.249 -19.661  -5.033  0.00  0.00     0.188 HD
ENDBRANCH  14  16
ENDBRANCH   8  10
ENDBRANCH   7   8
ENDBRANCH   4   7
BRANCH   1  22
ATOM     22  C7  NON d   1      22.510 -18.804  -0.350  0.00  0.00     0.256 C 
ATOM     23  N2  NON d   1      21.666 -18.571   0.718  0.00  0.00    -0.321 N 
ATOM     24  H7  NON d   1      21.857 -17.815   1.364  0.00  0.00     0.169 HD
ATOM     25  O1  NON d   1      22.361 -19.700  -1.179  0.00  0.00    -0.267 OA
BRANCH  23  26
ATOM     26  C6  NON d   1      20.533 -19.334   1.098  0.00  0.00     0.056 A 
ATOM     27  C5  NON d   1      20.287 -19.782   2.397  0.00  0.00     0.031 A 
ATOM     28  C4  NON d   1      19.130 -20.511   2.691  0.00  0.00     0.002 A 
ATOM     29  C3  NON d   1      18.215 -20.805   1.686  0.00  0.00     0.002 A 
ATOM     30  C2  NON d   1      18.454 -20.374   0.381  0.00  0.00     0.025 A 
ATOM     31  C1  NON d   1      19.596 -19.620   0.082  0.00  0.00     0.033 A 
BRANCH  31  32
ATOM     32  N1  NON d   1      19.905 -19.305  -1.270  0.00  0.00    -0.301 NA
ATOM     33  H1  NON d   1      20.337 -20.098  -1.741  0.00  0.00     0.124 HD
ATOM     34  H2  NON d   1      20.557 -18.521  -1.281  0.00  0.00     0.124 HD
ENDBRANCH  31  32
ENDBRANCH  23  26
ENDBRANCH   1  22
TORSDOF 7
ENDMDL
MODEL 8
REMARK VINA RESULT:   -31.458      4.525      9.342
REMARK INTER + INTRA:         -35.252
REMARK INTER:                 -33.546
REMARK INTRA:                  -1.706
REMARK CONF_INDEPENDENT:        2.088
REMARK UNBOUND:                -1.706
REMARK  7 active torsions:
REMARK  status: ('A' for Active; 'I' for Inactive)
REMARK    1  A    between atoms: N1_1  and  C1_2 
REMARK    2  A    between atoms: C6_7  and  N2_8 
REMARK       I    between atoms: N2_8  and  C7_9 
REMARK    3  A    between atoms: C7_9  and  C8_11 
REMARK    4  A    between atoms: C11_14  and  C12_15 
REMARK    5  A    between atoms: C12_15  and  N3_16 
REMARK    6  A    between atoms: N3_16  and  C13_17 
REMARK    7  A    between atoms: C16_21  and  C17_22 
ROOT
ATOM      1  C8  NON d   1      27.691 -14.363   1.586  0.00  0.00     0.032 A 
ATOM      2  C9  NON d   1      27.095 -13.361   0.808  0.00  0.00     0.017 A 
ATOM      3  C10 NON d   1      26.349 -13.680  -0.328  0.00  0.00     0.009 A 
ATOM      4  C11 NON d   1      26.180 -15.013  -0.736  0.00  0.00    -0.045 A 
ATOM      5  C20 NON d   1      26.766 -16.017   0.046  0.00  0.00     0.009 A 
ATOM      6  C21 NON d   1      27.521 -15.698   1.193  0.00  0.00     0.017 A 
ENDROOT
BRANCH   4   7
ATOM      7  C12 NON d   1      25.313 -15.263  -1.959  0.00  0.00     0.134 C 
BRANCH   7   8
ATOM      8  N3  NON d   1      23.928 -15.568  -1.656  0.00  0.00    -0.257 NA
ATOM      9  H12 NON d   1      23.272 -15.471  -2.423  0.00  0.00     0.131 HD
BRANCH   8  10
ATOM     10  C13 NON d   1      23.747 -16.872  -1.193  0.00  0.00     0.202 A 
ATOM     11  N4  NON d   1      24.808 -17.657  -0.957  0.00  0.00    -0.231 NA
ATOM     12  C14 NON d   1      24.571 -18.902  -0.520  0.00  0.00     0.122 A 
ATOM     13  C15 NON d   1      23.312 -19.397  -0.307  0.00  0.00     0.053 A 
ATOM     14  C16 NON d   1      22.274 -18.529  -0.572  0.00  0.00     0.092 A 
ATOM     15  N7  NON d   1      22.484 -17.270  -1.030  0.00  0.00    -0.216 NA
BRANCH  14  16
ATOM     16  C17 NON d   1      20.874 -18.942  -0.350  0.00  0.00     0.107 A 
ATOM     17  C18 NON d   1      20.320 -19.583   0.801  0.00  0.00     0.054 A 
ATOM     18  C19 NON d   1      18.981 -19.741   0.539  0.00  0.00     0.112 A 
ATOM     19  N5  NON d   1      18.787 -19.214  -0.700  0.00  0.00    -0.289 N 
ATOM     20  N6  NON d   1      19.905 -18.741  -1.263  0.00  0.00    -0.173 NA
ATOM     21  H17 NON d   1      17.921 -19.143  -1.224  0.00  0.00     0.188 HD
ENDBRANCH  14  16
ENDBRANCH   8  10
ENDBRANCH   7   8
ENDBRANCH   4   7
BRANCH   1  22
ATOM     22  C7  NON d   1      28.488 -13.911   2.775  0.00  0.00     0.256 C 
ATOM     23  N2  NON d   1      27.878 -13.964   4.013  0.00  0.00    -0.321 N 
ATOM     24  H7  NON d   1      26.926 -14.297   4.100  0.00  0.00     0.169 HD
ATOM     25  O1  NON d   1      29.634 -13.516   2.574  0.00  0.00    -0.267 OA
BRANCH  23  26
ATOM     26  C6  NON d   1      28.413 -13.525   5.251  0.00  0.00     0.056 A 
ATOM     27  C5  NON d   1      27.766 -12.643   6.118  0.00  0.00     0.031 A 
ATOM     28  C4  NON d   1      28.354 -12.280   7.333  0.00  0.00     0.002 A 
ATOM     29  C3  NON d   1      29.599 -12.789   7.687  0.00  0.00     0.002 A 
ATOM     30  C2  NON d   1      30.263 -13.663   6.825  0.00  0.00     0.025 A 
ATOM     31  C1  NON d   1      29.669 -14.054   5.618  0.00  0.00     0.033 A 
BRANCH  31  32
ATOM     32  N1  NON d   1      30.407 -14.830   4.683  0.00  0.00    -0.301 NA
ATOM     33  H1  NON d   1      31.064 -14.250   4.164  0.00  0.00     0.124 HD
ATOM     34  H2  NON d   1      29.754 -15.256   4.026  0.00  0.00     0.124 HD
ENDBRANCH  31  32
ENDBRANCH  23  26
ENDBRANCH   1  22
TORSDOF 7
ENDMDL
MODEL 9
REMARK VINA RESULT:   -31.227      3.424      5.055
REMARK INTER + INTRA:         -35.172
REMARK INTER:                 -33.316
REMARK INTRA:                  -1.856
REMARK CONF_INDEPENDENT:        2.088
REMARK UNBOUND:                -1.856
REMARK  7 active torsions:
REMARK  status: ('A' for Active; 'I' for Inactive)
REMARK    1  A    between atoms: N1_1  and  C1_2 
REMARK    2  A    between atoms: C6_7  and  N2_8 
REMARK       I    between atoms: N2_8  and  C7_9 
REMARK    3  A    between atoms: C7_9  and  C8_11 
REMARK    4  A    between atoms: C11_14  and  C12_15 
REMARK    5  A    between atoms: C12_15  and  N3_16 
REMARK    6  A    between atoms: N3_16  and  C13_17 
REMARK    7  A    between atoms: C16_21  and  C17_22 
ROOT
ATOM      1  C8  NON d   1      23.656 -17.890  -0.303  0.00  0.00     0.032 A 
ATOM      2  C9  NON d   1      24.832 -18.319   0.326  0.00  0.00     0.017 A 
ATOM      3  C10 NON d   1      25.987 -17.535   0.304  0.00  0.00     0.009 A 
ATOM      4  C11 NON d   1      26.012 -16.296  -0.357  0.00  0.00    -0.045 A 
ATOM      5  C20 NON d   1      24.833 -15.860  -0.977  0.00  0.00     0.009 A 
ATOM      6  C21 NON d   1      23.666 -16.650  -0.957  0.00  0.00     0.017 A 
ENDROOT
BRANCH   4   7
ATOM      7  C12 NON d   1      27.301 -15.494  -0.287  0.00  0.00     0.134 C 
BRANCH   7   8
ATOM      8  N3  NON d   1      27.695 -15.116   1.057  0.00  0.00    -0.257 NA
ATOM      9  H12 NON d   1      28.324 -15.752   1.533  0.00  0.00     0.131 HD
BRANCH   8  10
ATOM     10  C13 NON d   1      28.335 -13.877   1.107  0.00  0.00     0.202 A 
ATOM     11  N4  NON d   1      29.671 -13.803   1.004  0.00  0.00    -0.231 NA
ATOM     12  C14 NON d   1      30.229 -12.585   1.066  0.00  0.00     0.122 A 
ATOM     13  C15 NON d   1      29.506 -11.434   1.226  0.00  0.00     0.053 A 
ATOM     14  C16 NON d   1      28.139 -11.593   1.323  0.00  0.00     0.092 A 
ATOM     15  N7  NON d   1      27.549 -12.813   1.280  0.00  0.00    -0.216 NA
BRANCH  14  16
ATOM     16  C17 NON d   1      27.254 -10.420   1.467  0.00  0.00     0.107 A 
ATOM     17  C18 NON d   1      26.245 -10.198   2.455  0.00  0.00     0.054 A 
ATOM     18  C19 NON d   1      25.715  -8.960   2.183  0.00  0.00     0.112 A 
ATOM     19  N5  NON d   1      26.391  -8.505   1.094  0.00  0.00    -0.289 N 
ATOM     20  N6  NON d   1      27.309  -9.363   0.634  0.00  0.00    -0.173 NA
ATOM     21  H17 NON d   1      26.280  -7.620   0.611  0.00  0.00     0.188 HD
ENDBRANCH  14  16
ENDBRANCH   8  10
ENDBRANCH   7   8
ENDBRANCH   4   7
BRANCH   1  22
ATOM     22  C7  NON d   1      22.477 -18.818  -0.237  0.00  0.00     0.256 C 
ATOM     23  N2  NON d   1      21.594 -18.659   0.813  0.00  0.00    -0.321 N 
ATOM     24  H7  NON d   1      21.749 -17.938   1.506  0.00  0.00     0.169 HD
ATOM     25  O1  NON d   1      22.372 -19.667  -1.119  0.00  0.00    -0.267 OA
BRANCH  23  26
ATOM     26  C6  NON d   1      20.462 -19.460   1.109  0.00  0.00     0.056 A 
ATOM     27  C5  NON d   1      20.186 -19.996   2.369  0.00  0.00     0.031 A 
ATOM     28  C4  NON d   1      19.033 -20.757   2.581  0.00  0.00     0.002 A 
ATOM     29  C3  NON d   1      18.151 -20.997   1.533  0.00  0.00     0.002 A 
ATOM     30  C2  NON d   1      18.420 -20.478   0.266  0.00  0.00     0.025 A 
ATOM     31  C1  NON d   1      19.559 -19.692   0.050  0.00  0.00     0.033 A 
BRANCH  31  32
ATOM     32  N1  NON d   1      19.900 -19.285  -1.269  0.00  0.00    -0.301 NA
ATOM     33  H1  NON d   1      20.366 -20.036  -1.774  0.00  0.00     0.124 HD
ATOM     34  H2  NON d   1      20.532 -18.487  -1.210  0.00  0.00     0.124 HD
ENDBRANCH  31  32
ENDBRANCH  23  26
ENDBRANCH   1  22
TORSDOF 7
ENDMDL
