MODEL 1
REMARK VINA RESULT:    -6.460      0.000      0.000
REMARK INTER + INTRA:          -8.885
REMARK INTER:                  -7.952
REMARK INTRA:                  -0.933
REMARK CONF_INDEPENDENT:        1.492
REMARK UNBOUND:                -0.933
REMARK  5 active torsions:
REMARK  status: ('A' for Active; 'I' for Inactive)
REMARK    1  A    between atoms: C1_2  and  C2_3 
REMARK       I    between atoms: C1_2  and  N1_12 
REMARK    2  A    between atoms: C2_3  and  C3_4 
REMARK    3  A    between atoms: C3_4  and  C4_5 
REMARK    4  A    between atoms: C4_5  and  C5_6 
REMARK    5  A    between atoms: N1_12  and  O2_13 
ROOT
ATOM      1  C3  NON d   1      22.277 -19.220  -0.532  0.00  0.00     0.014 C 
ENDROOT
BRANCH   1   2
ATOM      2  C2  NON d   1      21.027 -19.410   0.326  0.00  0.00     0.105 C 
BRANCH   2   3
ATOM      3  C1  NON d   1      19.798 -19.807  -0.459  0.00  0.00     0.240 C 
ATOM      4  O1  NON d   1      19.708 -19.700  -1.678  0.00  0.00    -0.271 OA
ATOM      5  N1  NON d   1      18.770 -20.312   0.308  0.00  0.00    -0.237 N 
ATOM      6  H12 NON d   1      18.953 -20.783   1.187  0.00  0.00     0.197 HD
BRANCH   5   7
ATOM      7  O2  NON d   1      17.684 -20.831  -0.443  0.00  0.00    -0.287 OA
ATOM      8  H13 NON d   1      17.661 -20.233  -1.224  0.00  0.00     0.244 HD
ENDBRANCH   5   7
ENDBRANCH   2   3
ENDBRANCH   1   2
BRANCH   1   9
ATOM      9  C4  NON d   1      22.762 -17.763  -0.624  0.00  0.00     0.039 C 
BRANCH   9  10
ATOM     10  C5  NON d   1      24.237 -17.455  -0.521  0.00  0.00    -0.058 A 
ATOM     11  C6  NON d   1      24.759 -16.433  -1.331  0.00  0.00     0.007 A 
ATOM     12  C7  NON d   1      26.127 -16.151  -1.354  0.00  0.00     0.001 A 
ATOM     13  C8  NON d   1      27.001 -16.894  -0.567  0.00  0.00     0.000 A 
ATOM     14  C9  NON d   1      26.504 -17.918   0.237  0.00  0.00     0.001 A 
ATOM     15  C10 NON d   1      25.135 -18.202   0.254  0.00  0.00     0.007 A 
ENDBRANCH   9  10
ENDBRANCH   1   9
TORSDOF 5
ENDMDL
MODEL 2
REMARK VINA RESULT:    -6.428      0.087      1.337
REMARK INTER + INTRA:          -8.870
REMARK INTER:                  -7.919
REMARK INTRA:                  -0.950
REMARK CONF_INDEPENDENT:        1.492
REMARK UNBOUND:                -0.950
REMARK  5 active torsions:
REMARK  status: ('A' for Active; 'I' for Inactive)
REMARK    1  A    between atoms: C1_2  and  C2_3 
REMARK       I    between atoms: C1_2  and  N1_12 
REMARK    2  A    between atoms: C2_3  and  C3_4 
REMARK    3  A    between atoms: C3_4  and  C4_5 
REMARK    4  A    between atoms: C4_5  and  C5_6 
REMARK    5  A    between atoms: N1_12  and  O2_13 
ROOT
ATOM      1  C3  NON d   1      22.230 -19.189  -0.428  0.00  0.00     0.014 C 
ENDROOT
BRANCH   1   2
ATOM      2  C2  NON d   1      20.936 -19.338   0.370  0.00  0.00     0.105 C 
BRANCH   2   3
ATOM      3  C1  NON d   1      19.749 -19.773  -0.458  0.00  0.00     0.240 C 
ATOM      4  O1  NON d   1      19.714 -19.700  -1.683  0.00  0.00    -0.271 OA
ATOM      5  N1  NON d   1      18.694 -20.272   0.275  0.00  0.00    -0.237 N 
ATOM      6  H12 NON d   1      18.842 -20.716   1.175  0.00  0.00     0.197 HD
BRANCH   5   7
ATOM      7  O2  NON d   1      17.650 -20.826  -0.510  0.00  0.00    -0.287 OA
ATOM      8  H13 NON d   1      17.816 -20.430  -1.395  0.00  0.00     0.244 HD
ENDBRANCH   5   7
ENDBRANCH   2   3
ENDBRANCH   1   2
BRANCH   1   9
ATOM      9  C4  NON d   1      22.744 -17.742  -0.529  0.00  0.00     0.039 C 
BRANCH   9  10
ATOM     10  C5  NON d   1      24.228 -17.478  -0.618  0.00  0.00    -0.058 A 
ATOM     11  C6  NON d   1      25.083 -18.200   0.232  0.00  0.00     0.007 A 
ATOM     12  C7  NON d   1      26.456 -17.948   0.267  0.00  0.00     0.001 A 
ATOM     13  C8  NON d   1      27.000 -16.959  -0.547  0.00  0.00     0.000 A 
ATOM     14  C9  NON d   1      26.169 -16.226  -1.391  0.00  0.00     0.001 A 
ATOM     15  C10 NON d   1      24.793 -16.476  -1.420  0.00  0.00     0.007 A 
ENDBRANCH   9  10
ENDBRANCH   1   9
TORSDOF 5
ENDMDL
MODEL 3
REMARK VINA RESULT:    -6.260      1.715      2.271
REMARK INTER + INTRA:          -8.757
REMARK INTER:                  -7.751
REMARK INTRA:                  -1.005
REMARK CONF_INDEPENDENT:        1.492
REMARK UNBOUND:                -1.005
REMARK  5 active torsions:
REMARK  status: ('A' for Active; 'I' for Inactive)
REMARK    1  A    between atoms: C1_2  and  C2_3 
REMARK       I    between atoms: C1_2  and  N1_12 
REMARK    2  A    between atoms: C2_3  and  C3_4 
REMARK    3  A    between atoms: C3_4  and  C4_5 
REMARK    4  A    between atoms: C4_5  and  C5_6 
REMARK    5  A    between atoms: N1_12  and  O2_13 
ROOT
ATOM      1  C3  NON d   1      21.049 -18.585  -1.116  0.00  0.00     0.014 C 
ENDROOT
BRANCH   1   2
ATOM      2  C2  NON d   1      19.735 -19.088  -0.520  0.00  0.00     0.105 C 
BRANCH   2   3
ATOM      3  C1  NON d   1      19.910 -19.988   0.681  0.00  0.00     0.240 C 
ATOM      4  O1  NON d   1      20.009 -21.209   0.605  0.00  0.00    -0.271 OA
ATOM      5  N1  NON d   1      19.957 -19.325   1.889  0.00  0.00    -0.237 N 
ATOM      6  H12 NON d   1      20.289 -18.369   1.951  0.00  0.00     0.197 HD
BRANCH   5   7
ATOM      7  O2  NON d   1      20.280 -20.152   2.996  0.00  0.00    -0.287 OA
ATOM      8  H13 NON d   1      20.865 -20.831   2.589  0.00  0.00     0.244 HD
ENDBRANCH   5   7
ENDBRANCH   2   3
ENDBRANCH   1   2
BRANCH   1   9
ATOM      9  C4  NON d   1      22.287 -18.887  -0.254  0.00  0.00     0.039 C 
BRANCH   9  10
ATOM     10  C5  NON d   1      23.571 -18.129  -0.493  0.00  0.00    -0.058 A 
ATOM     11  C6  NON d   1      24.728 -18.553   0.183  0.00  0.00     0.007 A 
ATOM     12  C7  NON d   1      25.929 -17.849   0.079  0.00  0.00     0.001 A 
ATOM     13  C8  NON d   1      25.994 -16.700  -0.703  0.00  0.00     0.000 A 
ATOM     14  C9  NON d   1      24.857 -16.258  -1.375  0.00  0.00     0.001 A 
ATOM     15  C10 NON d   1      23.653 -16.961  -1.264  0.00  0.00     0.007 A 
ENDBRANCH   9  10
ENDBRANCH   1   9
TORSDOF 5
ENDMDL
MODEL 4
REMARK VINA RESULT:    -5.773      4.517      6.084
REMARK INTER + INTRA:          -8.434
REMARK INTER:                  -7.265
REMARK INTRA:                  -1.169
REMARK CONF_INDEPENDENT:        1.492
REMARK UNBOUND:                -1.169
REMARK  5 active torsions:
REMARK  status: ('A' for Active; 'I' for Inactive)
REMARK    1  A    between atoms: C1_2  and  C2_3 
REMARK       I    between atoms: C1_2  and  N1_12 
REMARK    2  A    between atoms: C2_3  and  C3_4 
REMARK    3  A    between atoms: C3_4  and  C4_5 
REMARK    4  A    between atoms: C4_5  and  C5_6 
REMARK    5  A    between atoms: N1_12  and  O2_13 
ROOT
ATOM      1  C3  NON d   1      26.331 -15.310  -1.410  0.00  0.00     0.014 C 
ENDROOT
BRANCH   1   2
ATOM      2  C2  NON d   1      26.663 -15.530  -2.885  0.00  0.00     0.105 C 
BRANCH   2   3
ATOM      3  C1  NON d   1      25.616 -15.000  -3.837  0.00  0.00     0.240 C 
ATOM      4  O1  NON d   1      25.522 -15.355  -5.007  0.00  0.00    -0.271 OA
ATOM      5  N1  NON d   1      24.756 -14.076  -3.282  0.00  0.00    -0.237 N 
ATOM      6  H12 NON d   1      24.546 -14.083  -2.290  0.00  0.00     0.197 HD
BRANCH   5   7
ATOM      7  O2  NON d   1      23.680 -13.701  -4.127  0.00  0.00    -0.287 OA
ATOM      8  H13 NON d   1      24.017 -13.943  -5.019  0.00  0.00     0.244 HD
ENDBRANCH   5   7
ENDBRANCH   2   3
ENDBRANCH   1   2
BRANCH   1   9
ATOM      9  C4  NON d   1      26.019 -16.602  -0.635  0.00  0.00     0.039 C 
BRANCH   9  10
ATOM     10  C5  NON d   1      24.638 -17.209  -0.715  0.00  0.00    -0.058 A 
ATOM     11  C6  NON d   1      23.543 -16.346  -0.886  0.00  0.00     0.007 A 
ATOM     12  C7  NON d   1      22.231 -16.827  -0.882  0.00  0.00     0.001 A 
ATOM     13  C8  NON d   1      21.991 -18.185  -0.699  0.00  0.00     0.000 A 
ATOM     14  C9  NON d   1      23.063 -19.056  -0.519  0.00  0.00     0.001 A 
ATOM     15  C10 NON d   1      24.375 -18.572  -0.518  0.00  0.00     0.007 A 
ENDBRANCH   9  10
ENDBRANCH   1   9
TORSDOF 5
ENDMDL
MODEL 5
REMARK VINA RESULT:    -5.651      3.548      6.414
REMARK INTER + INTRA:          -8.120
REMARK INTER:                  -7.143
REMARK INTRA:                  -0.977
REMARK CONF_INDEPENDENT:        1.492
REMARK UNBOUND:                -0.977
REMARK  5 active torsions:
REMARK  status: ('A' for Active; 'I' for Inactive)
REMARK    1  A    between atoms: C1_2  and  C2_3 
REMARK       I    between atoms: C1_2  and  N1_12 
REMARK    2  A    between atoms: C2_3  and  C3_4 
REMARK    3  A    between atoms: C3_4  and  C4_5 
REMARK    4  A    between atoms: C4_5  and  C5_6 
REMARK    5  A    between atoms: N1_12  and  O2_13 
ROOT
ATOM      1  C3  NON d   1      23.184 -18.466   0.113  0.00  0.00     0.014 C 
ENDROOT
BRANCH   1   2
ATOM      2  C2  NON d   1      24.360 -17.920  -0.694  0.00  0.00     0.105 C 
BRANCH   2   3
ATOM      3  C1  NON d   1      24.054 -16.641  -1.439  0.00  0.00     0.240 C 
ATOM      4  O1  NON d   1      23.064 -15.950  -1.220  0.00  0.00    -0.271 OA
ATOM      5  N1  NON d   1      24.986 -16.300  -2.395  0.00  0.00    -0.237 N 
ATOM      6  H12 NON d   1      25.955 -16.588  -2.310  0.00  0.00     0.197 HD
BRANCH   5   7
ATOM      7  O2  NON d   1      24.782 -15.023  -2.979  0.00  0.00    -0.287 OA
ATOM      8  H13 NON d   1      23.827 -14.862  -2.806  0.00  0.00     0.244 HD
ENDBRANCH   5   7
ENDBRANCH   2   3
ENDBRANCH   1   2
BRANCH   1   9
ATOM      9  C4  NON d   1      21.870 -18.570  -0.681  0.00  0.00     0.039 C 
BRANCH   9  10
ATOM     10  C5  NON d   1      20.662 -19.222  -0.051  0.00  0.00    -0.058 A 
ATOM     11  C6  NON d   1      20.655 -19.397   1.343  0.00  0.00     0.007 A 
ATOM     12  C7  NON d   1      19.613 -20.070   1.985  0.00  0.00     0.001 A 
ATOM     13  C8  NON d   1      18.558 -20.587   1.239  0.00  0.00     0.000 A 
ATOM     14  C9  NON d   1      18.551 -20.432  -0.145  0.00  0.00     0.001 A 
ATOM     15  C10 NON d   1      19.598 -19.763  -0.787  0.00  0.00     0.007 A 
ENDBRANCH   9  10
ENDBRANCH   1   9
TORSDOF 5
ENDMDL
MODEL 6
REMARK VINA RESULT:    -5.570      3.855      6.412
REMARK INTER + INTRA:          -8.058
REMARK INTER:                  -7.062
REMARK INTRA:                  -0.996
REMARK CONF_INDEPENDENT:        1.492
REMARK UNBOUND:                -0.996
REMARK  5 active torsions:
REMARK  status: ('A' for Active; 'I' for Inactive)
REMARK    1  A    between atoms: C1_2  and  C2_3 
REMARK       I    between atoms: C1_2  and  N1_12 
REMARK    2  A    between atoms: C2_3  and  C3_4 
REMARK    3  A    between atoms: C3_4  and  C4_5 
REMARK    4  A    between atoms: C4_5  and  C5_6 
REMARK    5  A    between atoms: N1_12  and  O2_13 
ROOT
ATOM      1  C3  NON d   1      22.706 -17.451  -0.197  0.00  0.00     0.014 C 
ENDROOT
BRANCH   1   2
ATOM      2  C2  NON d   1      23.890 -16.934  -1.012  0.00  0.00     0.105 C 
BRANCH   2   3
ATOM      3  C1  NON d   1      25.221 -17.519  -0.601  0.00  0.00     0.240 C 
ATOM      4  O1  NON d   1      26.241 -17.427  -1.278  0.00  0.00    -0.271 OA
ATOM      5  N1  NON d   1      25.208 -18.170   0.614  0.00  0.00    -0.237 N 
ATOM      6  H12 NON d   1      24.550 -17.912   1.341  0.00  0.00     0.197 HD
BRANCH   5   7
ATOM      7  O2  NON d   1      26.488 -18.577   1.071  0.00  0.00    -0.287 OA
ATOM      8  H13 NON d   1      27.078 -18.275   0.345  0.00  0.00     0.244 HD
ENDBRANCH   5   7
ENDBRANCH   2   3
ENDBRANCH   1   2
BRANCH   1   9
ATOM      9  C4  NON d   1      21.829 -18.474  -0.940  0.00  0.00     0.039 C 
BRANCH   9  10
ATOM     10  C5  NON d   1      20.685 -19.146  -0.218  0.00  0.00    -0.058 A 
ATOM     11  C6  NON d   1      20.791 -19.325   1.172  0.00  0.00     0.007 A 
ATOM     12  C7  NON d   1      19.814 -20.014   1.892  0.00  0.00     0.001 A 
ATOM     13  C8  NON d   1      18.710 -20.545   1.231  0.00  0.00     0.000 A 
ATOM     14  C9  NON d   1      18.590 -20.386  -0.148  0.00  0.00     0.001 A 
ATOM     15  C10 NON d   1      19.573 -19.700  -0.868  0.00  0.00     0.007 A 
ENDBRANCH   9  10
ENDBRANCH   1   9
TORSDOF 5
ENDMDL
MODEL 7
REMARK VINA RESULT:    -5.494      4.537      6.127
REMARK INTER + INTRA:          -8.161
REMARK INTER:                  -6.985
REMARK INTRA:                  -1.175
REMARK CONF_INDEPENDENT:        1.492
REMARK UNBOUND:                -1.175
REMARK  5 active torsions:
REMARK  status: ('A' for Active; 'I' for Inactive)
REMARK    1  A    between atoms: C1_2  and  C2_3 
REMARK       I    between atoms: C1_2  and  N1_12 
REMARK    2  A    between atoms: C2_3  and  C3_4 
REMARK    3  A    between atoms: C3_4  and  C4_5 
REMARK    4  A    between atoms: C4_5  and  C5_6 
REMARK    5  A    between atoms: N1_12  and  O2_13 
ROOT
ATOM      1  C3  NON d   1      26.333 -14.940  -1.373  0.00  0.00     0.014 C 
ENDROOT
BRANCH   1   2
ATOM      2  C2  NON d   1      26.475 -15.582  -2.752  0.00  0.00     0.105 C 
BRANCH   2   3
ATOM      3  C1  NON d   1      25.529 -15.025  -3.790  0.00  0.00     0.240 C 
ATOM      4  O1  NON d   1      25.544 -15.361  -4.971  0.00  0.00    -0.271 OA
ATOM      5  N1  NON d   1      24.628 -14.102  -3.305  0.00  0.00    -0.237 N 
ATOM      6  H12 NON d   1      24.324 -14.123  -2.338  0.00  0.00     0.197 HD
BRANCH   5   7
ATOM      7  O2  NON d   1      23.641 -13.702  -4.242  0.00  0.00    -0.287 OA
ATOM      8  H13 NON d   1      24.122 -13.770  -5.098  0.00  0.00     0.244 HD
ENDBRANCH   5   7
ENDBRANCH   2   3
ENDBRANCH   1   2
BRANCH   1   9
ATOM      9  C4  NON d   1      26.001 -15.934  -0.247  0.00  0.00     0.039 C 
BRANCH   9  10
ATOM     10  C5  NON d   1      24.773 -16.807  -0.355  0.00  0.00    -0.058 A 
ATOM     11  C6  NON d   1      24.929 -18.194  -0.187  0.00  0.00     0.007 A 
ATOM     12  C7  NON d   1      23.856 -19.071  -0.359  0.00  0.00     0.001 A 
ATOM     13  C8  NON d   1      22.604 -18.575  -0.710  0.00  0.00     0.000 A 
ATOM     14  C9  NON d   1      22.431 -17.205  -0.889  0.00  0.00     0.001 A 
ATOM     15  C10 NON d   1      23.508 -16.328  -0.722  0.00  0.00     0.007 A 
ENDBRANCH   9  10
ENDBRANCH   1   9
TORSDOF 5
ENDMDL
MODEL 8
REMARK VINA RESULT:    -5.272      4.765      6.612
REMARK INTER + INTRA:          -7.906
REMARK INTER:                  -6.763
REMARK INTRA:                  -1.143
REMARK CONF_INDEPENDENT:        1.492
REMARK UNBOUND:                -1.143
REMARK  5 active torsions:
REMARK  status: ('A' for Active; 'I' for Inactive)
REMARK    1  A    between atoms: C1_2  and  C2_3 
REMARK       I    between atoms: C1_2  and  N1_12 
REMARK    2  A    between atoms: C2_3  and  C3_4 
REMARK    3  A    between atoms: C3_4  and  C4_5 
REMARK    4  A    between atoms: C4_5  and  C5_6 
REMARK    5  A    between atoms: N1_12  and  O2_13 
ROOT
ATOM      1  C3  NON d   1      27.213 -16.557  -1.508  0.00  0.00     0.014 C 
ENDROOT
BRANCH   1   2
ATOM      2  C2  NON d   1      26.905 -15.173  -2.079  0.00  0.00     0.105 C 
BRANCH   2   3
ATOM      3  C1  NON d   1      26.348 -15.197  -3.483  0.00  0.00     0.240 C 
ATOM      4  O1  NON d   1      25.152 -15.096  -3.739  0.00  0.00    -0.271 OA
ATOM      5  N1  NON d   1      27.297 -15.337  -4.472  0.00  0.00    -0.237 N 
ATOM      6  H12 NON d   1      28.249 -15.013  -4.337  0.00  0.00     0.197 HD
BRANCH   5   7
ATOM      7  O2  NON d   1      26.791 -15.199  -5.790  0.00  0.00    -0.287 OA
ATOM      8  H13 NON d   1      25.828 -15.071  -5.635  0.00  0.00     0.244 HD
ENDBRANCH   5   7
ENDBRANCH   2   3
ENDBRANCH   1   2
BRANCH   1   9
ATOM      9  C4  NON d   1      26.420 -16.903  -0.236  0.00  0.00     0.039 C 
BRANCH   9  10
ATOM     10  C5  NON d   1      24.952 -17.242  -0.336  0.00  0.00    -0.058 A 
ATOM     11  C6  NON d   1      24.564 -18.577  -0.132  0.00  0.00     0.007 A 
ATOM     12  C7  NON d   1      23.237 -18.980  -0.294  0.00  0.00     0.001 A 
ATOM     13  C8  NON d   1      22.271 -18.052  -0.670  0.00  0.00     0.000 A 
ATOM     14  C9  NON d   1      22.636 -16.725  -0.886  0.00  0.00     0.001 A 
ATOM     15  C10 NON d   1      23.967 -16.324  -0.729  0.00  0.00     0.007 A 
ENDBRANCH   9  10
ENDBRANCH   1   9
TORSDOF 5
ENDMDL
