MODEL 1
REMARK VINA RESULT:    -9.974      0.000      0.000
REMARK INTER + INTRA:         -13.662
REMARK INTER:                 -11.763
REMARK INTRA:                  -1.898
REMARK CONF_INDEPENDENT:        1.790
REMARK UNBOUND:                -1.898
REMARK  6 active torsions:
REMARK  status: ('A' for Active; 'I' for Inactive)
REMARK       I    between atoms: C1_2  and  N1_3 
REMARK    1  A    between atoms: C1_2  and  C2_5 
REMARK    2  A    between atoms: N1_3  and  O2_4 
REMARK    3  A    between atoms: C5_8  and  C6_9 
REMARK    4  A    between atoms: C6_9  and  N2_10 
REMARK    5  A    between atoms: C14_20  and  C15_21 
REMARK    6  A    between atoms: C15_21  and  C16_22 
ROOT
ATOM      1  N2  NON d   1      26.998 -15.272  -0.718  0.00  0.00    -0.361 N 
ATOM      2  C7  NON d   1      26.506 -14.743  -1.925  0.00  0.00     0.058 C 
ATOM      3  C8  NON d   1      26.151 -15.533  -3.026  0.00  0.00     0.031 C 
ATOM      4  C9  NON d   1      25.530 -15.000  -4.169  0.00  0.00     0.002 C 
ATOM      5  C10 NON d   1      25.334 -13.632  -4.291  0.00  0.00     0.002 C 
ATOM      6  C11 NON d   1      25.834 -12.797  -3.306  0.00  0.00     0.032 C 
ATOM      7  C12 NON d   1      26.432 -13.347  -2.164  0.00  0.00     0.061 C 
ATOM      8  N3  NON d   1      27.067 -12.445  -1.309  0.00  0.00    -0.323 N 
ATOM      9  C13 NON d   1      27.736 -12.871  -0.203  0.00  0.00     0.245 C 
ATOM     10  O3  NON d   1      28.553 -12.125   0.334  0.00  0.00    -0.271 OA
ATOM     11  C14 NON d   1      27.248 -14.219   0.361  0.00  0.00     0.181 C 
ATOM     12  H11 NON d   1      27.274 -11.508  -1.624  0.00  0.00     0.169 HD
ENDROOT
BRANCH   1  13
ATOM     13  C6  NON d   1      26.569 -16.572  -0.116  0.00  0.00     0.162 C 
BRANCH  13  14
ATOM     14  C5  NON d   1      25.179 -17.168  -0.224  0.00  0.00    -0.040 A 
ATOM     15  C4  NON d   1      24.918 -18.543  -0.144  0.00  0.00     0.010 A 
ATOM     16  C3  NON d   1      23.605 -19.032  -0.242  0.00  0.00     0.017 A 
ATOM     17  C2  NON d   1      22.540 -18.167  -0.524  0.00  0.00     0.034 A 
ATOM     18  C23 NON d   1      22.802 -16.805  -0.697  0.00  0.00     0.017 A 
ATOM     19  C22 NON d   1      24.105 -16.317  -0.548  0.00  0.00     0.010 A 
BRANCH  17  20
ATOM     20  C1  NON d   1      21.153 -18.721  -0.596  0.00  0.00     0.275 C 
ATOM     21  O1  NON d   1      20.300 -18.159  -1.270  0.00  0.00    -0.265 OA
ATOM     22  N1  NON d   1      20.926 -19.870   0.136  0.00  0.00    -0.233 N 
ATOM     23  H1  NON d   1      21.652 -20.392   0.606  0.00  0.00     0.197 HD
BRANCH  22  24
ATOM     24  O2  NON d   1      19.756 -20.598  -0.172  0.00  0.00    -0.287 OA
ATOM     25  H2  NON d   1      19.238 -19.947  -0.680  0.00  0.00     0.244 HD
ENDBRANCH  22  24
ENDBRANCH  17  20
ENDBRANCH  13  14
ENDBRANCH   1  13
BRANCH  11  26
ATOM     26  C15 NON d   1      28.233 -14.669   1.473  0.00  0.00     0.073 C 
BRANCH  26  27
ATOM     27  C16 NON d   1      28.079 -14.010   2.840  0.00  0.00    -0.056 A 
ATOM     28  C17 NON d   1      28.140 -14.826   3.982  0.00  0.00     0.007 A 
ATOM     29  C18 NON d   1      28.018 -14.284   5.265  0.00  0.00     0.001 A 
ATOM     30  C19 NON d   1      27.836 -12.914   5.428  0.00  0.00     0.000 A 
ATOM     31  C20 NON d   1      27.780 -12.088   4.311  0.00  0.00     0.001 A 
ATOM     32  C21 NON d   1      27.903 -12.631   3.030  0.00  0.00     0.007 A 
ENDBRANCH  26  27
ENDBRANCH  11  26
TORSDOF 6
ENDMDL
MODEL 2
REMARK VINA RESULT:    -8.716      3.092      5.238
REMARK INTER + INTRA:         -12.722
REMARK INTER:                 -10.506
REMARK INTRA:                  -2.216
REMARK CONF_INDEPENDENT:        1.790
REMARK UNBOUND:                -2.216
REMARK  6 active torsions:
REMARK  status: ('A' for Active; 'I' for Inactive)
REMARK       I    between atoms: C1_2  and  N1_3 
REMARK    1  A    between atoms: C1_2  and  C2_5 
REMARK    2  A    between atoms: N1_3  and  O2_4 
REMARK    3  A    between atoms: C5_8  and  C6_9 
REMARK    4  A    between atoms: C6_9  and  N2_10 
REMARK    5  A    between atoms: C14_20  and  C15_21 
REMARK    6  A    between atoms: C15_21  and  C16_22 
ROOT
ATOM      1  N2  NON d   1      26.920 -15.462  -1.890  0.00  0.00    -0.361 N 
ATOM      2  C7  NON d   1      28.178 -16.070  -1.722  0.00  0.00     0.058 C 
ATOM      3  C8  NON d   1      28.856 -16.115  -0.497  0.00  0.00     0.031 C 
ATOM      4  C9  NON d   1      30.042 -16.848  -0.316  0.00  0.00     0.002 C 
ATOM      5  C10 NON d   1      30.647 -17.483  -1.390  0.00  0.00     0.002 C 
ATOM      6  C11 NON d   1      30.108 -17.315  -2.655  0.00  0.00     0.032 C 
ATOM      7  C12 NON d   1      28.915 -16.597  -2.813  0.00  0.00     0.061 C 
ATOM      8  N3  NON d   1      28.535 -16.321  -4.127  0.00  0.00    -0.323 N 
ATOM      9  C13 NON d   1      27.428 -15.577  -4.401  0.00  0.00     0.245 C 
ATOM     10  O3  NON d   1      27.301 -15.068  -5.513  0.00  0.00    -0.271 OA
ATOM     11  C14 NON d   1      26.350 -15.604  -3.301  0.00  0.00     0.181 C 
ATOM     12  H11 NON d   1      29.199 -16.428  -4.880  0.00  0.00     0.169 HD
ENDROOT
BRANCH   1  13
ATOM     13  C6  NON d   1      25.832 -15.451  -0.865  0.00  0.00     0.162 C 
BRANCH  13  14
ATOM     14  C5  NON d   1      24.647 -16.399  -0.837  0.00  0.00    -0.040 A 
ATOM     15  C4  NON d   1      23.314 -15.974  -0.916  0.00  0.00     0.010 A 
ATOM     16  C3  NON d   1      22.261 -16.903  -0.895  0.00  0.00     0.017 A 
ATOM     17  C2  NON d   1      22.516 -18.266  -0.690  0.00  0.00     0.034 A 
ATOM     18  C23 NON d   1      23.836 -18.689  -0.518  0.00  0.00     0.017 A 
ATOM     19  C22 NON d   1      24.884 -17.765  -0.591  0.00  0.00     0.010 A 
BRANCH  17  20
ATOM     20  C1  NON d   1      21.371 -19.228  -0.698  0.00  0.00     0.275 C 
ATOM     21  O1  NON d   1      20.835 -19.536  -1.754  0.00  0.00    -0.265 OA
ATOM     22  N1  NON d   1      20.984 -19.713   0.535  0.00  0.00    -0.233 N 
ATOM     23  H1  NON d   1      21.490 -19.543   1.392  0.00  0.00     0.197 HD
BRANCH  22  24
ATOM     24  O2  NON d   1      20.155 -20.856   0.536  0.00  0.00    -0.287 OA
ATOM     25  H2  NON d   1      20.024 -21.014  -0.417  0.00  0.00     0.244 HD
ENDBRANCH  22  24
ENDBRANCH  17  20
ENDBRANCH  13  14
ENDBRANCH   1  13
BRANCH  11  26
ATOM     26  C15 NON d   1      25.262 -14.554  -3.655  0.00  0.00     0.073 C 
BRANCH  26  27
ATOM     27  C16 NON d   1      25.713 -13.100  -3.753  0.00  0.00    -0.056 A 
ATOM     28  C17 NON d   1      25.733 -12.495  -5.021  0.00  0.00     0.007 A 
ATOM     29  C18 NON d   1      26.124 -11.162  -5.179  0.00  0.00     0.001 A 
ATOM     30  C19 NON d   1      26.498 -10.409  -4.071  0.00  0.00     0.000 A 
ATOM     31  C20 NON d   1      26.478 -10.987  -2.806  0.00  0.00     0.001 A 
ATOM     32  C21 NON d   1      26.087 -12.319  -2.649  0.00  0.00     0.007 A 
ENDBRANCH  26  27
ENDBRANCH  11  26
TORSDOF 6
ENDMDL
MODEL 3
REMARK VINA RESULT:    -8.709      1.441      2.144
REMARK INTER + INTRA:         -12.709
REMARK INTER:                 -10.499
REMARK INTRA:                  -2.210
REMARK CONF_INDEPENDENT:        1.790
REMARK UNBOUND:                -2.210
REMARK  6 active torsions:
REMARK  status: ('A' for Active; 'I' for Inactive)
REMARK       I    between atoms: C1_2  and  N1_3 
REMARK    1  A    between atoms: C1_2  and  C2_5 
REMARK    2  A    between atoms: N1_3  and  O2_4 
REMARK    3  A    between atoms: C5_8  and  C6_9 
REMARK    4  A    between atoms: C6_9  and  N2_10 
REMARK    5  A    between atoms: C14_20  and  C15_21 
REMARK    6  A    between atoms: C15_21  and  C16_22 
ROOT
ATOM      1  N2  NON d   1      26.803 -15.274  -0.841  0.00  0.00    -0.361 N 
ATOM      2  C7  NON d   1      26.472 -14.775  -2.114  0.00  0.00     0.058 C 
ATOM      3  C8  NON d   1      26.405 -15.575  -3.262  0.00  0.00     0.031 C 
ATOM      4  C9  NON d   1      25.935 -15.088  -4.494  0.00  0.00     0.002 C 
ATOM      5  C10 NON d   1      25.610 -13.748  -4.645  0.00  0.00     0.002 C 
ATOM      6  C11 NON d   1      25.834 -12.885  -3.586  0.00  0.00     0.032 C 
ATOM      7  C12 NON d   1      26.283 -13.391  -2.358  0.00  0.00     0.061 C 
ATOM      8  N3  NON d   1      26.653 -12.444  -1.403  0.00  0.00    -0.323 N 
ATOM      9  C13 NON d   1      27.164 -12.818  -0.197  0.00  0.00     0.245 C 
ATOM     10  O3  NON d   1      27.786 -11.999   0.477  0.00  0.00    -0.271 OA
ATOM     11  C14 NON d   1      26.742 -14.224   0.268  0.00  0.00     0.181 C 
ATOM     12  H11 NON d   1      26.805 -11.483  -1.674  0.00  0.00     0.169 HD
ENDROOT
BRANCH   1  13
ATOM     13  C6  NON d   1      26.426 -16.626  -0.327  0.00  0.00     0.162 C 
BRANCH  13  14
ATOM     14  C5  NON d   1      25.030 -17.219  -0.368  0.00  0.00    -0.040 A 
ATOM     15  C4  NON d   1      24.756 -18.571  -0.121  0.00  0.00     0.010 A 
ATOM     16  C3  NON d   1      23.439 -19.057  -0.165  0.00  0.00     0.017 A 
ATOM     17  C2  NON d   1      22.383 -18.223  -0.557  0.00  0.00     0.034 A 
ATOM     18  C23 NON d   1      22.659 -16.896  -0.894  0.00  0.00     0.017 A 
ATOM     19  C22 NON d   1      23.966 -16.405  -0.800  0.00  0.00     0.010 A 
BRANCH  17  20
ATOM     20  C1  NON d   1      20.992 -18.769  -0.567  0.00  0.00     0.275 C 
ATOM     21  O1  NON d   1      20.112 -18.200  -1.199  0.00  0.00    -0.265 OA
ATOM     22  N1  NON d   1      20.792 -19.919   0.170  0.00  0.00    -0.233 N 
ATOM     23  H1  NON d   1      21.535 -20.448   0.604  0.00  0.00     0.197 HD
BRANCH  22  24
ATOM     24  O2  NON d   1      19.605 -20.639  -0.086  0.00  0.00    -0.287 OA
ATOM     25  H2  NON d   1      19.261 -20.192  -0.882  0.00  0.00     0.244 HD
ENDBRANCH  22  24
ENDBRANCH  17  20
ENDBRANCH  13  14
ENDBRANCH   1  13
BRANCH  11  26
ATOM     26  C15 NON d   1      27.563 -14.588   1.534  0.00  0.00     0.073 C 
BRANCH  26  27
ATOM     27  C16 NON d   1      29.063 -14.794   1.348  0.00  0.00    -0.056 A 
ATOM     28  C17 NON d   1      29.938 -14.160   2.246  0.00  0.00     0.007 A 
ATOM     29  C18 NON d   1      31.323 -14.317   2.139  0.00  0.00     0.001 A 
ATOM     30  C19 NON d   1      31.858 -15.115   1.132  0.00  0.00     0.000 A 
ATOM     31  C20 NON d   1      31.009 -15.757   0.237  0.00  0.00     0.001 A 
ATOM     32  C21 NON d   1      29.625 -15.600   0.346  0.00  0.00     0.007 A 
ENDBRANCH  26  27
ENDBRANCH  11  26
TORSDOF 6
ENDMDL
MODEL 4
REMARK VINA RESULT:    -8.690      3.153      3.749
REMARK INTER + INTRA:         -12.346
REMARK INTER:                 -10.480
REMARK INTRA:                  -1.865
REMARK CONF_INDEPENDENT:        1.790
REMARK UNBOUND:                -1.865
REMARK  6 active torsions:
REMARK  status: ('A' for Active; 'I' for Inactive)
REMARK       I    between atoms: C1_2  and  N1_3 
REMARK    1  A    between atoms: C1_2  and  C2_5 
REMARK    2  A    between atoms: N1_3  and  O2_4 
REMARK    3  A    between atoms: C5_8  and  C6_9 
REMARK    4  A    between atoms: C6_9  and  N2_10 
REMARK    5  A    between atoms: C14_20  and  C15_21 
REMARK    6  A    between atoms: C15_21  and  C16_22 
ROOT
ATOM      1  N2  NON d   1      26.605 -15.997  -1.847  0.00  0.00    -0.361 N 
ATOM      2  C7  NON d   1      26.231 -15.030  -2.797  0.00  0.00     0.058 C 
ATOM      3  C8  NON d   1      24.900 -14.764  -3.145  0.00  0.00     0.031 C 
ATOM      4  C9  NON d   1      24.538 -13.700  -3.989  0.00  0.00     0.002 C 
ATOM      5  C10 NON d   1      25.512 -12.923  -4.600  0.00  0.00     0.002 C 
ATOM      6  C11 NON d   1      26.842 -13.265  -4.427  0.00  0.00     0.032 C 
ATOM      7  C12 NON d   1      27.185 -14.316  -3.565  0.00  0.00     0.061 C 
ATOM      8  N3  NON d   1      28.523 -14.712  -3.584  0.00  0.00    -0.323 N 
ATOM      9  C13 NON d   1      28.959 -15.764  -2.837  0.00  0.00     0.245 C 
ATOM     10  O3  NON d   1      30.029 -16.301  -3.115  0.00  0.00    -0.271 OA
ATOM     11  C14 NON d   1      28.109 -16.055  -1.585  0.00  0.00     0.181 C 
ATOM     12  H11 NON d   1      29.129 -14.416  -4.335  0.00  0.00     0.169 HD
ENDROOT
BRANCH   1  13
ATOM     13  C6  NON d   1      25.828 -16.329  -0.613  0.00  0.00     0.162 C 
BRANCH  13  14
ATOM     14  C5  NON d   1      24.566 -17.171  -0.575  0.00  0.00    -0.040 A 
ATOM     15  C4  NON d   1      24.572 -18.571  -0.495  0.00  0.00     0.010 A 
ATOM     16  C3  NON d   1      23.368 -19.292  -0.454  0.00  0.00     0.017 A 
ATOM     17  C2  NON d   1      22.137 -18.637  -0.595  0.00  0.00     0.034 A 
ATOM     18  C23 NON d   1      22.125 -17.250  -0.767  0.00  0.00     0.017 A 
ATOM     19  C22 NON d   1      23.325 -16.532  -0.756  0.00  0.00     0.010 A 
BRANCH  17  20
ATOM     20  C1  NON d   1      20.876 -19.436  -0.520  0.00  0.00     0.275 C 
ATOM     21  O1  NON d   1      20.253 -19.700  -1.541  0.00  0.00    -0.265 OA
ATOM     22  N1  NON d   1      20.487 -19.830   0.744  0.00  0.00    -0.233 N 
ATOM     23  H1  NON d   1      21.052 -19.705   1.572  0.00  0.00     0.197 HD
BRANCH  22  24
ATOM     24  O2  NON d   1      19.515 -20.851   0.821  0.00  0.00    -0.287 OA
ATOM     25  H2  NON d   1      19.371 -21.068  -0.119  0.00  0.00     0.244 HD
ENDBRANCH  22  24
ENDBRANCH  17  20
ENDBRANCH  13  14
ENDBRANCH   1  13
BRANCH  11  26
ATOM     26  C15 NON d   1      28.595 -17.393  -0.964  0.00  0.00     0.073 C 
BRANCH  26  27
ATOM     27  C16 NON d   1      30.056 -17.461  -0.528  0.00  0.00    -0.056 A 
ATOM     28  C17 NON d   1      30.573 -16.396   0.229  0.00  0.00     0.007 A 
ATOM     29  C18 NON d   1      31.900 -16.401   0.670  0.00  0.00     0.001 A 
ATOM     30  C19 NON d   1      32.732 -17.473   0.364  0.00  0.00     0.000 A 
ATOM     31  C20 NON d   1      32.237 -18.540  -0.378  0.00  0.00     0.001 A 
ATOM     32  C21 NON d   1      30.911 -18.534  -0.818  0.00  0.00     0.007 A 
ENDBRANCH  26  27
ENDBRANCH  11  26
TORSDOF 6
ENDMDL
MODEL 5
REMARK VINA RESULT:    -8.382      3.092      6.560
REMARK INTER + INTRA:         -12.404
REMARK INTER:                 -10.172
REMARK INTRA:                  -2.232
REMARK CONF_INDEPENDENT:        1.790
REMARK UNBOUND:                -2.232
REMARK  6 active torsions:
REMARK  status: ('A' for Active; 'I' for Inactive)
REMARK       I    between atoms: C1_2  and  N1_3 
REMARK    1  A    between atoms: C1_2  and  C2_5 
REMARK    2  A    between atoms: N1_3  and  O2_4 
REMARK    3  A    between atoms: C5_8  and  C6_9 
REMARK    4  A    between atoms: C6_9  and  N2_10 
REMARK    5  A    between atoms: C14_20  and  C15_21 
REMARK    6  A    between atoms: C15_21  and  C16_22 
ROOT
ATOM      1  N2  NON d   1      25.104 -15.893  -1.076  0.00  0.00    -0.361 N 
ATOM      2  C7  NON d   1      24.122 -16.877  -0.860  0.00  0.00     0.058 C 
ATOM      3  C8  NON d   1      22.747 -16.615  -0.896  0.00  0.00     0.031 C 
ATOM      4  C9  NON d   1      21.781 -17.634  -0.819  0.00  0.00     0.002 C 
ATOM      5  C10 NON d   1      22.163 -18.950  -0.601  0.00  0.00     0.002 C 
ATOM      6  C11 NON d   1      23.501 -19.228  -0.379  0.00  0.00     0.032 C 
ATOM      7  C12 NON d   1      24.451 -18.202  -0.479  0.00  0.00     0.061 C 
ATOM      8  N3  NON d   1      25.745 -18.523  -0.069  0.00  0.00    -0.323 N 
ATOM      9  C13 NON d   1      26.737 -17.590  -0.062  0.00  0.00     0.245 C 
ATOM     10  O3  NON d   1      27.751 -17.790   0.605  0.00  0.00    -0.271 OA
ATOM     11  C14 NON d   1      26.533 -16.433  -1.058  0.00  0.00     0.181 C 
ATOM     12  H11 NON d   1      25.912 -19.357   0.477  0.00  0.00     0.169 HD
ENDROOT
BRANCH   1  13
ATOM     13  C6  NON d   1      24.971 -14.746  -2.026  0.00  0.00     0.162 C 
BRANCH  13  14
ATOM     14  C5  NON d   1      25.877 -14.486  -3.216  0.00  0.00    -0.040 A 
ATOM     15  C4  NON d   1      26.592 -13.295  -3.399  0.00  0.00     0.010 A 
ATOM     16  C3  NON d   1      27.421 -13.120  -4.518  0.00  0.00     0.017 A 
ATOM     17  C2  NON d   1      27.472 -14.090  -5.528  0.00  0.00     0.034 A 
ATOM     18  C23 NON d   1      26.691 -15.242  -5.399  0.00  0.00     0.017 A 
ATOM     19  C22 NON d   1      25.906 -15.433  -4.257  0.00  0.00     0.010 A 
BRANCH  17  20
ATOM     20  C1  NON d   1      28.386 -13.880  -6.692  0.00  0.00     0.275 C 
ATOM     21  O1  NON d   1      29.258 -14.700  -6.946  0.00  0.00    -0.265 OA
ATOM     22  N1  NON d   1      28.174 -12.727  -7.422  0.00  0.00    -0.233 N 
ATOM     23  H1  NON d   1      27.392 -12.105  -7.280  0.00  0.00     0.197 HD
BRANCH  22  24
ATOM     24  O2  NON d   1      28.775 -12.665  -8.698  0.00  0.00    -0.287 OA
ATOM     25  H2  NON d   1      29.193 -13.542  -8.771  0.00  0.00     0.244 HD
ENDBRANCH  22  24
ENDBRANCH  17  20
ENDBRANCH  13  14
ENDBRANCH   1  13
BRANCH  11  26
ATOM     26  C15 NON d   1      27.617 -15.356  -0.785  0.00  0.00     0.073 C 
BRANCH  26  27
ATOM     27  C16 NON d   1      27.465 -14.532   0.490  0.00  0.00    -0.056 A 
ATOM     28  C17 NON d   1      26.663 -13.379   0.443  0.00  0.00     0.007 A 
ATOM     29  C18 NON d   1      26.472 -12.585   1.579  0.00  0.00     0.001 A 
ATOM     30  C19 NON d   1      27.077 -12.934   2.782  0.00  0.00     0.000 A 
ATOM     31  C20 NON d   1      27.868 -14.076   2.851  0.00  0.00     0.001 A 
ATOM     32  C21 NON d   1      28.058 -14.867   1.716  0.00  0.00     0.007 A 
ENDBRANCH  26  27
ENDBRANCH  11  26
TORSDOF 6
ENDMDL
MODEL 6
REMARK VINA RESULT:    -8.288      3.113      7.632
REMARK INTER + INTRA:         -12.265
REMARK INTER:                 -10.078
REMARK INTRA:                  -2.187
REMARK CONF_INDEPENDENT:        1.790
REMARK UNBOUND:                -2.187
REMARK  6 active torsions:
REMARK  status: ('A' for Active; 'I' for Inactive)
REMARK       I    between atoms: C1_2  and  N1_3 
REMARK    1  A    between atoms: C1_2  and  C2_5 
REMARK    2  A    between atoms: N1_3  and  O2_4 
REMARK    3  A    between atoms: C5_8  and  C6_9 
REMARK    4  A    between atoms: C6_9  and  N2_10 
REMARK    5  A    between atoms: C14_20  and  C15_21 
REMARK    6  A    between atoms: C15_21  and  C16_22 
ROOT
ATOM      1  N2  NON d   1      27.149 -15.154  -1.339  0.00  0.00    -0.361 N 
ATOM      2  C7  NON d   1      26.367 -16.209  -0.833  0.00  0.00     0.058 C 
ATOM      3  C8  NON d   1      26.873 -17.209   0.008  0.00  0.00     0.031 C 
ATOM      4  C9  NON d   1      26.049 -18.171   0.617  0.00  0.00     0.002 C 
ATOM      5  C10 NON d   1      24.694 -18.227   0.322  0.00  0.00     0.002 C 
ATOM      6  C11 NON d   1      24.187 -17.372  -0.641  0.00  0.00     0.032 C 
ATOM      7  C12 NON d   1      25.019 -16.406  -1.224  0.00  0.00     0.061 C 
ATOM      8  N3  NON d   1      24.483 -15.707  -2.306  0.00  0.00    -0.323 N 
ATOM      9  C13 NON d   1      25.221 -14.790  -2.991  0.00  0.00     0.245 C 
ATOM     10  O3  NON d   1      24.865 -14.445  -4.116  0.00  0.00    -0.271 OA
ATOM     11  C14 NON d   1      26.359 -14.148  -2.175  0.00  0.00     0.181 C 
ATOM     12  H11 NON d   1      23.654 -16.049  -2.770  0.00  0.00     0.169 HD
ENDROOT
BRANCH   1  13
ATOM     13  C6  NON d   1      28.266 -14.487  -0.603  0.00  0.00     0.162 C 
BRANCH  13  14
ATOM     14  C5  NON d   1      28.389 -14.400   0.907  0.00  0.00    -0.040 A 
ATOM     15  C4  NON d   1      27.312 -14.113   1.756  0.00  0.00     0.010 A 
ATOM     16  C3  NON d   1      27.490 -14.056   3.148  0.00  0.00     0.017 A 
ATOM     17  C2  NON d   1      28.767 -14.183   3.711  0.00  0.00     0.034 A 
ATOM     18  C23 NON d   1      29.862 -14.378   2.865  0.00  0.00     0.017 A 
ATOM     19  C22 NON d   1      29.671 -14.485   1.483  0.00  0.00     0.010 A 
BRANCH  17  20
ATOM     20  C1  NON d   1      28.913 -14.142   5.198  0.00  0.00     0.275 C 
ATOM     21  O1  NON d   1      27.920 -14.103   5.912  0.00  0.00    -0.265 OA
ATOM     22  N1  NON d   1      30.208 -14.147   5.676  0.00  0.00    -0.233 N 
ATOM     23  H1  NON d   1      31.023 -14.285   5.096  0.00  0.00     0.197 HD
BRANCH  22  24
ATOM     24  O2  NON d   1      30.379 -14.449   7.044  0.00  0.00    -0.287 OA
ATOM     25  H2  NON d   1      29.511 -14.825   7.281  0.00  0.00     0.244 HD
ENDBRANCH  22  24
ENDBRANCH  17  20
ENDBRANCH  13  14
ENDBRANCH   1  13
BRANCH  11  26
ATOM     26  C15 NON d   1      27.232 -13.298  -3.138  0.00  0.00     0.073 C 
BRANCH  26  27
ATOM     27  C16 NON d   1      27.944 -14.043  -4.263  0.00  0.00    -0.056 A 
ATOM     28  C17 NON d   1      28.679 -15.194  -3.936  0.00  0.00     0.007 A 
ATOM     29  C18 NON d   1      29.346 -15.930  -4.920  0.00  0.00     0.001 A 
ATOM     30  C19 NON d   1      29.285 -15.528  -6.251  0.00  0.00     0.000 A 
ATOM     31  C20 NON d   1      28.555 -14.396  -6.597  0.00  0.00     0.001 A 
ATOM     32  C21 NON d   1      27.890 -13.662  -5.612  0.00  0.00     0.007 A 
ENDBRANCH  26  27
ENDBRANCH  11  26
TORSDOF 6
ENDMDL
MODEL 7
REMARK VINA RESULT:    -8.280      3.303      7.077
REMARK INTER + INTRA:         -12.061
REMARK INTER:                 -10.069
REMARK INTRA:                  -1.992
REMARK CONF_INDEPENDENT:        1.790
REMARK UNBOUND:                -1.992
REMARK  6 active torsions:
REMARK  status: ('A' for Active; 'I' for Inactive)
REMARK       I    between atoms: C1_2  and  N1_3 
REMARK    1  A    between atoms: C1_2  and  C2_5 
REMARK    2  A    between atoms: N1_3  and  O2_4 
REMARK    3  A    between atoms: C5_8  and  C6_9 
REMARK    4  A    between atoms: C6_9  and  N2_10 
REMARK    5  A    between atoms: C14_20  and  C15_21 
REMARK    6  A    between atoms: C15_21  and  C16_22 
ROOT
ATOM      1  N2  NON d   1      27.863 -15.399  -2.908  0.00  0.00    -0.361 N 
ATOM      2  C7  NON d   1      28.457 -15.186  -4.165  0.00  0.00     0.058 C 
ATOM      3  C8  NON d   1      29.841 -15.089  -4.358  0.00  0.00     0.031 C 
ATOM      4  C9  NON d   1      30.423 -15.018  -5.636  0.00  0.00     0.002 C 
ATOM      5  C10 NON d   1      29.626 -14.940  -6.769  0.00  0.00     0.002 C 
ATOM      6  C11 NON d   1      28.253 -14.850  -6.613  0.00  0.00     0.032 C 
ATOM      7  C12 NON d   1      27.690 -14.943  -5.333  0.00  0.00     0.061 C 
ATOM      8  N3  NON d   1      26.326 -14.665  -5.241  0.00  0.00    -0.323 N 
ATOM      9  C13 NON d   1      25.684 -14.662  -4.041  0.00  0.00     0.245 C 
ATOM     10  O3  NON d   1      24.596 -14.098  -3.938  0.00  0.00    -0.271 OA
ATOM     11  C14 NON d   1      26.343 -15.541  -2.961  0.00  0.00     0.181 C 
ATOM     12  H11 NON d   1      25.850 -14.205  -6.004  0.00  0.00     0.169 HD
ENDROOT
BRANCH   1  13
ATOM     13  C6  NON d   1      28.447 -16.238  -1.817  0.00  0.00     0.162 C 
BRANCH  13  14
ATOM     14  C5  NON d   1      28.972 -15.711  -0.495  0.00  0.00    -0.040 A 
ATOM     15  C4  NON d   1      28.154 -15.142   0.491  0.00  0.00     0.010 A 
ATOM     16  C3  NON d   1      28.701 -14.680   1.699  0.00  0.00     0.017 A 
ATOM     17  C2  NON d   1      30.087 -14.685   1.904  0.00  0.00     0.034 A 
ATOM     18  C23 NON d   1      30.919 -15.166   0.889  0.00  0.00     0.017 A 
ATOM     19  C22 NON d   1      30.365 -15.671  -0.292  0.00  0.00     0.010 A 
BRANCH  17  20
ATOM     20  C1  NON d   1      30.630 -14.209   3.213  0.00  0.00     0.275 C 
ATOM     21  O1  NON d   1      31.426 -13.280   3.248  0.00  0.00    -0.265 OA
ATOM     22  N1  NON d   1      30.179 -14.882   4.331  0.00  0.00    -0.233 N 
ATOM     23  H1  NON d   1      29.446 -15.576   4.314  0.00  0.00     0.197 HD
BRANCH  22  24
ATOM     24  O2  NON d   1      30.395 -14.257   5.578  0.00  0.00    -0.287 OA
ATOM     25  H2  NON d   1      31.144 -13.663   5.383  0.00  0.00     0.244 HD
ENDBRANCH  22  24
ENDBRANCH  17  20
ENDBRANCH  13  14
ENDBRANCH   1  13
BRANCH  11  26
ATOM     26  C15 NON d   1      25.631 -15.269  -1.608  0.00  0.00     0.073 C 
BRANCH  26  27
ATOM     27  C16 NON d   1      24.737 -16.378  -1.063  0.00  0.00    -0.056 A 
ATOM     28  C17 NON d   1      25.351 -17.515  -0.510  0.00  0.00     0.007 A 
ATOM     29  C18 NON d   1      24.590 -18.563   0.017  0.00  0.00     0.001 A 
ATOM     30  C19 NON d   1      23.200 -18.490   0.004  0.00  0.00     0.000 A 
ATOM     31  C20 NON d   1      22.574 -17.370  -0.531  0.00  0.00     0.001 A 
ATOM     32  C21 NON d   1      23.335 -16.324  -1.057  0.00  0.00     0.007 A 
ENDBRANCH  26  27
ENDBRANCH  11  26
TORSDOF 6
ENDMDL
MODEL 8
REMARK VINA RESULT:    -8.266      1.439      5.035
REMARK INTER + INTRA:         -12.563
REMARK INTER:                 -10.056
REMARK INTRA:                  -2.507
REMARK CONF_INDEPENDENT:        1.790
REMARK UNBOUND:                -2.507
REMARK  6 active torsions:
REMARK  status: ('A' for Active; 'I' for Inactive)
REMARK       I    between atoms: C1_2  and  N1_3 
REMARK    1  A    between atoms: C1_2  and  C2_5 
REMARK    2  A    between atoms: N1_3  and  O2_4 
REMARK    3  A    between atoms: C5_8  and  C6_9 
REMARK    4  A    between atoms: C6_9  and  N2_10 
REMARK    5  A    between atoms: C14_20  and  C15_21 
REMARK    6  A    between atoms: C15_21  and  C16_22 
ROOT
ATOM      1  N2  NON d   1      27.988 -15.275  -0.163  0.00  0.00    -0.361 N 
ATOM      2  C7  NON d   1      28.218 -14.509   0.994  0.00  0.00     0.058 C 
ATOM      3  C8  NON d   1      27.408 -14.573   2.135  0.00  0.00     0.031 C 
ATOM      4  C9  NON d   1      27.733 -13.908   3.330  0.00  0.00     0.002 C 
ATOM      5  C10 NON d   1      28.837 -13.070   3.392  0.00  0.00     0.002 C 
ATOM      6  C11 NON d   1      29.562 -12.837   2.236  0.00  0.00     0.032 C 
ATOM      7  C12 NON d   1      29.235 -13.523   1.058  0.00  0.00     0.061 C 
ATOM      8  N3  NON d   1      29.892 -13.103  -0.099  0.00  0.00    -0.323 N 
ATOM      9  C13 NON d   1      29.609 -13.653  -1.312  0.00  0.00     0.245 C 
ATOM     10  O3  NON d   1      29.933 -13.057  -2.337  0.00  0.00    -0.271 OA
ATOM     11  C14 NON d   1      29.047 -15.087  -1.248  0.00  0.00     0.181 C 
ATOM     12  H11 NON d   1      30.380 -12.219  -0.112  0.00  0.00     0.169 HD
ENDROOT
BRANCH   1  13
ATOM     13  C6  NON d   1      27.445 -16.668  -0.173  0.00  0.00     0.162 C 
BRANCH  13  14
ATOM     14  C5  NON d   1      25.983 -17.036  -0.338  0.00  0.00    -0.040 A 
ATOM     15  C4  NON d   1      25.048 -16.217  -0.986  0.00  0.00     0.010 A 
ATOM     16  C3  NON d   1      23.708 -16.620  -1.114  0.00  0.00     0.017 A 
ATOM     17  C2  NON d   1      23.255 -17.799  -0.507  0.00  0.00     0.034 A 
ATOM     18  C23 NON d   1      24.160 -18.576   0.220  0.00  0.00     0.017 A 
ATOM     19  C22 NON d   1      25.504 -18.196   0.301  0.00  0.00     0.010 A 
BRANCH  17  20
ATOM     20  C1  NON d   1      21.828 -18.206  -0.687  0.00  0.00     0.275 C 
ATOM     21  O1  NON d   1      21.046 -17.467  -1.270  0.00  0.00    -0.265 OA
ATOM     22  N1  NON d   1      21.481 -19.433  -0.157  0.00  0.00    -0.233 N 
ATOM     23  H1  NON d   1      22.145 -20.088   0.230  0.00  0.00     0.197 HD
BRANCH  22  24
ATOM     24  O2  NON d   1      20.261 -19.991  -0.595  0.00  0.00    -0.287 OA
ATOM     25  H2  NON d   1      19.822 -19.226  -1.010  0.00  0.00     0.244 HD
ENDBRANCH  22  24
ENDBRANCH  17  20
ENDBRANCH  13  14
ENDBRANCH   1  13
BRANCH  11  26
ATOM     26  C15 NON d   1      28.578 -15.491  -2.672  0.00  0.00     0.073 C 
BRANCH  26  27
ATOM     27  C16 NON d   1      27.307 -14.828  -3.194  0.00  0.00    -0.056 A 
ATOM     28  C17 NON d   1      26.707 -15.359  -4.348  0.00  0.00     0.007 A 
ATOM     29  C18 NON d   1      25.534 -14.806  -4.872  0.00  0.00     0.001 A 
ATOM     30  C19 NON d   1      24.940 -13.714  -4.249  0.00  0.00     0.000 A 
ATOM     31  C20 NON d   1      25.514 -13.178  -3.102  0.00  0.00     0.001 A 
ATOM     32  C21 NON d   1      26.685 -13.731  -2.579  0.00  0.00     0.007 A 
ENDBRANCH  26  27
ENDBRANCH  11  26
TORSDOF 6
ENDMDL
MODEL 9
REMARK VINA RESULT:    -8.114      2.016      5.178
REMARK INTER + INTRA:         -12.239
REMARK INTER:                  -9.903
REMARK INTRA:                  -2.336
REMARK CONF_INDEPENDENT:        1.790
REMARK UNBOUND:                -2.336
REMARK  6 active torsions:
REMARK  status: ('A' for Active; 'I' for Inactive)
REMARK       I    between atoms: C1_2  and  N1_3 
REMARK    1  A    between atoms: C1_2  and  C2_5 
REMARK    2  A    between atoms: N1_3  and  O2_4 
REMARK    3  A    between atoms: C5_8  and  C6_9 
REMARK    4  A    between atoms: C6_9  and  N2_10 
REMARK    5  A    between atoms: C14_20  and  C15_21 
REMARK    6  A    between atoms: C15_21  and  C16_22 
ROOT
ATOM      1  N2  NON d   1      27.974 -15.386  -0.540  0.00  0.00    -0.361 N 
ATOM      2  C7  NON d   1      27.792 -14.272   0.299  0.00  0.00     0.058 C 
ATOM      3  C8  NON d   1      26.608 -14.023   1.005  0.00  0.00     0.031 C 
ATOM      4  C9  NON d   1      26.493 -12.985   1.946  0.00  0.00     0.002 C 
ATOM      5  C10 NON d   1      27.536 -12.092   2.141  0.00  0.00     0.002 C 
ATOM      6  C11 NON d   1      28.657 -12.192   1.334  0.00  0.00     0.032 C 
ATOM      7  C12 NON d   1      28.763 -13.245   0.415  0.00  0.00     0.061 C 
ATOM      8  N3  NON d   1      29.832 -13.174  -0.479  0.00  0.00    -0.323 N 
ATOM      9  C13 NON d   1      29.998 -14.106  -1.458  0.00  0.00     0.245 C 
ATOM     10  O3  NON d   1      30.720 -13.851  -2.420  0.00  0.00    -0.271 OA
ATOM     11  C14 NON d   1      29.374 -15.480  -1.145  0.00  0.00     0.181 C 
ATOM     12  H11 NON d   1      30.338 -12.308  -0.597  0.00  0.00     0.169 HD
ENDROOT
BRANCH   1  13
ATOM     13  C6  NON d   1      27.398 -16.744  -0.297  0.00  0.00     0.162 C 
BRANCH  13  14
ATOM     14  C5  NON d   1      25.932 -17.109  -0.436  0.00  0.00    -0.040 A 
ATOM     15  C4  NON d   1      25.011 -16.348  -1.169  0.00  0.00     0.010 A 
ATOM     16  C3  NON d   1      23.668 -16.745  -1.267  0.00  0.00     0.017 A 
ATOM     17  C2  NON d   1      23.197 -17.855  -0.551  0.00  0.00     0.034 A 
ATOM     18  C23 NON d   1      24.088 -18.567   0.255  0.00  0.00     0.017 A 
ATOM     19  C22 NON d   1      25.436 -18.196   0.309  0.00  0.00     0.010 A 
BRANCH  17  20
ATOM     20  C1  NON d   1      21.766 -18.262  -0.702  0.00  0.00     0.275 C 
ATOM     21  O1  NON d   1      20.973 -17.524  -1.273  0.00  0.00    -0.265 OA
ATOM     22  N1  NON d   1      21.429 -19.486  -0.160  0.00  0.00    -0.233 N 
ATOM     23  H1  NON d   1      22.099 -20.140   0.217  0.00  0.00     0.197 HD
BRANCH  22  24
ATOM     24  O2  NON d   1      20.200 -20.045  -0.572  0.00  0.00    -0.287 OA
ATOM     25  H2  NON d   1      19.878 -19.384  -1.212  0.00  0.00     0.244 HD
ENDBRANCH  22  24
ENDBRANCH  17  20
ENDBRANCH  13  14
ENDBRANCH   1  13
BRANCH  11  26
ATOM     26  C15 NON d   1      29.457 -16.357  -2.423  0.00  0.00     0.073 C 
BRANCH  26  27
ATOM     27  C16 NON d   1      28.777 -15.816  -3.677  0.00  0.00    -0.056 A 
ATOM     28  C17 NON d   1      27.442 -15.390  -3.577  0.00  0.00     0.007 A 
ATOM     29  C18 NON d   1      26.763 -14.872  -4.684  0.00  0.00     0.001 A 
ATOM     30  C19 NON d   1      27.410 -14.769  -5.912  0.00  0.00     0.000 A 
ATOM     31  C20 NON d   1      28.734 -15.178  -6.030  0.00  0.00     0.001 A 
ATOM     32  C21 NON d   1      29.410 -15.694  -4.922  0.00  0.00     0.007 A 
ENDBRANCH  26  27
ENDBRANCH  11  26
TORSDOF 6
ENDMDL
