MODEL 1
REMARK VINA RESULT:    -7.251      0.000      0.000
REMARK INTER + INTRA:         -15.873
REMARK INTER:                 -11.428
REMARK INTRA:                  -4.446
REMARK CONF_INDEPENDENT:        4.176
REMARK UNBOUND:                -4.446
REMARK  14 active torsions:
REMARK  status: ('A' for Active; 'I' for Inactive)
REMARK    1  A    between atoms: C2_2  and  C4_4 
REMARK    2  A    between atoms: C5_6  and  N2_7 
REMARK    3  A    between atoms: N2_7  and  S1_9 
REMARK    4  A    between atoms: C8_14  and  C9_15 
REMARK    5  A    between atoms: C15_22  and  C16_23 
REMARK    6  A    between atoms: C16_23  and  C17_24 
REMARK    7  A    between atoms: C18_25  and  C17_24 
REMARK    8  A    between atoms: C18_25  and  O3_26 
REMARK    9  A    between atoms: C18_25  and  C19_27 
REMARK   10  A    between atoms: C20_28  and  C19_27 
REMARK   11  A    between atoms: C20_28  and  O4_29 
REMARK   12  A    between atoms: C20_28  and  C21_30 
REMARK   13  A    between atoms: C21_30  and  C22_31 
REMARK       I    between atoms: C22_31  and  N4_33 
REMARK   14  A    between atoms: N4_33  and  O6_34 
ROOT
ATOM      1  C4  NON d   1      29.296 -14.924  -0.518  0.00  0.00     0.069 C 
ATOM      2  N1  NON d   1      29.481 -14.422   0.818  0.00  0.00    -0.065 NA
ATOM      3  C5  NON d   1      28.614 -14.823   1.821  0.00  0.00     0.738 C 
ATOM      4  N3  NON d   1      27.612 -15.675   1.542  0.00  0.00    -0.060 NA
ATOM      5  C8  NON d   1      27.419 -16.138   0.224  0.00  0.00     0.098 C 
ATOM      6  C15 NON d   1      28.326 -15.890  -0.843  0.00  0.00     0.020 C 
ENDROOT
BRANCH   6   7
ATOM      7  C16 NON d   1      28.094 -16.107  -2.322  0.00  0.00     0.014 C 
BRANCH   7   8
ATOM      8  C17 NON d   1      27.498 -15.540  -3.491  0.00  0.00     0.006 C 
BRANCH   8   9
ATOM      9  C18 NON d   1      25.651 -15.546  -3.597  0.00  0.00     0.143 C 
BRANCH   9  10
ATOM     10  O3  NON d   1      25.452 -15.294  -5.077  0.00  0.00    -0.392 OA
ATOM     11  H21 NON d   1      25.966 -14.496  -5.286  0.00  0.00     0.210 HD
ENDBRANCH   9  10
BRANCH   9  12
ATOM     12  C19 NON d   1      24.731 -14.396  -3.145  0.00  0.00     0.068 C 
BRANCH  12  13
ATOM     13  C20 NON d   1      25.113 -12.945  -3.590  0.00  0.00     0.129 C 
BRANCH  13  14
ATOM     14  O4  NON d   1      25.159 -12.890  -5.016  0.00  0.00    -0.395 OA
ATOM     15  H25 NON d   1      24.403 -13.407  -5.369  0.00  0.00     0.210 HD
ENDBRANCH  13  14
BRANCH  13  16
ATOM     16  C21 NON d   1      26.302 -12.213  -2.949  0.00  0.00     0.136 C 
BRANCH  16  17
ATOM     17  C22 NON d   1      26.293 -10.698  -3.041  0.00  0.00     0.243 C 
ATOM     18  O5  NON d   1      27.067  -9.991  -2.400  0.00  0.00    -0.271 OA
ATOM     19  N4  NON d   1      25.288 -10.233  -3.869  0.00  0.00    -0.237 N 
ATOM     20  H28 NON d   1      24.778 -10.820  -4.519  0.00  0.00     0.197 HD
BRANCH  19  21
ATOM     21  O6  NON d   1      25.215  -8.844  -4.081  0.00  0.00    -0.287 OA
ATOM     22  H29 NON d   1      25.883  -8.491  -3.463  0.00  0.00     0.244 HD
ENDBRANCH  19  21
ENDBRANCH  16  17
ENDBRANCH  13  16
ENDBRANCH  12  13
ENDBRANCH   9  12
ENDBRANCH   8   9
ENDBRANCH   7   8
ENDBRANCH   6   7
BRANCH   5  23
ATOM     23  C9  NON d   1      26.041 -16.750   0.026  0.00  0.00    -0.006 A 
ATOM     24  C10 NON d   1      24.971 -15.957  -0.453  0.00  0.00     0.017 A 
ATOM     25  C11 NON d   1      23.714 -16.494  -0.774  0.00  0.00     0.043 A 
ATOM     26  C12 NON d   1      23.494 -17.853  -0.639  0.00  0.00     0.116 A 
ATOM     27  F1  NON d   1      22.313 -18.381  -0.983  0.00  0.00    -0.206 F 
ATOM     28  C13 NON d   1      24.495 -18.671  -0.148  0.00  0.00     0.043 A 
ATOM     29  C14 NON d   1      25.735 -18.118   0.207  0.00  0.00     0.017 A 
ENDBRANCH   5  23
BRANCH   1  30
ATOM     30  C2  NON d   1      30.248 -14.473  -1.794  0.00  0.00     0.031 C 
ATOM     31  C1  NON d   1      31.474 -15.268  -2.284  0.00  0.00     0.016 C 
ATOM     32  C3  NON d   1      29.940 -13.088  -2.392  0.00  0.00     0.016 C 
ENDBRANCH   1  30
BRANCH   3  33
ATOM     33  N2  NON d   1      28.790 -14.438   3.338  0.00  0.00    -0.109 N 
ATOM     34  C6  NON d   1      30.220 -14.071   3.778  0.00  0.00     0.189 C 
BRANCH  33  35
ATOM     35  S1  NON d   1      27.556 -13.498   3.992  0.00  0.00     0.242 S 
ATOM     36  C7  NON d   1      28.508 -12.435   5.046  0.00  0.00     0.186 C 
ATOM     37  O1  NON d   1      27.028 -12.660   2.930  0.00  0.00    -0.205 OA
ATOM     38  O2  NON d   1      26.658 -14.297   4.799  0.00  0.00    -0.205 OA
ENDBRANCH  33  35
ENDBRANCH   3  33
TORSDOF 14
ENDMDL
MODEL 2
REMARK VINA RESULT:    -7.114      1.444      2.144
REMARK INTER + INTRA:         -16.355
REMARK INTER:                 -11.290
REMARK INTRA:                  -5.065
REMARK CONF_INDEPENDENT:        4.176
REMARK UNBOUND:                -5.065
REMARK  14 active torsions:
REMARK  status: ('A' for Active; 'I' for Inactive)
REMARK    1  A    between atoms: C2_2  and  C4_4 
REMARK    2  A    between atoms: C5_6  and  N2_7 
REMARK    3  A    between atoms: N2_7  and  S1_9 
REMARK    4  A    between atoms: C8_14  and  C9_15 
REMARK    5  A    between atoms: C15_22  and  C16_23 
REMARK    6  A    between atoms: C16_23  and  C17_24 
REMARK    7  A    between atoms: C18_25  and  C17_24 
REMARK    8  A    between atoms: C18_25  and  O3_26 
REMARK    9  A    between atoms: C18_25  and  C19_27 
REMARK   10  A    between atoms: C20_28  and  C19_27 
REMARK   11  A    between atoms: C20_28  and  O4_29 
REMARK   12  A    between atoms: C20_28  and  C21_30 
REMARK   13  A    between atoms: C21_30  and  C22_31 
REMARK       I    between atoms: C22_31  and  N4_33 
REMARK   14  A    between atoms: N4_33  and  O6_34 
ROOT
ATOM      1  C4  NON d   1      29.050 -14.856  -0.650  0.00  0.00     0.069 C 
ATOM      2  N1  NON d   1      29.242 -14.458   0.719  0.00  0.00    -0.065 NA
ATOM      3  C5  NON d   1      28.387 -14.944   1.695  0.00  0.00     0.738 C 
ATOM      4  N3  NON d   1      27.391 -15.782   1.358  0.00  0.00    -0.060 NA
ATOM      5  C8  NON d   1      27.190 -16.143   0.009  0.00  0.00     0.098 C 
ATOM      6  C15 NON d   1      28.086 -15.803  -1.042  0.00  0.00     0.020 C 
ENDROOT
BRANCH   6   7
ATOM      7  C16 NON d   1      27.843 -15.907  -2.532  0.00  0.00     0.014 C 
BRANCH   7   8
ATOM      8  C17 NON d   1      26.975 -15.494  -3.590  0.00  0.00     0.006 C 
BRANCH   8   9
ATOM      9  C18 NON d   1      25.556 -14.390  -3.149  0.00  0.00     0.143 C 
BRANCH   9  10
ATOM     10  O3  NON d   1      24.805 -14.359  -4.464  0.00  0.00    -0.392 OA
ATOM     11  H21 NON d   1      25.473 -14.479  -5.160  0.00  0.00     0.210 HD
ENDBRANCH   9  10
BRANCH   9  12
ATOM     12  C19 NON d   1      25.633 -12.858  -3.007  0.00  0.00     0.068 C 
BRANCH  12  13
ATOM     13  C20 NON d   1      26.262 -12.051  -4.191  0.00  0.00     0.129 C 
BRANCH  13  14
ATOM     14  O4  NON d   1      25.528 -12.324  -5.386  0.00  0.00    -0.395 OA
ATOM     15  H25 NON d   1      24.631 -12.631  -5.133  0.00  0.00     0.210 HD
ENDBRANCH  13  14
BRANCH  13  16
ATOM     16  C21 NON d   1      27.779 -12.066  -4.435  0.00  0.00     0.136 C 
BRANCH  16  17
ATOM     17  C22 NON d   1      28.343 -13.300  -5.116  0.00  0.00     0.243 C 
ATOM     18  O5  NON d   1      29.522 -13.630  -5.017  0.00  0.00    -0.271 OA
ATOM     19  N4  NON d   1      27.395 -13.947  -5.887  0.00  0.00    -0.237 N 
ATOM     20  H28 NON d   1      26.399 -13.770  -5.820  0.00  0.00     0.197 HD
BRANCH  19  21
ATOM     21  O6  NON d   1      27.783 -15.142  -6.521  0.00  0.00    -0.287 OA
ATOM     22  H29 NON d   1      28.737 -15.197  -6.322  0.00  0.00     0.244 HD
ENDBRANCH  19  21
ENDBRANCH  16  17
ENDBRANCH  13  16
ENDBRANCH  12  13
ENDBRANCH   9  12
ENDBRANCH   8   9
ENDBRANCH   7   8
ENDBRANCH   6   7
BRANCH   5  23
ATOM     23  C9  NON d   1      25.817 -16.751  -0.225  0.00  0.00    -0.006 A 
ATOM     24  C10 NON d   1      25.611 -18.139  -0.045  0.00  0.00     0.017 A 
ATOM     25  C11 NON d   1      24.342 -18.734  -0.124  0.00  0.00     0.043 A 
ATOM     26  C12 NON d   1      23.230 -17.948  -0.372  0.00  0.00     0.116 A 
ATOM     27  F1  NON d   1      22.011 -18.500  -0.406  0.00  0.00    -0.206 F 
ATOM     28  C13 NON d   1      23.376 -16.590  -0.585  0.00  0.00     0.043 A 
ATOM     29  C14 NON d   1      24.654 -16.012  -0.543  0.00  0.00     0.017 A 
ENDBRANCH   5  23
BRANCH   1  30
ATOM     30  C2  NON d   1      29.987 -14.298  -1.895  0.00  0.00     0.031 C 
ATOM     31  C1  NON d   1      30.911 -15.185  -2.749  0.00  0.00     0.016 C 
ATOM     32  C3  NON d   1      30.017 -12.767  -2.064  0.00  0.00     0.016 C 
ENDBRANCH   1  30
BRANCH   3  33
ATOM     33  N2  NON d   1      28.573 -14.677   3.236  0.00  0.00    -0.109 N 
ATOM     34  C6  NON d   1      30.021 -14.450   3.710  0.00  0.00     0.189 C 
BRANCH  33  35
ATOM     35  S1  NON d   1      27.405 -13.694   3.944  0.00  0.00     0.242 S 
ATOM     36  C7  NON d   1      28.446 -12.443   4.651  0.00  0.00     0.186 C 
ATOM     37  O1  NON d   1      26.659 -13.053   2.875  0.00  0.00    -0.205 OA
ATOM     38  O2  NON d   1      26.702 -14.390   5.001  0.00  0.00    -0.205 OA
ENDBRANCH  33  35
ENDBRANCH   3  33
TORSDOF 14
ENDMDL
MODEL 3
REMARK VINA RESULT:    -6.431      1.707      2.568
REMARK INTER + INTRA:         -15.504
REMARK INTER:                 -10.607
REMARK INTRA:                  -4.898
REMARK CONF_INDEPENDENT:        4.176
REMARK UNBOUND:                -4.898
REMARK  14 active torsions:
REMARK  status: ('A' for Active; 'I' for Inactive)
REMARK    1  A    between atoms: C2_2  and  C4_4 
REMARK    2  A    between atoms: C5_6  and  N2_7 
REMARK    3  A    between atoms: N2_7  and  S1_9 
REMARK    4  A    between atoms: C8_14  and  C9_15 
REMARK    5  A    between atoms: C15_22  and  C16_23 
REMARK    6  A    between atoms: C16_23  and  C17_24 
REMARK    7  A    between atoms: C18_25  and  C17_24 
REMARK    8  A    between atoms: C18_25  and  O3_26 
REMARK    9  A    between atoms: C18_25  and  C19_27 
REMARK   10  A    between atoms: C20_28  and  C19_27 
REMARK   11  A    between atoms: C20_28  and  O4_29 
REMARK   12  A    between atoms: C20_28  and  C21_30 
REMARK   13  A    between atoms: C21_30  and  C22_31 
REMARK       I    between atoms: C22_31  and  N4_33 
REMARK   14  A    between atoms: N4_33  and  O6_34 
ROOT
ATOM      1  C4  NON d   1      30.173 -14.901   0.501  0.00  0.00     0.069 C 
ATOM      2  N1  NON d   1      29.980 -14.072   1.661  0.00  0.00    -0.065 NA
ATOM      3  C5  NON d   1      28.783 -14.142   2.355  0.00  0.00     0.738 C 
ATOM      4  N3  NON d   1      27.817 -14.983   1.944  0.00  0.00    -0.060 NA
ATOM      5  C8  NON d   1      28.003 -15.769   0.788  0.00  0.00     0.098 C 
ATOM      6  C15 NON d   1      29.236 -15.864   0.086  0.00  0.00     0.020 C 
ENDROOT
BRANCH   6   7
ATOM      7  C16 NON d   1      29.474 -16.456  -1.286  0.00  0.00     0.014 C 
BRANCH   7   8
ATOM      8  C17 NON d   1      28.887 -16.650  -2.575  0.00  0.00     0.006 C 
BRANCH   8   9
ATOM      9  C18 NON d   1      29.519 -15.608  -3.968  0.00  0.00     0.143 C 
BRANCH   9  10
ATOM     10  O3  NON d   1      28.960 -14.254  -3.582  0.00  0.00    -0.392 OA
ATOM     11  H21 NON d   1      29.131 -13.666  -4.338  0.00  0.00     0.210 HD
ENDBRANCH   9  10
BRANCH   9  12
ATOM     12  C19 NON d   1      28.939 -15.586  -5.394  0.00  0.00     0.068 C 
BRANCH  12  13
ATOM     13  C20 NON d   1      27.541 -14.913  -5.599  0.00  0.00     0.129 C 
BRANCH  13  14
ATOM     14  O4  NON d   1      27.722 -13.512  -5.811  0.00  0.00    -0.395 OA
ATOM     15  H25 NON d   1      28.617 -13.265  -5.489  0.00  0.00     0.210 HD
ENDBRANCH  13  14
BRANCH  13  16
ATOM     16  C21 NON d   1      26.381 -15.201  -4.633  0.00  0.00     0.136 C 
BRANCH  16  17
ATOM     17  C22 NON d   1      25.503 -14.020  -4.260  0.00  0.00     0.243 C 
ATOM     18  O5  NON d   1      24.276 -14.075  -4.278  0.00  0.00    -0.271 OA
ATOM     19  N4  NON d   1      26.246 -12.893  -3.962  0.00  0.00    -0.237 N 
ATOM     20  H28 NON d   1      27.244 -12.908  -3.781  0.00  0.00     0.197 HD
BRANCH  19  21
ATOM     21  O6  NON d   1      25.546 -11.747  -3.542  0.00  0.00    -0.287 OA
ATOM     22  H29 NON d   1      24.646 -11.901  -3.888  0.00  0.00     0.244 HD
ENDBRANCH  19  21
ENDBRANCH  16  17
ENDBRANCH  13  16
ENDBRANCH  12  13
ENDBRANCH   9  12
ENDBRANCH   8   9
ENDBRANCH   7   8
ENDBRANCH   6   7
BRANCH   5  23
ATOM     23  C9  NON d   1      26.694 -16.336   0.262  0.00  0.00    -0.006 A 
ATOM     24  C10 NON d   1      25.902 -15.584  -0.638  0.00  0.00     0.017 A 
ATOM     25  C11 NON d   1      24.752 -16.103  -1.253  0.00  0.00     0.043 A 
ATOM     26  C12 NON d   1      24.366 -17.407  -0.995  0.00  0.00     0.116 A 
ATOM     27  F1  NON d   1      23.296 -17.926  -1.610  0.00  0.00    -0.206 F 
ATOM     28  C13 NON d   1      25.086 -18.178  -0.101  0.00  0.00     0.043 A 
ATOM     29  C14 NON d   1      26.212 -17.635   0.538  0.00  0.00     0.017 A 
ENDBRANCH   5  23
BRANCH   1  30
ATOM     30  C2  NON d   1      31.547 -14.860  -0.422  0.00  0.00     0.031 C 
ATOM     31  C1  NON d   1      31.775 -13.886  -1.593  0.00  0.00     0.016 C 
ATOM     32  C3  NON d   1      32.559 -15.988  -0.150  0.00  0.00     0.016 C 
ENDBRANCH   1  30
BRANCH   3  33
ATOM     33  N2  NON d   1      28.505 -13.377   3.703  0.00  0.00    -0.109 N 
ATOM     34  C6  NON d   1      27.720 -12.058   3.579  0.00  0.00     0.189 C 
BRANCH  33  35
ATOM     35  S1  NON d   1      28.104 -14.351   5.016  0.00  0.00     0.242 S 
ATOM     36  C7  NON d   1      28.646 -13.309   6.346  0.00  0.00     0.186 C 
ATOM     37  O1  NON d   1      26.656 -14.406   5.100  0.00  0.00    -0.205 OA
ATOM     38  O2  NON d   1      28.878 -15.575   5.019  0.00  0.00    -0.205 OA
ENDBRANCH  33  35
ENDBRANCH   3  33
TORSDOF 14
ENDMDL
MODEL 4
REMARK VINA RESULT:    -6.354      1.250      1.634
REMARK INTER + INTRA:         -16.650
REMARK INTER:                 -10.530
REMARK INTRA:                  -6.119
REMARK CONF_INDEPENDENT:        4.176
REMARK UNBOUND:                -6.119
REMARK  14 active torsions:
REMARK  status: ('A' for Active; 'I' for Inactive)
REMARK    1  A    between atoms: C2_2  and  C4_4 
REMARK    2  A    between atoms: C5_6  and  N2_7 
REMARK    3  A    between atoms: N2_7  and  S1_9 
REMARK    4  A    between atoms: C8_14  and  C9_15 
REMARK    5  A    between atoms: C15_22  and  C16_23 
REMARK    6  A    between atoms: C16_23  and  C17_24 
REMARK    7  A    between atoms: C18_25  and  C17_24 
REMARK    8  A    between atoms: C18_25  and  O3_26 
REMARK    9  A    between atoms: C18_25  and  C19_27 
REMARK   10  A    between atoms: C20_28  and  C19_27 
REMARK   11  A    between atoms: C20_28  and  O4_29 
REMARK   12  A    between atoms: C20_28  and  C21_30 
REMARK   13  A    between atoms: C21_30  and  C22_31 
REMARK       I    between atoms: C22_31  and  N4_33 
REMARK   14  A    between atoms: N4_33  and  O6_34 
ROOT
ATOM      1  C4  NON d   1      29.124 -14.954  -0.592  0.00  0.00     0.069 C 
ATOM      2  N1  NON d   1      29.291 -14.492   0.760  0.00  0.00    -0.065 NA
ATOM      3  C5  NON d   1      28.407 -14.916   1.739  0.00  0.00     0.738 C 
ATOM      4  N3  NON d   1      27.405 -15.755   1.420  0.00  0.00    -0.060 NA
ATOM      5  C8  NON d   1      27.230 -16.179   0.087  0.00  0.00     0.098 C 
ATOM      6  C15 NON d   1      28.154 -15.906  -0.958  0.00  0.00     0.020 C 
ENDROOT
BRANCH   6   7
ATOM      7  C16 NON d   1      27.943 -16.080  -2.446  0.00  0.00     0.014 C 
BRANCH   7   8
ATOM      8  C17 NON d   1      27.351 -15.486  -3.604  0.00  0.00     0.006 C 
BRANCH   8   9
ATOM      9  C18 NON d   1      25.526 -15.180  -3.569  0.00  0.00     0.143 C 
BRANCH   9  10
ATOM     10  O3  NON d   1      25.271 -14.827  -5.020  0.00  0.00    -0.392 OA
ATOM     11  H21 NON d   1      25.802 -14.033  -5.202  0.00  0.00     0.210 HD
ENDBRANCH   9  10
BRANCH   9  12
ATOM     12  C19 NON d   1      24.848 -13.917  -3.007  0.00  0.00     0.068 C 
BRANCH  12  13
ATOM     13  C20 NON d   1      25.539 -12.540  -3.281  0.00  0.00     0.129 C 
BRANCH  13  14
ATOM     14  O4  NON d   1      25.552 -12.295  -4.688  0.00  0.00    -0.395 OA
ATOM     15  H25 NON d   1      24.738 -12.683  -5.076  0.00  0.00     0.210 HD
ENDBRANCH  13  14
BRANCH  13  16
ATOM     16  C21 NON d   1      26.884 -12.190  -2.626  0.00  0.00     0.136 C 
BRANCH  16  17
ATOM     17  C22 NON d   1      27.028 -12.531  -1.154  0.00  0.00     0.243 C 
ATOM     18  O5  NON d   1      26.378 -13.424  -0.614  0.00  0.00    -0.271 OA
ATOM     19  N4  NON d   1      27.915 -11.690  -0.509  0.00  0.00    -0.237 N 
ATOM     20  H28 NON d   1      28.567 -11.083  -0.993  0.00  0.00     0.197 HD
BRANCH  19  21
ATOM     21  O6  NON d   1      28.179 -11.944   0.849  0.00  0.00    -0.287 OA
ATOM     22  H29 NON d   1      27.839 -12.851   0.973  0.00  0.00     0.244 HD
ENDBRANCH  19  21
ENDBRANCH  16  17
ENDBRANCH  13  16
ENDBRANCH  12  13
ENDBRANCH   9  12
ENDBRANCH   8   9
ENDBRANCH   7   8
ENDBRANCH   6   7
BRANCH   5  23
ATOM     23  C9  NON d   1      25.852 -16.778  -0.149  0.00  0.00    -0.006 A 
ATOM     24  C10 NON d   1      24.773 -15.950  -0.540  0.00  0.00     0.017 A 
ATOM     25  C11 NON d   1      23.514 -16.462  -0.893  0.00  0.00     0.043 A 
ATOM     26  C12 NON d   1      23.302 -17.830  -0.879  0.00  0.00     0.116 A 
ATOM     27  F1  NON d   1      22.118 -18.330  -1.255  0.00  0.00    -0.206 F 
ATOM     28  C13 NON d   1      24.312 -18.684  -0.477  0.00  0.00     0.043 A 
ATOM     29  C14 NON d   1      25.554 -18.158  -0.089  0.00  0.00     0.017 A 
ENDBRANCH   5  23
BRANCH   1  30
ATOM     30  C2  NON d   1      30.097 -14.473  -1.840  0.00  0.00     0.031 C 
ATOM     31  C1  NON d   1      30.973 -15.427  -2.674  0.00  0.00     0.016 C 
ATOM     32  C3  NON d   1      30.217 -12.950  -2.035  0.00  0.00     0.016 C 
ENDBRANCH   1  30
BRANCH   3  33
ATOM     33  N2  NON d   1      28.563 -14.576   3.268  0.00  0.00    -0.109 N 
ATOM     34  C6  NON d   1      30.004 -14.364   3.768  0.00  0.00     0.189 C 
BRANCH  33  35
ATOM     35  S1  NON d   1      27.406 -13.525   3.895  0.00  0.00     0.242 S 
ATOM     36  C7  NON d   1      28.461 -12.223   4.478  0.00  0.00     0.186 C 
ATOM     37  O1  NON d   1      26.655 -12.978   2.779  0.00  0.00    -0.205 OA
ATOM     38  O2  NON d   1      26.709 -14.118   5.016  0.00  0.00    -0.205 OA
ENDBRANCH  33  35
ENDBRANCH   3  33
TORSDOF 14
ENDMDL
MODEL 5
REMARK VINA RESULT:    -5.436      2.431      4.055
REMARK INTER + INTRA:         -16.120
REMARK INTER:                  -9.613
REMARK INTRA:                  -6.507
REMARK CONF_INDEPENDENT:        4.176
REMARK UNBOUND:                -6.507
REMARK  14 active torsions:
REMARK  status: ('A' for Active; 'I' for Inactive)
REMARK    1  A    between atoms: C2_2  and  C4_4 
REMARK    2  A    between atoms: C5_6  and  N2_7 
REMARK    3  A    between atoms: N2_7  and  S1_9 
REMARK    4  A    between atoms: C8_14  and  C9_15 
REMARK    5  A    between atoms: C15_22  and  C16_23 
REMARK    6  A    between atoms: C16_23  and  C17_24 
REMARK    7  A    between atoms: C18_25  and  C17_24 
REMARK    8  A    between atoms: C18_25  and  O3_26 
REMARK    9  A    between atoms: C18_25  and  C19_27 
REMARK   10  A    between atoms: C20_28  and  C19_27 
REMARK   11  A    between atoms: C20_28  and  O4_29 
REMARK   12  A    between atoms: C20_28  and  C21_30 
REMARK   13  A    between atoms: C21_30  and  C22_31 
REMARK       I    between atoms: C22_31  and  N4_33 
REMARK   14  A    between atoms: N4_33  and  O6_34 
ROOT
ATOM      1  C4  NON d   1      28.983 -15.380  -2.922  0.00  0.00     0.069 C 
ATOM      2  N1  NON d   1      30.014 -15.551  -1.933  0.00  0.00    -0.065 NA
ATOM      3  C5  NON d   1      29.728 -16.237  -0.764  0.00  0.00     0.738 C 
ATOM      4  N3  NON d   1      28.496 -16.739  -0.564  0.00  0.00    -0.060 NA
ATOM      5  C8  NON d   1      27.483 -16.541  -1.525  0.00  0.00     0.098 C 
ATOM      6  C15 NON d   1      27.709 -15.966  -2.806  0.00  0.00     0.020 C 
ENDROOT
BRANCH   6   7
ATOM      7  C16 NON d   1      26.674 -15.474  -3.793  0.00  0.00     0.014 C 
BRANCH   7   8
ATOM      8  C17 NON d   1      25.754 -14.415  -4.066  0.00  0.00     0.006 C 
BRANCH   8   9
ATOM      9  C18 NON d   1      25.741 -12.973  -2.906  0.00  0.00     0.143 C 
BRANCH   9  10
ATOM     10  O3  NON d   1      25.420 -11.843  -3.862  0.00  0.00    -0.392 OA
ATOM     11  H21 NON d   1      24.773 -12.200  -4.494  0.00  0.00     0.210 HD
ENDBRANCH   9  10
BRANCH   9  12
ATOM     12  C19 NON d   1      26.993 -12.294  -2.319  0.00  0.00     0.068 C 
BRANCH  12  13
ATOM     13  C20 NON d   1      27.423 -12.694  -0.869  0.00  0.00     0.129 C 
BRANCH  13  14
ATOM     14  O4  NON d   1      28.694 -13.345  -0.920  0.00  0.00    -0.395 OA
ATOM     15  H25 NON d   1      29.074 -13.350  -0.014  0.00  0.00     0.210 HD
ENDBRANCH  13  14
BRANCH  13  16
ATOM     16  C21 NON d   1      26.446 -13.419   0.069  0.00  0.00     0.136 C 
BRANCH  16  17
ATOM     17  C22 NON d   1      26.951 -13.721   1.469  0.00  0.00     0.243 C 
ATOM     18  O5  NON d   1      26.371 -13.333   2.480  0.00  0.00    -0.271 OA
ATOM     19  N4  NON d   1      28.145 -14.418   1.452  0.00  0.00    -0.237 N 
ATOM     20  H28 NON d   1      28.515 -14.880   0.629  0.00  0.00     0.197 HD
BRANCH  19  21
ATOM     21  O6  NON d   1      28.683 -14.810   2.692  0.00  0.00    -0.287 OA
ATOM     22  H29 NON d   1      29.479 -15.313   2.436  0.00  0.00     0.244 HD
ENDBRANCH  19  21
ENDBRANCH  16  17
ENDBRANCH  13  16
ENDBRANCH  12  13
ENDBRANCH   9  12
ENDBRANCH   8   9
ENDBRANCH   7   8
ENDBRANCH   6   7
BRANCH   5  23
ATOM     23  C9  NON d   1      26.098 -16.816  -0.964  0.00  0.00    -0.006 A 
ATOM     24  C10 NON d   1      24.992 -16.036  -1.379  0.00  0.00     0.017 A 
ATOM     25  C11 NON d   1      23.674 -16.324  -0.992  0.00  0.00     0.043 A 
ATOM     26  C12 NON d   1      23.418 -17.419  -0.185  0.00  0.00     0.116 A 
ATOM     27  F1  NON d   1      22.160 -17.726   0.153  0.00  0.00    -0.206 F 
ATOM     28  C13 NON d   1      24.463 -18.199   0.274  0.00  0.00     0.043 A 
ATOM     29  C14 NON d   1      25.782 -17.879  -0.086  0.00  0.00     0.017 A 
ENDBRANCH   5  23
BRANCH   1  30
ATOM     30  C2  NON d   1      29.209 -14.539  -4.329  0.00  0.00     0.031 C 
ATOM     31  C1  NON d   1      29.132 -13.005  -4.444  0.00  0.00     0.016 C 
ATOM     32  C3  NON d   1      29.347 -15.400  -5.598  0.00  0.00     0.016 C 
ENDBRANCH   1  30
BRANCH   3  33
ATOM     33  N2  NON d   1      30.804 -16.591   0.330  0.00  0.00    -0.109 N 
ATOM     34  C6  NON d   1      31.852 -17.645  -0.071  0.00  0.00     0.189 C 
BRANCH  33  35
ATOM     35  S1  NON d   1      31.378 -15.285   1.225  0.00  0.00     0.242 S 
ATOM     36  C7  NON d   1      32.936 -15.023   0.415  0.00  0.00     0.186 C 
ATOM     37  O1  NON d   1      30.552 -14.134   0.908  0.00  0.00    -0.205 OA
ATOM     38  O2  NON d   1      31.610 -15.654   2.605  0.00  0.00    -0.205 OA
ENDBRANCH  33  35
ENDBRANCH   3  33
TORSDOF 14
ENDMDL
MODEL 6
REMARK VINA RESULT:    -4.946      3.275      5.408
REMARK INTER + INTRA:         -15.755
REMARK INTER:                  -9.122
REMARK INTRA:                  -6.633
REMARK CONF_INDEPENDENT:        4.176
REMARK UNBOUND:                -6.633
REMARK  14 active torsions:
REMARK  status: ('A' for Active; 'I' for Inactive)
REMARK    1  A    between atoms: C2_2  and  C4_4 
REMARK    2  A    between atoms: C5_6  and  N2_7 
REMARK    3  A    between atoms: N2_7  and  S1_9 
REMARK    4  A    between atoms: C8_14  and  C9_15 
REMARK    5  A    between atoms: C15_22  and  C16_23 
REMARK    6  A    between atoms: C16_23  and  C17_24 
REMARK    7  A    between atoms: C18_25  and  C17_24 
REMARK    8  A    between atoms: C18_25  and  O3_26 
REMARK    9  A    between atoms: C18_25  and  C19_27 
REMARK   10  A    between atoms: C20_28  and  C19_27 
REMARK   11  A    between atoms: C20_28  and  O4_29 
REMARK   12  A    between atoms: C20_28  and  C21_30 
REMARK   13  A    between atoms: C21_30  and  C22_31 
REMARK       I    between atoms: C22_31  and  N4_33 
REMARK   14  A    between atoms: N4_33  and  O6_34 
ROOT
ATOM      1  C4  NON d   1      26.568 -15.896   0.219  0.00  0.00     0.069 C 
ATOM      2  N1  NON d   1      27.402 -15.739   1.380  0.00  0.00    -0.065 NA
ATOM      3  C5  NON d   1      28.037 -14.527   1.604  0.00  0.00     0.738 C 
ATOM      4  N3  NON d   1      27.866 -13.511   0.739  0.00  0.00    -0.060 NA
ATOM      5  C8  NON d   1      27.072 -13.683  -0.413  0.00  0.00     0.098 C 
ATOM      6  C15 NON d   1      26.280 -14.837  -0.663  0.00  0.00     0.020 C 
ENDROOT
BRANCH   6   7
ATOM      7  C16 NON d   1      25.610 -15.235  -1.960  0.00  0.00     0.014 C 
BRANCH   7   8
ATOM      8  C17 NON d   1      25.847 -15.782  -3.259  0.00  0.00     0.006 C 
BRANCH   8   9
ATOM      9  C18 NON d   1      26.329 -14.608  -4.606  0.00  0.00     0.143 C 
BRANCH   9  10
ATOM     10  O3  NON d   1      26.578 -15.574  -5.746  0.00  0.00    -0.392 OA
ATOM     11  H21 NON d   1      27.379 -15.258  -6.198  0.00  0.00     0.210 HD
ENDBRANCH   9  10
BRANCH   9  12
ATOM     12  C19 NON d   1      27.696 -13.909  -4.728  0.00  0.00     0.068 C 
BRANCH  12  13
ATOM     13  C20 NON d   1      28.974 -14.752  -4.401  0.00  0.00     0.129 C 
BRANCH  13  14
ATOM     14  O4  NON d   1      28.799 -16.080  -4.898  0.00  0.00    -0.395 OA
ATOM     15  H25 NON d   1      28.025 -16.479  -4.443  0.00  0.00     0.210 HD
ENDBRANCH  13  14
BRANCH  13  16
ATOM     16  C21 NON d   1      29.581 -14.745  -2.989  0.00  0.00     0.136 C 
BRANCH  16  17
ATOM     17  C22 NON d   1      29.212 -15.909  -2.088  0.00  0.00     0.243 C 
ATOM     18  O5  NON d   1      28.529 -16.855  -2.474  0.00  0.00    -0.271 OA
ATOM     19  N4  NON d   1      29.683 -15.740  -0.800  0.00  0.00    -0.237 N 
ATOM     20  H28 NON d   1      30.385 -15.054  -0.543  0.00  0.00     0.197 HD
BRANCH  19  21
ATOM     21  O6  NON d   1      29.456 -16.784   0.116  0.00  0.00    -0.287 OA
ATOM     22  H29 NON d   1      29.478 -16.328   0.979  0.00  0.00     0.244 HD
ENDBRANCH  19  21
ENDBRANCH  16  17
ENDBRANCH  13  16
ENDBRANCH  12  13
ENDBRANCH   9  12
ENDBRANCH   8   9
ENDBRANCH   7   8
ENDBRANCH   6   7
BRANCH   5  23
ATOM     23  C9  NON d   1      27.317 -12.596  -1.447  0.00  0.00    -0.006 A 
ATOM     24  C10 NON d   1      26.277 -12.194  -2.319  0.00  0.00     0.017 A 
ATOM     25  C11 NON d   1      26.406 -11.114  -3.206  0.00  0.00     0.043 A 
ATOM     26  C12 NON d   1      27.584 -10.387  -3.234  0.00  0.00     0.116 A 
ATOM     27  F1  NON d   1      27.701  -9.328  -4.045  0.00  0.00    -0.206 F 
ATOM     28  C13 NON d   1      28.643 -10.752  -2.424  0.00  0.00     0.043 A 
ATOM     29  C14 NON d   1      28.517 -11.859  -1.570  0.00  0.00     0.017 A 
ENDBRANCH   5  23
BRANCH   1  30
ATOM     30  C2  NON d   1      25.803 -17.313  -0.161  0.00  0.00     0.031 C 
ATOM     31  C1  NON d   1      24.286 -17.445  -0.391  0.00  0.00     0.016 C 
ATOM     32  C3  NON d   1      26.687 -18.574  -0.115  0.00  0.00     0.016 C 
ENDBRANCH   1  30
BRANCH   3  33
ATOM     33  N2  NON d   1      28.872 -14.201   2.898  0.00  0.00    -0.109 N 
ATOM     34  C6  NON d   1      28.261 -14.673   4.231  0.00  0.00     0.189 C 
BRANCH  33  35
ATOM     35  S1  NON d   1      30.538 -14.386   2.747  0.00  0.00     0.242 S 
ATOM     36  C7  NON d   1      31.059 -12.718   3.056  0.00  0.00     0.186 C 
ATOM     37  O1  NON d   1      30.999 -15.177   3.874  0.00  0.00    -0.205 OA
ATOM     38  O2  NON d   1      30.905 -14.762   1.398  0.00  0.00    -0.205 OA
ENDBRANCH  33  35
ENDBRANCH   3  33
TORSDOF 14
ENDMDL
MODEL 7
REMARK VINA RESULT:    -4.702      3.364      5.323
REMARK INTER + INTRA:         -15.476
REMARK INTER:                  -8.878
REMARK INTRA:                  -6.598
REMARK CONF_INDEPENDENT:        4.176
REMARK UNBOUND:                -6.598
REMARK  14 active torsions:
REMARK  status: ('A' for Active; 'I' for Inactive)
REMARK    1  A    between atoms: C2_2  and  C4_4 
REMARK    2  A    between atoms: C5_6  and  N2_7 
REMARK    3  A    between atoms: N2_7  and  S1_9 
REMARK    4  A    between atoms: C8_14  and  C9_15 
REMARK    5  A    between atoms: C15_22  and  C16_23 
REMARK    6  A    between atoms: C16_23  and  C17_24 
REMARK    7  A    between atoms: C18_25  and  C17_24 
REMARK    8  A    between atoms: C18_25  and  O3_26 
REMARK    9  A    between atoms: C18_25  and  C19_27 
REMARK   10  A    between atoms: C20_28  and  C19_27 
REMARK   11  A    between atoms: C20_28  and  O4_29 
REMARK   12  A    between atoms: C20_28  and  C21_30 
REMARK   13  A    between atoms: C21_30  and  C22_31 
REMARK       I    between atoms: C22_31  and  N4_33 
REMARK   14  A    between atoms: N4_33  and  O6_34 
ROOT
ATOM      1  C4  NON d   1      28.521 -15.513  -2.533  0.00  0.00     0.069 C 
ATOM      2  N1  NON d   1      27.778 -16.659  -2.081  0.00  0.00    -0.065 NA
ATOM      3  C5  NON d   1      26.842 -16.508  -1.071  0.00  0.00     0.738 C 
ATOM      4  N3  NON d   1      26.633 -15.296  -0.526  0.00  0.00    -0.060 NA
ATOM      5  C8  NON d   1      27.387 -14.184  -0.953  0.00  0.00     0.098 C 
ATOM      6  C15 NON d   1      28.273 -14.210  -2.065  0.00  0.00     0.020 C 
ENDROOT
BRANCH   6   7
ATOM      7  C16 NON d   1      29.309 -13.174  -2.444  0.00  0.00     0.014 C 
BRANCH   7   8
ATOM      8  C17 NON d   1      29.536 -12.009  -3.241  0.00  0.00     0.006 C 
BRANCH   8   9
ATOM      9  C18 NON d   1      28.051 -11.106  -3.878  0.00  0.00     0.143 C 
BRANCH   9  10
ATOM     10  O3  NON d   1      26.948 -11.795  -3.101  0.00  0.00    -0.392 OA
ATOM     11  H21 NON d   1      26.156 -11.241  -3.208  0.00  0.00     0.210 HD
ENDBRANCH   9  10
BRANCH   9  12
ATOM     12  C19 NON d   1      27.399 -11.330  -5.255  0.00  0.00     0.068 C 
BRANCH  12  13
ATOM     13  C20 NON d   1      26.400 -12.526  -5.399  0.00  0.00     0.129 C 
BRANCH  13  14
ATOM     14  O4  NON d   1      25.154 -12.171  -4.798  0.00  0.00    -0.395 OA
ATOM     15  H25 NON d   1      25.225 -11.250  -4.464  0.00  0.00     0.210 HD
ENDBRANCH  13  14
BRANCH  13  16
ATOM     16  C21 NON d   1      26.827 -13.956  -5.030  0.00  0.00     0.136 C 
BRANCH  16  17
ATOM     17  C22 NON d   1      25.802 -14.798  -4.293  0.00  0.00     0.243 C 
ATOM     18  O5  NON d   1      25.533 -15.951  -4.621  0.00  0.00    -0.271 OA
ATOM     19  N4  NON d   1      25.190 -14.097  -3.271  0.00  0.00    -0.237 N 
ATOM     20  H28 NON d   1      25.540 -13.220  -2.902  0.00  0.00     0.197 HD
BRANCH  19  21
ATOM     21  O6  NON d   1      24.261 -14.791  -2.474  0.00  0.00    -0.287 OA
ATOM     22  H29 NON d   1      24.548 -15.720  -2.562  0.00  0.00     0.244 HD
ENDBRANCH  19  21
ENDBRANCH  16  17
ENDBRANCH  13  16
ENDBRANCH  12  13
ENDBRANCH   9  12
ENDBRANCH   8   9
ENDBRANCH   7   8
ENDBRANCH   6   7
BRANCH   5  23
ATOM     23  C9  NON d   1      27.305 -13.023   0.025  0.00  0.00    -0.006 A 
ATOM     24  C10 NON d   1      27.582 -11.705  -0.408  0.00  0.00     0.017 A 
ATOM     25  C11 NON d   1      27.400 -10.583   0.416  0.00  0.00     0.043 A 
ATOM     26  C12 NON d   1      26.917 -10.747   1.703  0.00  0.00     0.116 A 
ATOM     27  F1  NON d   1      26.700  -9.679   2.481  0.00  0.00    -0.206 F 
ATOM     28  C13 NON d   1      26.657 -12.015   2.188  0.00  0.00     0.043 A 
ATOM     29  C14 NON d   1      26.880 -13.133   1.369  0.00  0.00     0.017 A 
ENDBRANCH   5  23
BRANCH   1  30
ATOM     30  C2  NON d   1      29.691 -15.596  -3.701  0.00  0.00     0.031 C 
ATOM     31  C1  NON d   1      31.173 -15.249  -3.468  0.00  0.00     0.016 C 
ATOM     32  C3  NON d   1      29.184 -15.892  -5.124  0.00  0.00     0.016 C 
ENDBRANCH   1  30
BRANCH   3  33
ATOM     33  N2  NON d   1      25.887 -17.660  -0.581  0.00  0.00    -0.109 N 
ATOM     34  C6  NON d   1      26.157 -18.203   0.834  0.00  0.00     0.189 C 
BRANCH  33  35
ATOM     35  S1  NON d   1      24.267 -17.482  -1.003  0.00  0.00     0.242 S 
ATOM     36  C7  NON d   1      23.540 -18.708   0.053  0.00  0.00     0.186 C 
ATOM     37  O1  NON d   1      23.819 -16.193  -0.506  0.00  0.00    -0.205 OA
ATOM     38  O2  NON d   1      24.041 -17.844  -2.386  0.00  0.00    -0.205 OA
ENDBRANCH  33  35
ENDBRANCH   3  33
TORSDOF 14
ENDMDL
MODEL 8
REMARK VINA RESULT:    -4.576      5.484      8.141
REMARK INTER + INTRA:         -15.459
REMARK INTER:                  -8.752
REMARK INTRA:                  -6.706
REMARK CONF_INDEPENDENT:        4.176
REMARK UNBOUND:                -6.706
REMARK  14 active torsions:
REMARK  status: ('A' for Active; 'I' for Inactive)
REMARK    1  A    between atoms: C2_2  and  C4_4 
REMARK    2  A    between atoms: C5_6  and  N2_7 
REMARK    3  A    between atoms: N2_7  and  S1_9 
REMARK    4  A    between atoms: C8_14  and  C9_15 
REMARK    5  A    between atoms: C15_22  and  C16_23 
REMARK    6  A    between atoms: C16_23  and  C17_24 
REMARK    7  A    between atoms: C18_25  and  C17_24 
REMARK    8  A    between atoms: C18_25  and  O3_26 
REMARK    9  A    between atoms: C18_25  and  C19_27 
REMARK   10  A    between atoms: C20_28  and  C19_27 
REMARK   11  A    between atoms: C20_28  and  O4_29 
REMARK   12  A    between atoms: C20_28  and  C21_30 
REMARK   13  A    between atoms: C21_30  and  C22_31 
REMARK       I    between atoms: C22_31  and  N4_33 
REMARK   14  A    between atoms: N4_33  and  O6_34 
ROOT
ATOM      1  C4  NON d   1      28.676 -11.628   6.737  0.00  0.00     0.069 C 
ATOM      2  N1  NON d   1      29.030 -10.234   6.752  0.00  0.00    -0.065 NA
ATOM      3  C5  NON d   1      28.722  -9.442   5.658  0.00  0.00     0.738 C 
ATOM      4  N3  NON d   1      28.094  -9.979   4.597  0.00  0.00    -0.060 NA
ATOM      5  C8  NON d   1      27.778 -11.353   4.578  0.00  0.00     0.098 C 
ATOM      6  C15 NON d   1      27.934 -12.216   5.696  0.00  0.00     0.020 C 
ENDROOT
BRANCH   6   7
ATOM      7  C16 NON d   1      27.878 -13.728   5.711  0.00  0.00     0.014 C 
BRANCH   7   8
ATOM      8  C17 NON d   1      28.479 -14.910   5.176  0.00  0.00     0.006 C 
BRANCH   8   9
ATOM      9  C18 NON d   1      30.050 -14.710   4.218  0.00  0.00     0.143 C 
BRANCH   9  10
ATOM     10  O3  NON d   1      30.633 -13.481   4.885  0.00  0.00    -0.392 OA
ATOM     11  H21 NON d   1      31.530 -13.727   5.168  0.00  0.00     0.210 HD
ENDBRANCH   9  10
BRANCH   9  12
ATOM     12  C19 NON d   1      30.153 -14.143   2.789  0.00  0.00     0.068 C 
BRANCH  12  13
ATOM     13  C20 NON d   1      31.481 -13.419   2.390  0.00  0.00     0.129 C 
BRANCH  13  14
ATOM     14  O4  NON d   1      32.540 -13.888   3.227  0.00  0.00    -0.395 OA
ATOM     15  H25 NON d   1      32.164 -14.527   3.871  0.00  0.00     0.210 HD
ENDBRANCH  13  14
BRANCH  13  16
ATOM     16  C21 NON d   1      31.523 -11.894   2.214  0.00  0.00     0.136 C 
BRANCH  16  17
ATOM     17  C22 NON d   1      31.267 -11.062   3.458  0.00  0.00     0.243 C 
ATOM     18  O5  NON d   1      30.534 -10.075   3.455  0.00  0.00    -0.271 OA
ATOM     19  N4  NON d   1      31.991 -11.514   4.545  0.00  0.00    -0.237 N 
ATOM     20  H28 NON d   1      32.446 -12.419   4.581  0.00  0.00     0.197 HD
BRANCH  19  21
ATOM     21  O6  NON d   1      31.791 -10.859   5.774  0.00  0.00    -0.287 OA
ATOM     22  H29 NON d   1      30.920 -10.434   5.658  0.00  0.00     0.244 HD
ENDBRANCH  19  21
ENDBRANCH  16  17
ENDBRANCH  13  16
ENDBRANCH  12  13
ENDBRANCH   9  12
ENDBRANCH   8   9
ENDBRANCH   7   8
ENDBRANCH   6   7
BRANCH   5  23
ATOM     23  C9  NON d   1      27.450 -11.847   3.178  0.00  0.00    -0.006 A 
ATOM     24  C10 NON d   1      27.642 -11.002   2.060  0.00  0.00     0.017 A 
ATOM     25  C11 NON d   1      27.476 -11.444   0.737  0.00  0.00     0.043 A 
ATOM     26  C12 NON d   1      27.126 -12.760   0.493  0.00  0.00     0.116 A 
ATOM     27  F1  NON d   1      27.008 -13.202  -0.765  0.00  0.00    -0.206 F 
ATOM     28  C13 NON d   1      26.897 -13.623   1.548  0.00  0.00     0.043 A 
ATOM     29  C14 NON d   1      27.027 -13.160   2.867  0.00  0.00     0.017 A 
ENDBRANCH   5  23
BRANCH   1  30
ATOM     30  C2  NON d   1      29.038 -12.667   7.973  0.00  0.00     0.031 C 
ATOM     31  C1  NON d   1      28.231 -12.774   9.281  0.00  0.00     0.016 C 
ATOM     32  C3  NON d   1      30.362 -13.439   7.821  0.00  0.00     0.016 C 
ENDBRANCH   1  30
BRANCH   3  33
ATOM     33  N2  NON d   1      28.950  -7.885   5.611  0.00  0.00    -0.109 N 
ATOM     34  C6  NON d   1      30.313  -7.419   5.067  0.00  0.00     0.189 C 
BRANCH  33  35
ATOM     35  S1  NON d   1      27.617  -6.975   5.131  0.00  0.00     0.242 S 
ATOM     36  C7  NON d   1      28.440  -5.523   4.528  0.00  0.00     0.186 C 
ATOM     37  O1  NON d   1      27.031  -7.626   3.973  0.00  0.00    -0.205 OA
ATOM     38  O2  NON d   1      26.786  -6.622   6.262  0.00  0.00    -0.205 OA
ENDBRANCH  33  35
ENDBRANCH   3  33
TORSDOF 14
ENDMDL
