MODEL 1
REMARK VINA RESULT:   -32.118      0.000      0.000
REMARK INTER + INTRA:         -36.268
REMARK INTER:                 -34.803
REMARK INTRA:                  -1.465
REMARK CONF_INDEPENDENT:        2.685
REMARK UNBOUND:                -1.465
REMARK  9 active torsions:
REMARK  status: ('A' for Active; 'I' for Inactive)
REMARK    1  A    between atoms: N1_1  and  C1_2 
REMARK    2  A    between atoms: C4_5  and  C5_6 
REMARK    3  A    between atoms: C10_12  and  N2_13 
REMARK       I    between atoms: N2_13  and  C11_14 
REMARK    4  A    between atoms: C11_14  and  C12_16 
REMARK    5  A    between atoms: C15_19  and  C16_20 
REMARK    6  A    between atoms: C16_20  and  N3_21 
REMARK       I    between atoms: N3_21  and  C17_22 
REMARK    7  A    between atoms: C17_22  and  O3_24 
REMARK    8  A    between atoms: O3_24  and  C18_25 
REMARK    9  A    between atoms: C18_25  and  C19_26 
ROOT
ATOM      1  C12 NON d   1      27.777 -13.435   1.938  0.00  0.00     0.032 A 
ATOM      2  C13 NON d   1      27.921 -14.827   1.867  0.00  0.00     0.017 A 
ATOM      3  C14 NON d   1      27.438 -15.546   0.775  0.00  0.00     0.010 A 
ATOM      4  C15 NON d   1      26.795 -14.903  -0.295  0.00  0.00    -0.040 A 
ATOM      5  C24 NON d   1      26.670 -13.509  -0.241  0.00  0.00     0.010 A 
ATOM      6  C25 NON d   1      27.156 -12.779   0.866  0.00  0.00     0.017 A 
ENDROOT
BRANCH   1   7
ATOM      7  C11 NON d   1      28.274 -12.781   3.194  0.00  0.00     0.256 C 
ATOM      8  N2  NON d   1      28.097 -13.446   4.393  0.00  0.00    -0.321 N 
ATOM      9  H9  NON d   1      27.626 -14.340   4.415  0.00  0.00     0.169 HD
ATOM     10  O1  NON d   1      28.827 -11.690   3.075  0.00  0.00    -0.267 OA
BRANCH   8  11
ATOM     11  C10 NON d   1      28.447 -12.977   5.688  0.00  0.00     0.057 A 
ATOM     12  C9  NON d   1      29.076 -13.765   6.666  0.00  0.00     0.044 A 
ATOM     13  C4  NON d   1      29.452 -13.246   7.921  0.00  0.00    -0.017 A 
ATOM     14  C3  NON d   1      29.174 -11.892   8.164  0.00  0.00     0.014 A 
ATOM     15  C2  NON d   1      28.536 -11.094   7.206  0.00  0.00     0.026 A 
ATOM     16  C1  NON d   1      28.165 -11.628   5.972  0.00  0.00     0.033 A 
BRANCH  13  17
ATOM     17  C5  NON d   1      30.120 -14.074   8.963  0.00  0.00     0.015 A 
ATOM     18  C6  NON d   1      31.451 -14.459   9.057  0.00  0.00     0.020 A 
ATOM     19  C7  NON d   1      31.735 -15.262  10.203  0.00  0.00     0.008 A 
ATOM     20  C8  NON d   1      30.615 -15.474  10.968  0.00  0.00     0.050 A 
ATOM     21  S1  NON d   1      29.241 -14.717  10.304  0.00  0.00    -0.101 SA
ENDBRANCH  13  17
BRANCH  16  22
ATOM     22  N1  NON d   1      27.442 -10.838   5.044  0.00  0.00    -0.301 NA
ATOM     23  H1  NON d   1      28.036 -10.502   4.289  0.00  0.00     0.124 HD
ATOM     24  H2  NON d   1      27.030 -10.042   5.528  0.00  0.00     0.124 HD
ENDBRANCH  16  22
ENDBRANCH   8  11
ENDBRANCH   1   7
BRANCH   4  25
ATOM     25  C16 NON d   1      26.258 -15.804  -1.381  0.00  0.00     0.163 C 
BRANCH  25  26
ATOM     26  N3  NON d   1      24.875 -16.205  -1.319  0.00  0.00    -0.333 N 
ATOM     27  C17 NON d   1      24.558 -17.238  -0.475  0.00  0.00     0.361 C 
ATOM     28  O2  NON d   1      25.379 -17.955   0.080  0.00  0.00    -0.239 OA
ATOM     29  H14 NON d   1      24.133 -15.545  -1.490  0.00  0.00     0.165 HD
BRANCH  27  30
ATOM     30  O3  NON d   1      23.214 -17.325  -0.299  0.00  0.00    -0.299 OA
BRANCH  30  31
ATOM     31  C18 NON d   1      22.851 -18.507   0.429  0.00  0.00     0.220 C 
BRANCH  31  32
ATOM     32  C19 NON d   1      21.427 -18.941   0.200  0.00  0.00    -0.016 A 
ATOM     33  C20 NON d   1      20.672 -19.421   1.279  0.00  0.00     0.012 A 
ATOM     34  C21 NON d   1      19.363 -19.846   1.080  0.00  0.00     0.020 A 
ATOM     35  C22 NON d   1      18.842 -19.778  -0.201  0.00  0.00     0.116 A 
ATOM     36  N4  NON d   1      19.533 -19.321  -1.268  0.00  0.00    -0.272 NA
ATOM     37  C23 NON d   1      20.807 -18.917  -1.042  0.00  0.00     0.125 A 
ENDBRANCH  31  32
ENDBRANCH  30  31
ENDBRANCH  27  30
ENDBRANCH  25  26
ENDBRANCH   4  25
TORSDOF 9
ENDMDL
MODEL 2
REMARK VINA RESULT:   -31.622      8.087     11.384
REMARK INTER + INTRA:         -35.955
REMARK INTER:                 -34.307
REMARK INTRA:                  -1.648
REMARK CONF_INDEPENDENT:        2.685
REMARK UNBOUND:                -1.648
REMARK  9 active torsions:
REMARK  status: ('A' for Active; 'I' for Inactive)
REMARK    1  A    between atoms: N1_1  and  C1_2 
REMARK    2  A    between atoms: C4_5  and  C5_6 
REMARK    3  A    between atoms: C10_12  and  N2_13 
REMARK       I    between atoms: N2_13  and  C11_14 
REMARK    4  A    between atoms: C11_14  and  C12_16 
REMARK    5  A    between atoms: C15_19  and  C16_20 
REMARK    6  A    between atoms: C16_20  and  N3_21 
REMARK       I    between atoms: N3_21  and  C17_22 
REMARK    7  A    between atoms: C17_22  and  O3_24 
REMARK    8  A    between atoms: O3_24  and  C18_25 
REMARK    9  A    between atoms: C18_25  and  C19_26 
ROOT
ATOM      1  C12 NON d   1      26.115 -12.250  -4.769  0.00  0.00     0.032 A 
ATOM      2  C13 NON d   1      25.543 -12.310  -3.492  0.00  0.00     0.017 A 
ATOM      3  C14 NON d   1      25.483 -13.510  -2.784  0.00  0.00     0.010 A 
ATOM      4  C15 NON d   1      25.997 -14.699  -3.323  0.00  0.00    -0.040 A 
ATOM      5  C24 NON d   1      26.593 -14.642  -4.590  0.00  0.00     0.010 A 
ATOM      6  C25 NON d   1      26.651 -13.427  -5.309  0.00  0.00     0.017 A 
ENDROOT
BRANCH   1   7
ATOM      7  C11 NON d   1      26.058 -10.919  -5.460  0.00  0.00     0.256 C 
ATOM      8  N2  NON d   1      25.148  -9.983  -5.004  0.00  0.00    -0.321 N 
ATOM      9  H9  NON d   1      24.528 -10.207  -4.238  0.00  0.00     0.169 HD
ATOM     10  O1  NON d   1      26.843 -10.736  -6.387  0.00  0.00    -0.267 OA
BRANCH   8  11
ATOM     11  C10 NON d   1      24.905  -8.693  -5.550  0.00  0.00     0.057 A 
ATOM     12  C9  NON d   1      23.665  -8.279  -6.065  0.00  0.00     0.044 A 
ATOM     13  C4  NON d   1      23.453  -6.973  -6.551  0.00  0.00    -0.017 A 
ATOM     14  C3  NON d   1      24.540  -6.086  -6.501  0.00  0.00     0.014 A 
ATOM     15  C2  NON d   1      25.787  -6.485  -6.003  0.00  0.00     0.026 A 
ATOM     16  C1  NON d   1      25.979  -7.785  -5.532  0.00  0.00     0.033 A 
BRANCH  13  17
ATOM     17  C5  NON d   1      22.143  -6.525  -7.097  0.00  0.00     0.015 A 
ATOM     18  C6  NON d   1      21.028  -6.047  -6.420  0.00  0.00     0.020 A 
ATOM     19  C7  NON d   1      19.939  -5.710  -7.280  0.00  0.00     0.008 A 
ATOM     20  C8  NON d   1      20.241  -5.934  -8.600  0.00  0.00     0.050 A 
ATOM     21  S1  NON d   1      21.819  -6.547  -8.794  0.00  0.00    -0.101 SA
ENDBRANCH  13  17
BRANCH  16  22
ATOM     22  N1  NON d   1      27.265  -8.206  -5.112  0.00  0.00    -0.301 NA
ATOM     23  H1  NON d   1      27.730  -8.768  -5.822  0.00  0.00     0.124 HD
ATOM     24  H2  NON d   1      27.178  -8.751  -4.255  0.00  0.00     0.124 HD
ENDBRANCH  16  22
ENDBRANCH   8  11
ENDBRANCH   1   7
BRANCH   4  25
ATOM     25  C16 NON d   1      25.807 -15.941  -2.485  0.00  0.00     0.163 C 
BRANCH  25  26
ATOM     26  N3  NON d   1      24.756 -15.949  -1.500  0.00  0.00    -0.333 N 
ATOM     27  C17 NON d   1      23.993 -17.085  -1.405  0.00  0.00     0.361 C 
ATOM     28  O2  NON d   1      24.019 -18.005  -2.211  0.00  0.00    -0.239 OA
ATOM     29  H14 NON d   1      24.832 -15.409  -0.652  0.00  0.00     0.165 HD
BRANCH  27  30
ATOM     30  O3  NON d   1      23.243 -17.072  -0.272  0.00  0.00    -0.299 OA
BRANCH  30  31
ATOM     31  C18 NON d   1      23.022 -18.398   0.230  0.00  0.00     0.220 C 
BRANCH  31  32
ATOM     32  C19 NON d   1      21.598 -18.865   0.088  0.00  0.00    -0.016 A 
ATOM     33  C20 NON d   1      20.908 -19.328   1.217  0.00  0.00     0.012 A 
ATOM     34  C21 NON d   1      19.600 -19.783   1.098  0.00  0.00     0.020 A 
ATOM     35  C22 NON d   1      19.013 -19.763  -0.156  0.00  0.00     0.116 A 
ATOM     36  N4  NON d   1      19.640 -19.325  -1.270  0.00  0.00    -0.272 NA
ATOM     37  C23 NON d   1      20.915 -18.890  -1.121  0.00  0.00     0.125 A 
ENDBRANCH  31  32
ENDBRANCH  30  31
ENDBRANCH  27  30
ENDBRANCH  25  26
ENDBRANCH   4  25
TORSDOF 9
ENDMDL
MODEL 3
REMARK VINA RESULT:   -31.546      1.890      3.097
REMARK INTER + INTRA:         -35.776
REMARK INTER:                 -34.230
REMARK INTRA:                  -1.546
REMARK CONF_INDEPENDENT:        2.685
REMARK UNBOUND:                -1.546
REMARK  9 active torsions:
REMARK  status: ('A' for Active; 'I' for Inactive)
REMARK    1  A    between atoms: N1_1  and  C1_2 
REMARK    2  A    between atoms: C4_5  and  C5_6 
REMARK    3  A    between atoms: C10_12  and  N2_13 
REMARK       I    between atoms: N2_13  and  C11_14 
REMARK    4  A    between atoms: C11_14  and  C12_16 
REMARK    5  A    between atoms: C15_19  and  C16_20 
REMARK    6  A    between atoms: C16_20  and  N3_21 
REMARK       I    between atoms: N3_21  and  C17_22 
REMARK    7  A    between atoms: C17_22  and  O3_24 
REMARK    8  A    between atoms: O3_24  and  C18_25 
REMARK    9  A    between atoms: C18_25  and  C19_26 
ROOT
ATOM      1  C12 NON d   1      27.395 -13.624   1.200  0.00  0.00     0.032 A 
ATOM      2  C13 NON d   1      27.831 -14.954   1.131  0.00  0.00     0.017 A 
ATOM      3  C14 NON d   1      27.547 -15.750   0.022  0.00  0.00     0.010 A 
ATOM      4  C15 NON d   1      26.818 -15.247  -1.067  0.00  0.00    -0.040 A 
ATOM      5  C24 NON d   1      26.400 -13.911  -1.015  0.00  0.00     0.010 A 
ATOM      6  C25 NON d   1      26.685 -13.104   0.109  0.00  0.00     0.017 A 
ENDROOT
BRANCH   1   7
ATOM      7  C11 NON d   1      27.701 -12.891   2.473  0.00  0.00     0.256 C 
ATOM      8  N2  NON d   1      28.232 -13.607   3.530  0.00  0.00    -0.321 N 
ATOM      9  H9  NON d   1      28.387 -14.602   3.444  0.00  0.00     0.169 HD
ATOM     10  O1  NON d   1      27.472 -11.684   2.491  0.00  0.00    -0.267 OA
BRANCH   8  11
ATOM     11  C10 NON d   1      28.540 -13.112   4.826  0.00  0.00     0.057 A 
ATOM     12  C9  NON d   1      28.756 -11.755   5.119  0.00  0.00     0.044 A 
ATOM     13  C4  NON d   1      29.010 -11.301   6.429  0.00  0.00    -0.017 A 
ATOM     14  C3  NON d   1      29.039 -12.266   7.447  0.00  0.00     0.014 A 
ATOM     15  C2  NON d   1      28.840 -13.625   7.172  0.00  0.00     0.026 A 
ATOM     16  C1  NON d   1      28.596 -14.056   5.868  0.00  0.00     0.033 A 
BRANCH  13  17
ATOM     17  C5  NON d   1      29.238  -9.865   6.748  0.00  0.00     0.015 A 
ATOM     18  C6  NON d   1      28.880  -8.737   6.021  0.00  0.00     0.020 A 
ATOM     19  C7  NON d   1      29.266  -7.510   6.642  0.00  0.00     0.008 A 
ATOM     20  C8  NON d   1      29.912  -7.722   7.835  0.00  0.00     0.050 A 
ATOM     21  S1  NON d   1      30.051  -9.381   8.194  0.00  0.00    -0.101 SA
ENDBRANCH  13  17
BRANCH  16  22
ATOM     22  N1  NON d   1      28.483 -15.440   5.586  0.00  0.00    -0.301 NA
ATOM     23  H1  NON d   1      28.172 -15.968   6.398  0.00  0.00     0.124 HD
ATOM     24  H2  NON d   1      29.387 -15.797   5.279  0.00  0.00     0.124 HD
ENDBRANCH  16  22
ENDBRANCH   8  11
ENDBRANCH   1   7
BRANCH   4  25
ATOM     25  C16 NON d   1      26.519 -16.231  -2.172  0.00  0.00     0.163 C 
BRANCH  25  26
ATOM     26  N3  NON d   1      25.219 -16.850  -2.207  0.00  0.00    -0.333 N 
ATOM     27  C17 NON d   1      24.805 -17.508  -1.078  0.00  0.00     0.361 C 
ATOM     28  O2  NON d   1      25.526 -17.764  -0.123  0.00  0.00    -0.239 OA
ATOM     29  H14 NON d   1      24.480 -16.479  -2.784  0.00  0.00     0.165 HD
BRANCH  27  30
ATOM     30  O3  NON d   1      23.478 -17.793  -1.141  0.00  0.00    -0.299 OA
BRANCH  30  31
ATOM     31  C18 NON d   1      23.014 -18.419   0.064  0.00  0.00     0.220 C 
BRANCH  31  32
ATOM     32  C19 NON d   1      21.581 -18.875  -0.009  0.00  0.00    -0.016 A 
ATOM     33  C20 NON d   1      20.942 -19.326   1.154  0.00  0.00     0.012 A 
ATOM     34  C21 NON d   1      19.626 -19.771   1.099  0.00  0.00     0.020 A 
ATOM     35  C22 NON d   1      18.980 -19.752  -0.125  0.00  0.00     0.116 A 
ATOM     36  N4  NON d   1      19.558 -19.325  -1.270  0.00  0.00    -0.272 NA
ATOM     37  C23 NON d   1      20.842 -18.900  -1.184  0.00  0.00     0.125 A 
ENDBRANCH  31  32
ENDBRANCH  30  31
ENDBRANCH  27  30
ENDBRANCH  25  26
ENDBRANCH   4  25
TORSDOF 9
ENDMDL
MODEL 4
REMARK VINA RESULT:   -31.533      1.512      1.872
REMARK INTER + INTRA:         -36.230
REMARK INTER:                 -34.218
REMARK INTRA:                  -2.012
REMARK CONF_INDEPENDENT:        2.685
REMARK UNBOUND:                -2.012
REMARK  9 active torsions:
REMARK  status: ('A' for Active; 'I' for Inactive)
REMARK    1  A    between atoms: N1_1  and  C1_2 
REMARK    2  A    between atoms: C4_5  and  C5_6 
REMARK    3  A    between atoms: C10_12  and  N2_13 
REMARK       I    between atoms: N2_13  and  C11_14 
REMARK    4  A    between atoms: C11_14  and  C12_16 
REMARK    5  A    between atoms: C15_19  and  C16_20 
REMARK    6  A    between atoms: C16_20  and  N3_21 
REMARK       I    between atoms: N3_21  and  C17_22 
REMARK    7  A    between atoms: C17_22  and  O3_24 
REMARK    8  A    between atoms: O3_24  and  C18_25 
REMARK    9  A    between atoms: C18_25  and  C19_26 
ROOT
ATOM      1  C12 NON d   1      28.332 -14.383   1.423  0.00  0.00     0.032 A 
ATOM      2  C13 NON d   1      27.112 -13.990   0.856  0.00  0.00     0.017 A 
ATOM      3  C14 NON d   1      26.591 -14.647  -0.258  0.00  0.00     0.010 A 
ATOM      4  C15 NON d   1      27.265 -15.727  -0.849  0.00  0.00    -0.040 A 
ATOM      5  C24 NON d   1      28.474 -16.140  -0.272  0.00  0.00     0.010 A 
ATOM      6  C25 NON d   1      29.004 -15.473   0.855  0.00  0.00     0.017 A 
ENDROOT
BRANCH   1   7
ATOM      7  C11 NON d   1      28.824 -13.556   2.574  0.00  0.00     0.256 C 
ATOM      8  N2  NON d   1      29.167 -14.203   3.747  0.00  0.00    -0.321 N 
ATOM      9  H9  NON d   1      29.065 -15.206   3.823  0.00  0.00     0.169 HD
ATOM     10  O1  NON d   1      28.909 -12.343   2.395  0.00  0.00    -0.267 OA
BRANCH   8  11
ATOM     11  C10 NON d   1      29.602 -13.601   4.959  0.00  0.00     0.057 A 
ATOM     12  C9  NON d   1      29.070 -13.904   6.223  0.00  0.00     0.044 A 
ATOM     13  C4  NON d   1      29.567 -13.320   7.406  0.00  0.00    -0.017 A 
ATOM     14  C3  NON d   1      30.628 -12.410   7.275  0.00  0.00     0.014 A 
ATOM     15  C2  NON d   1      31.162 -12.086   6.022  0.00  0.00     0.026 A 
ATOM     16  C1  NON d   1      30.653 -12.670   4.861  0.00  0.00     0.033 A 
BRANCH  13  17
ATOM     17  C5  NON d   1      29.010 -13.637   8.750  0.00  0.00     0.015 A 
ATOM     18  C6  NON d   1      29.122 -14.805   9.492  0.00  0.00     0.020 A 
ATOM     19  C7  NON d   1      28.451 -14.749  10.751  0.00  0.00     0.008 A 
ATOM     20  C8  NON d   1      27.839 -13.536  10.951  0.00  0.00     0.050 A 
ATOM     21  S1  NON d   1      28.071 -12.485   9.631  0.00  0.00    -0.101 SA
ENDBRANCH  13  17
BRANCH  16  22
ATOM     22  N1  NON d   1      31.139 -12.271   3.592  0.00  0.00    -0.301 NA
ATOM     23  H1  NON d   1      30.717 -11.397   3.282  0.00  0.00     0.124 HD
ATOM     24  H2  NON d   1      30.940 -13.001   2.909  0.00  0.00     0.124 HD
ENDBRANCH  16  22
ENDBRANCH   8  11
ENDBRANCH   1   7
BRANCH   4  25
ATOM     25  C16 NON d   1      26.628 -16.304  -2.090  0.00  0.00     0.163 C 
BRANCH  25  26
ATOM     26  N3  NON d   1      25.213 -16.572  -2.075  0.00  0.00    -0.333 N 
ATOM     27  C17 NON d   1      24.763 -17.522  -1.195  0.00  0.00     0.361 C 
ATOM     28  O2  NON d   1      25.487 -18.280  -0.564  0.00  0.00    -0.239 OA
ATOM     29  H14 NON d   1      24.545 -15.856  -2.316  0.00  0.00     0.165 HD
BRANCH  27  30
ATOM     30  O3  NON d   1      23.410 -17.474  -1.080  0.00  0.00    -0.299 OA
BRANCH  30  31
ATOM     31  C18 NON d   1      22.960 -18.084   0.138  0.00  0.00     0.220 C 
BRANCH  31  32
ATOM     32  C19 NON d   1      21.596 -18.711   0.030  0.00  0.00    -0.016 A 
ATOM     33  C20 NON d   1      21.024 -19.317   1.156  0.00  0.00     0.012 A 
ATOM     34  C21 NON d   1      19.774 -19.919   1.067  0.00  0.00     0.020 A 
ATOM     35  C22 NON d   1      19.125 -19.898  -0.156  0.00  0.00     0.116 A 
ATOM     36  N4  NON d   1      19.638 -19.324  -1.266  0.00  0.00    -0.272 NA
ATOM     37  C23 NON d   1      20.859 -18.747  -1.147  0.00  0.00     0.125 A 
ENDBRANCH  31  32
ENDBRANCH  30  31
ENDBRANCH  27  30
ENDBRANCH  25  26
ENDBRANCH   4  25
TORSDOF 9
ENDMDL
MODEL 5
REMARK VINA RESULT:   -30.624      2.551      3.267
REMARK INTER + INTRA:         -34.725
REMARK INTER:                 -33.309
REMARK INTRA:                  -1.416
REMARK CONF_INDEPENDENT:        2.685
REMARK UNBOUND:                -1.416
REMARK  9 active torsions:
REMARK  status: ('A' for Active; 'I' for Inactive)
REMARK    1  A    between atoms: N1_1  and  C1_2 
REMARK    2  A    between atoms: C4_5  and  C5_6 
REMARK    3  A    between atoms: C10_12  and  N2_13 
REMARK       I    between atoms: N2_13  and  C11_14 
REMARK    4  A    between atoms: C11_14  and  C12_16 
REMARK    5  A    between atoms: C15_19  and  C16_20 
REMARK    6  A    between atoms: C16_20  and  N3_21 
REMARK       I    between atoms: N3_21  and  C17_22 
REMARK    7  A    between atoms: C17_22  and  O3_24 
REMARK    8  A    between atoms: O3_24  and  C18_25 
REMARK    9  A    between atoms: C18_25  and  C19_26 
ROOT
ATOM      1  C12 NON d   1      28.451 -14.459   1.137  0.00  0.00     0.032 A 
ATOM      2  C13 NON d   1      27.224 -13.980   0.658  0.00  0.00     0.017 A 
ATOM      3  C14 NON d   1      26.561 -14.618  -0.388  0.00  0.00     0.010 A 
ATOM      4  C15 NON d   1      27.093 -15.766  -0.996  0.00  0.00    -0.040 A 
ATOM      5  C24 NON d   1      28.308 -16.264  -0.506  0.00  0.00     0.010 A 
ATOM      6  C25 NON d   1      28.983 -15.616   0.552  0.00  0.00     0.017 A 
ENDROOT
BRANCH   1   7
ATOM      7  C11 NON d   1      29.103 -13.647   2.218  0.00  0.00     0.256 C 
ATOM      8  N2  NON d   1      29.324 -14.246   3.444  0.00  0.00    -0.321 N 
ATOM      9  H9  NON d   1      29.032 -15.201   3.605  0.00  0.00     0.169 HD
ATOM     10  O1  NON d   1      29.418 -12.493   1.937  0.00  0.00    -0.267 OA
BRANCH   8  11
ATOM     11  C10 NON d   1      29.878 -13.638   4.604  0.00  0.00     0.057 A 
ATOM     12  C9  NON d   1      30.829 -12.605   4.572  0.00  0.00     0.044 A 
ATOM     13  C4  NON d   1      31.314 -11.995   5.746  0.00  0.00    -0.017 A 
ATOM     14  C3  NON d   1      30.806 -12.461   6.968  0.00  0.00     0.014 A 
ATOM     15  C2  NON d   1      29.867 -13.499   7.020  0.00  0.00     0.026 A 
ATOM     16  C1  NON d   1      29.403 -14.095   5.847  0.00  0.00     0.033 A 
BRANCH  13  17
ATOM     17  C5  NON d   1      32.321 -10.899   5.721  0.00  0.00     0.015 A 
ATOM     18  C6  NON d   1      33.545 -10.846   5.066  0.00  0.00     0.020 A 
ATOM     19  C7  NON d   1      34.252  -9.623   5.271  0.00  0.00     0.008 A 
ATOM     20  C8  NON d   1      33.554  -8.759   6.078  0.00  0.00     0.050 A 
ATOM     21  S1  NON d   1      32.068  -9.423   6.583  0.00  0.00    -0.101 SA
ENDBRANCH  13  17
BRANCH  16  22
ATOM     22  N1  NON d   1      28.521 -15.202   5.912  0.00  0.00    -0.301 NA
ATOM     23  H1  NON d   1      28.691 -15.775   6.736  0.00  0.00     0.124 HD
ATOM     24  H2  NON d   1      28.634 -15.773   5.076  0.00  0.00     0.124 HD
ENDBRANCH  16  22
ENDBRANCH   8  11
ENDBRANCH   1   7
BRANCH   4  25
ATOM     25  C16 NON d   1      26.310 -16.319  -2.163  0.00  0.00     0.163 C 
BRANCH  25  26
ATOM     26  N3  NON d   1      24.931 -16.680  -1.955  0.00  0.00    -0.333 N 
ATOM     27  C17 NON d   1      24.611 -17.275  -0.763  0.00  0.00     0.361 C 
ATOM     28  O2  NON d   1      25.430 -17.685   0.049  0.00  0.00    -0.239 OA
ATOM     29  H14 NON d   1      24.185 -16.162  -2.393  0.00  0.00     0.165 HD
BRANCH  27  30
ATOM     30  O3  NON d   1      23.265 -17.303  -0.581  0.00  0.00    -0.299 OA
BRANCH  30  31
ATOM     31  C18 NON d   1      22.880 -18.307   0.369  0.00  0.00     0.220 C 
BRANCH  31  32
ATOM     32  C19 NON d   1      21.479 -18.821   0.167  0.00  0.00    -0.016 A 
ATOM     33  C20 NON d   1      20.766 -19.327   1.262  0.00  0.00     0.012 A 
ATOM     34  C21 NON d   1      19.480 -19.826   1.087  0.00  0.00     0.020 A 
ATOM     35  C22 NON d   1      18.938 -19.804  -0.187  0.00  0.00     0.116 A 
ATOM     36  N4  NON d   1      19.589 -19.324  -1.269  0.00  0.00    -0.272 NA
ATOM     37  C23 NON d   1      20.842 -18.847  -1.067  0.00  0.00     0.125 A 
ENDBRANCH  31  32
ENDBRANCH  30  31
ENDBRANCH  27  30
ENDBRANCH  25  26
ENDBRANCH   4  25
TORSDOF 9
ENDMDL
MODEL 6
REMARK VINA RESULT:   -30.580      7.312     11.351
REMARK INTER + INTRA:         -34.811
REMARK INTER:                 -33.264
REMARK INTRA:                  -1.547
REMARK CONF_INDEPENDENT:        2.685
REMARK UNBOUND:                -1.547
REMARK  9 active torsions:
REMARK  status: ('A' for Active; 'I' for Inactive)
REMARK    1  A    between atoms: N1_1  and  C1_2 
REMARK    2  A    between atoms: C4_5  and  C5_6 
REMARK    3  A    between atoms: C10_12  and  N2_13 
REMARK       I    between atoms: N2_13  and  C11_14 
REMARK    4  A    between atoms: C11_14  and  C12_16 
REMARK    5  A    between atoms: C15_19  and  C16_20 
REMARK    6  A    between atoms: C16_20  and  N3_21 
REMARK       I    between atoms: N3_21  and  C17_22 
REMARK    7  A    between atoms: C17_22  and  O3_24 
REMARK    8  A    between atoms: O3_24  and  C18_25 
REMARK    9  A    between atoms: C18_25  and  C19_26 
ROOT
ATOM      1  C12 NON d   1      28.786 -15.779  -4.191  0.00  0.00     0.032 A 
ATOM      2  C13 NON d   1      29.117 -16.289  -2.928  0.00  0.00     0.017 A 
ATOM      3  C14 NON d   1      28.193 -16.282  -1.884  0.00  0.00     0.010 A 
ATOM      4  C15 NON d   1      26.898 -15.770  -2.060  0.00  0.00    -0.040 A 
ATOM      5  C24 NON d   1      26.553 -15.281  -3.327  0.00  0.00     0.010 A 
ATOM      6  C25 NON d   1      27.489 -15.284  -4.385  0.00  0.00     0.017 A 
ENDROOT
BRANCH   1   7
ATOM      7  C11 NON d   1      29.884 -15.776  -5.213  0.00  0.00     0.256 C 
ATOM      8  N2  NON d   1      30.017 -16.879  -6.036  0.00  0.00    -0.321 N 
ATOM      9  H9  NON d   1      29.398 -17.671  -5.930  0.00  0.00     0.169 HD
ATOM     10  O1  NON d   1      30.596 -14.775  -5.266  0.00  0.00    -0.267 OA
BRANCH   8  11
ATOM     11  C10 NON d   1      31.017 -17.091  -7.025  0.00  0.00     0.057 A 
ATOM     12  C9  NON d   1      31.792 -16.066  -7.591  0.00  0.00     0.044 A 
ATOM     13  C4  NON d   1      32.809 -16.326  -8.532  0.00  0.00    -0.017 A 
ATOM     14  C3  NON d   1      33.023 -17.666  -8.890  0.00  0.00     0.014 A 
ATOM     15  C2  NON d   1      32.250 -18.700  -8.346  0.00  0.00     0.026 A 
ATOM     16  C1  NON d   1      31.244 -18.422  -7.420  0.00  0.00     0.033 A 
BRANCH  13  17
ATOM     17  C5  NON d   1      33.636 -15.246  -9.135  0.00  0.00     0.015 A 
ATOM     18  C6  NON d   1      33.369 -13.887  -9.233  0.00  0.00     0.020 A 
ATOM     19  C7  NON d   1      34.402 -13.146  -9.884  0.00  0.00     0.008 A 
ATOM     20  C8  NON d   1      35.444 -13.953 -10.270  0.00  0.00     0.050 A 
ATOM     21  S1  NON d   1      35.171 -15.583  -9.855  0.00  0.00    -0.101 SA
ENDBRANCH  13  17
BRANCH  16  22
ATOM     22  N1  NON d   1      30.410 -19.463  -6.942  0.00  0.00    -0.301 NA
ATOM     23  H1  NON d   1      30.913 -20.344  -6.860  0.00  0.00     0.124 HD
ATOM     24  H2  NON d   1      29.622 -19.582  -7.577  0.00  0.00     0.124 HD
ENDBRANCH  16  22
ENDBRANCH   8  11
ENDBRANCH   1   7
BRANCH   4  25
ATOM     25  C16 NON d   1      26.020 -15.758  -0.832  0.00  0.00     0.163 C 
BRANCH  25  26
ATOM     26  N3  NON d   1      25.358 -16.979  -0.449  0.00  0.00    -0.333 N 
ATOM     27  C17 NON d   1      24.041 -17.117  -0.804  0.00  0.00     0.361 C 
ATOM     28  O2  NON d   1      23.346 -16.215  -1.251  0.00  0.00    -0.239 OA
ATOM     29  H14 NON d   1      25.871 -17.841  -0.351  0.00  0.00     0.165 HD
BRANCH  27  30
ATOM     30  O3  NON d   1      23.626 -18.400  -0.640  0.00  0.00    -0.299 OA
BRANCH  30  31
ATOM     31  C18 NON d   1      22.826 -18.551   0.542  0.00  0.00     0.220 C 
BRANCH  31  32
ATOM     32  C19 NON d   1      21.414 -18.992   0.260  0.00  0.00    -0.016 A 
ATOM     33  C20 NON d   1      20.642 -19.533   1.296  0.00  0.00     0.012 A 
ATOM     34  C21 NON d   1      19.344 -19.965   1.048  0.00  0.00     0.020 A 
ATOM     35  C22 NON d   1      18.850 -19.842  -0.240  0.00  0.00     0.116 A 
ATOM     36  N4  NON d   1      19.559 -19.325  -1.268  0.00  0.00    -0.272 NA
ATOM     37  C23 NON d   1      20.822 -18.915  -0.994  0.00  0.00     0.125 A 
ENDBRANCH  31  32
ENDBRANCH  30  31
ENDBRANCH  27  30
ENDBRANCH  25  26
ENDBRANCH   4  25
TORSDOF 9
ENDMDL
MODEL 7
REMARK VINA RESULT:   -30.513      7.149     10.565
REMARK INTER + INTRA:         -34.431
REMARK INTER:                 -33.198
REMARK INTRA:                  -1.233
REMARK CONF_INDEPENDENT:        2.685
REMARK UNBOUND:                -1.233
REMARK  9 active torsions:
REMARK  status: ('A' for Active; 'I' for Inactive)
REMARK    1  A    between atoms: N1_1  and  C1_2 
REMARK    2  A    between atoms: C4_5  and  C5_6 
REMARK    3  A    between atoms: C10_12  and  N2_13 
REMARK       I    between atoms: N2_13  and  C11_14 
REMARK    4  A    between atoms: C11_14  and  C12_16 
REMARK    5  A    between atoms: C15_19  and  C16_20 
REMARK    6  A    between atoms: C16_20  and  N3_21 
REMARK       I    between atoms: N3_21  and  C17_22 
REMARK    7  A    between atoms: C17_22  and  O3_24 
REMARK    8  A    between atoms: O3_24  and  C18_25 
REMARK    9  A    between atoms: C18_25  and  C19_26 
ROOT
ATOM      1  C12 NON d   1      26.205 -12.774  -3.177  0.00  0.00     0.032 A 
ATOM      2  C13 NON d   1      26.587 -12.870  -1.832  0.00  0.00     0.017 A 
ATOM      3  C14 NON d   1      26.720 -14.109  -1.208  0.00  0.00     0.010 A 
ATOM      4  C15 NON d   1      26.479 -15.305  -1.903  0.00  0.00    -0.040 A 
ATOM      5  C24 NON d   1      26.120 -15.216  -3.254  0.00  0.00     0.010 A 
ATOM      6  C25 NON d   1      25.983 -13.961  -3.887  0.00  0.00     0.017 A 
ENDROOT
BRANCH   1   7
ATOM      7  C11 NON d   1      26.027 -11.385  -3.717  0.00  0.00     0.256 C 
ATOM      8  N2  NON d   1      26.132 -11.195  -5.083  0.00  0.00    -0.321 N 
ATOM      9  H9  NON d   1      26.344 -11.975  -5.691  0.00  0.00     0.169 HD
ATOM     10  O1  NON d   1      25.781 -10.496  -2.905  0.00  0.00    -0.267 OA
BRANCH   8  11
ATOM     11  C10 NON d   1      26.048  -9.960  -5.782  0.00  0.00     0.057 A 
ATOM     12  C9  NON d   1      24.985  -9.052  -5.647  0.00  0.00     0.044 A 
ATOM     13  C4  NON d   1      24.966  -7.814  -6.321  0.00  0.00    -0.017 A 
ATOM     14  C3  NON d   1      26.063  -7.515  -7.144  0.00  0.00     0.014 A 
ATOM     15  C2  NON d   1      27.126  -8.414  -7.300  0.00  0.00     0.026 A 
ATOM     16  C1  NON d   1      27.124  -9.638  -6.630  0.00  0.00     0.033 A 
BRANCH  13  17
ATOM     17  C5  NON d   1      23.845  -6.844  -6.183  0.00  0.00     0.015 A 
ATOM     18  C6  NON d   1      22.720  -6.914  -5.372  0.00  0.00     0.020 A 
ATOM     19  C7  NON d   1      21.849  -5.791  -5.504  0.00  0.00     0.008 A 
ATOM     20  C8  NON d   1      22.325  -4.879  -6.414  0.00  0.00     0.050 A 
ATOM     21  S1  NON d   1      23.801  -5.380  -7.100  0.00  0.00    -0.101 SA
ENDBRANCH  13  17
BRANCH  16  22
ATOM     22  N1  NON d   1      28.158 -10.578  -6.862  0.00  0.00    -0.301 NA
ATOM     23  H1  NON d   1      28.025 -11.429  -6.320  0.00  0.00     0.124 HD
ATOM     24  H2  NON d   1      29.055 -10.159  -6.618  0.00  0.00     0.124 HD
ENDBRANCH  16  22
ENDBRANCH   8  11
ENDBRANCH   1   7
BRANCH   4  25
ATOM     25  C16 NON d   1      26.590 -16.574  -1.093  0.00  0.00     0.163 C 
BRANCH  25  26
ATOM     26  N3  NON d   1      25.511 -17.526  -1.157  0.00  0.00    -0.333 N 
ATOM     27  C17 NON d   1      25.210 -18.213  -0.009  0.00  0.00     0.361 C 
ATOM     28  O2  NON d   1      25.902 -18.212   1.000  0.00  0.00    -0.239 OA
ATOM     29  H14 NON d   1      24.743 -17.401  -1.798  0.00  0.00     0.165 HD
BRANCH  27  30
ATOM     30  O3  NON d   1      24.018 -18.853  -0.126  0.00  0.00    -0.299 OA
BRANCH  30  31
ATOM     31  C18 NON d   1      22.929 -17.926  -0.244  0.00  0.00     0.220 C 
BRANCH  31  32
ATOM     32  C19 NON d   1      21.574 -18.580  -0.189  0.00  0.00    -0.016 A 
ATOM     33  C20 NON d   1      21.109 -19.101   1.026  0.00  0.00     0.012 A 
ATOM     34  C21 NON d   1      19.869 -19.727   1.089  0.00  0.00     0.020 A 
ATOM     35  C22 NON d   1      19.122 -19.814  -0.074  0.00  0.00     0.116 A 
ATOM     36  N4  NON d   1      19.530 -19.325  -1.266  0.00  0.00    -0.272 NA
ATOM     37  C23 NON d   1      20.745 -18.723  -1.294  0.00  0.00     0.125 A 
ENDBRANCH  31  32
ENDBRANCH  30  31
ENDBRANCH  27  30
ENDBRANCH  25  26
ENDBRANCH   4  25
TORSDOF 9
ENDMDL
MODEL 8
REMARK VINA RESULT:   -30.448      7.832     11.452
REMARK INTER + INTRA:         -34.765
REMARK INTER:                 -33.133
REMARK INTRA:                  -1.632
REMARK CONF_INDEPENDENT:        2.685
REMARK UNBOUND:                -1.632
REMARK  9 active torsions:
REMARK  status: ('A' for Active; 'I' for Inactive)
REMARK    1  A    between atoms: N1_1  and  C1_2 
REMARK    2  A    between atoms: C4_5  and  C5_6 
REMARK    3  A    between atoms: C10_12  and  N2_13 
REMARK       I    between atoms: N2_13  and  C11_14 
REMARK    4  A    between atoms: C11_14  and  C12_16 
REMARK    5  A    between atoms: C15_19  and  C16_20 
REMARK    6  A    between atoms: C16_20  and  N3_21 
REMARK       I    between atoms: N3_21  and  C17_22 
REMARK    7  A    between atoms: C17_22  and  O3_24 
REMARK    8  A    between atoms: O3_24  and  C18_25 
REMARK    9  A    between atoms: C18_25  and  C19_26 
ROOT
ATOM      1  C12 NON d   1      28.012 -15.210  -4.930  0.00  0.00     0.032 A 
ATOM      2  C13 NON d   1      26.640 -15.343  -5.180  0.00  0.00     0.017 A 
ATOM      3  C14 NON d   1      25.710 -15.287  -4.142  0.00  0.00     0.010 A 
ATOM      4  C15 NON d   1      26.114 -15.090  -2.812  0.00  0.00    -0.040 A 
ATOM      5  C24 NON d   1      27.483 -14.932  -2.559  0.00  0.00     0.010 A 
ATOM      6  C25 NON d   1      28.426 -14.992  -3.609  0.00  0.00     0.017 A 
ENDROOT
BRANCH   1   7
ATOM      7  C11 NON d   1      28.919 -15.359  -6.117  0.00  0.00     0.256 C 
ATOM      8  N2  NON d   1      29.963 -16.261  -6.034  0.00  0.00    -0.321 N 
ATOM      9  H9  NON d   1      30.116 -16.787  -5.184  0.00  0.00     0.169 HD
ATOM     10  O1  NON d   1      28.665 -14.673  -7.104  0.00  0.00    -0.267 OA
BRANCH   8  11
ATOM     11  C10 NON d   1      30.956 -16.510  -7.021  0.00  0.00     0.057 A 
ATOM     12  C9  NON d   1      31.206 -17.773  -7.582  0.00  0.00     0.044 A 
ATOM     13  C4  NON d   1      32.166 -17.967  -8.596  0.00  0.00    -0.017 A 
ATOM     14  C3  NON d   1      32.874 -16.837  -9.033  0.00  0.00     0.014 A 
ATOM     15  C2  NON d   1      32.647 -15.572  -8.476  0.00  0.00     0.026 A 
ATOM     16  C1  NON d   1      31.697 -15.401  -7.468  0.00  0.00     0.033 A 
BRANCH  13  17
ATOM     17  C5  NON d   1      32.437 -19.302  -9.197  0.00  0.00     0.015 A 
ATOM     18  C6  NON d   1      31.555 -20.185  -9.806  0.00  0.00     0.020 A 
ATOM     19  C7  NON d   1      32.176 -21.384 -10.270  0.00  0.00     0.008 A 
ATOM     20  C8  NON d   1      33.524 -21.396 -10.010  0.00  0.00     0.050 A 
ATOM     21  S1  NON d   1      34.028 -19.978  -9.212  0.00  0.00    -0.101 SA
ENDBRANCH  13  17
BRANCH  16  22
ATOM     22  N1  NON d   1      31.536 -14.137  -6.850  0.00  0.00    -0.301 NA
ATOM     23  H1  NON d   1      30.630 -13.723  -7.063  0.00  0.00     0.124 HD
ATOM     24  H2  NON d   1      32.275 -13.510  -7.166  0.00  0.00     0.124 HD
ENDBRANCH  16  22
ENDBRANCH   8  11
ENDBRANCH   1   7
BRANCH   4  25
ATOM     25  C16 NON d   1      25.015 -15.118  -1.778  0.00  0.00     0.163 C 
BRANCH  25  26
ATOM     26  N3  NON d   1      24.174 -16.286  -1.700  0.00  0.00    -0.333 N 
ATOM     27  C17 NON d   1      24.749 -17.444  -1.245  0.00  0.00     0.361 C 
ATOM     28  O2  NON d   1      25.951 -17.602  -1.080  0.00  0.00    -0.239 OA
ATOM     29  H14 NON d   1      23.183 -16.204  -1.537  0.00  0.00     0.165 HD
BRANCH  27  30
ATOM     30  O3  NON d   1      23.802 -18.374  -0.954  0.00  0.00    -0.299 OA
BRANCH  30  31
ATOM     31  C18 NON d   1      22.829 -17.867  -0.029  0.00  0.00     0.220 C 
BRANCH  31  32
ATOM     32  C19 NON d   1      21.515 -18.600  -0.077  0.00  0.00    -0.016 A 
ATOM     33  C20 NON d   1      21.071 -19.293   1.057  0.00  0.00     0.012 A 
ATOM     34  C21 NON d   1      19.870 -19.993   1.023  0.00  0.00     0.020 A 
ATOM     35  C22 NON d   1      19.141 -19.980  -0.154  0.00  0.00     0.116 A 
ATOM     36  N4  NON d   1      19.530 -19.324  -1.270  0.00  0.00    -0.272 NA
ATOM     37  C23 NON d   1      20.706 -18.653  -1.205  0.00  0.00     0.125 A 
ENDBRANCH  31  32
ENDBRANCH  30  31
ENDBRANCH  27  30
ENDBRANCH  25  26
ENDBRANCH   4  25
TORSDOF 9
ENDMDL
MODEL 9
REMARK VINA RESULT:   -30.024      7.038     10.848
REMARK INTER + INTRA:         -34.534
REMARK INTER:                 -32.709
REMARK INTRA:                  -1.825
REMARK CONF_INDEPENDENT:        2.685
REMARK UNBOUND:                -1.825
REMARK  9 active torsions:
REMARK  status: ('A' for Active; 'I' for Inactive)
REMARK    1  A    between atoms: N1_1  and  C1_2 
REMARK    2  A    between atoms: C4_5  and  C5_6 
REMARK    3  A    between atoms: C10_12  and  N2_13 
REMARK       I    between atoms: N2_13  and  C11_14 
REMARK    4  A    between atoms: C11_14  and  C12_16 
REMARK    5  A    between atoms: C15_19  and  C16_20 
REMARK    6  A    between atoms: C16_20  and  N3_21 
REMARK       I    between atoms: N3_21  and  C17_22 
REMARK    7  A    between atoms: C17_22  and  O3_24 
REMARK    8  A    between atoms: O3_24  and  C18_25 
REMARK    9  A    between atoms: C18_25  and  C19_26 
ROOT
ATOM      1  C12 NON d   1      27.932 -15.252  -4.074  0.00  0.00     0.032 A 
ATOM      2  C13 NON d   1      28.824 -16.080  -3.378  0.00  0.00     0.017 A 
ATOM      3  C14 NON d   1      28.537 -16.524  -2.088  0.00  0.00     0.010 A 
ATOM      4  C15 NON d   1      27.345 -16.162  -1.441  0.00  0.00    -0.040 A 
ATOM      5  C24 NON d   1      26.439 -15.354  -2.140  0.00  0.00     0.010 A 
ATOM      6  C25 NON d   1      26.729 -14.901  -3.447  0.00  0.00     0.017 A 
ENDROOT
BRANCH   1   7
ATOM      7  C11 NON d   1      28.382 -14.782  -5.426  0.00  0.00     0.256 C 
ATOM      8  N2  NON d   1      29.672 -14.301  -5.557  0.00  0.00    -0.321 N 
ATOM      9  H9  NON d   1      30.281 -14.252  -4.751  0.00  0.00     0.169 HD
ATOM     10  O1  NON d   1      27.573 -14.870  -6.346  0.00  0.00    -0.267 OA
BRANCH   8  11
ATOM     11  C10 NON d   1      30.268 -13.766  -6.731  0.00  0.00     0.057 A 
ATOM     12  C9  NON d   1      31.536 -14.135  -7.207  0.00  0.00     0.044 A 
ATOM     13  C4  NON d   1      32.069 -13.617  -8.405  0.00  0.00    -0.017 A 
ATOM     14  C3  NON d   1      31.275 -12.705  -9.117  0.00  0.00     0.014 A 
ATOM     15  C2  NON d   1      30.013 -12.314  -8.651  0.00  0.00     0.026 A 
ATOM     16  C1  NON d   1      29.506 -12.833  -7.459  0.00  0.00     0.033 A 
BRANCH  13  17
ATOM     17  C5  NON d   1      33.411 -14.005  -8.918  0.00  0.00     0.015 A 
ATOM     18  C6  NON d   1      34.546 -13.221  -9.087  0.00  0.00     0.020 A 
ATOM     19  C7  NON d   1      35.664 -13.939  -9.609  0.00  0.00     0.008 A 
ATOM     20  C8  NON d   1      35.366 -15.261  -9.829  0.00  0.00     0.050 A 
ATOM     21  S1  NON d   1      33.754 -15.625  -9.413  0.00  0.00    -0.101 SA
ENDBRANCH  13  17
BRANCH  16  22
ATOM     22  N1  NON d   1      28.269 -12.367  -6.951  0.00  0.00    -0.301 NA
ATOM     23  H1  NON d   1      28.238 -12.405  -5.934  0.00  0.00     0.124 HD
ATOM     24  H2  NON d   1      27.512 -12.935  -7.331  0.00  0.00     0.124 HD
ENDBRANCH  16  22
ENDBRANCH   8  11
ENDBRANCH   1   7
BRANCH   4  25
ATOM     25  C16 NON d   1      27.189 -16.652  -0.021  0.00  0.00     0.163 C 
BRANCH  25  26
ATOM     26  N3  NON d   1      26.266 -17.727   0.237  0.00  0.00    -0.333 N 
ATOM     27  C17 NON d   1      24.939 -17.490  -0.014  0.00  0.00     0.361 C 
ATOM     28  O2  NON d   1      24.467 -16.388  -0.259  0.00  0.00    -0.239 OA
ATOM     29  H14 NON d   1      26.554 -18.691   0.160  0.00  0.00     0.165 HD
BRANCH  27  30
ATOM     30  O3  NON d   1      24.229 -18.648  -0.003  0.00  0.00    -0.299 OA
BRANCH  30  31
ATOM     31  C18 NON d   1      23.321 -18.722  -1.111  0.00  0.00     0.220 C 
BRANCH  31  32
ATOM     32  C19 NON d   1      21.891 -18.960  -0.703  0.00  0.00    -0.016 A 
ATOM     33  C20 NON d   1      21.574 -19.081   0.657  0.00  0.00     0.012 A 
ATOM     34  C21 NON d   1      20.263 -19.323   1.050  0.00  0.00     0.020 A 
ATOM     35  C22 NON d   1      19.297 -19.436   0.065  0.00  0.00     0.116 A 
ATOM     36  N4  NON d   1      19.557 -19.325  -1.257  0.00  0.00    -0.272 NA
ATOM     37  C23 NON d   1      20.846 -19.092  -1.607  0.00  0.00     0.125 A 
ENDBRANCH  31  32
ENDBRANCH  30  31
ENDBRANCH  27  30
ENDBRANCH  25  26
ENDBRANCH   4  25
TORSDOF 9
ENDMDL
