MODEL 1
REMARK VINA RESULT:    -8.027      0.000      0.000
REMARK INTER + INTRA:         -10.713
REMARK INTER:                  -9.518
REMARK INTRA:                  -1.195
REMARK CONF_INDEPENDENT:        1.492
REMARK UNBOUND:                -1.195
REMARK  5 active torsions:
REMARK  status: ('A' for Active; 'I' for Inactive)
REMARK    1  A    between atoms: C1_2  and  C2_3 
REMARK       I    between atoms: C1_2  and  N1_18 
REMARK    2  A    between atoms: C3_4  and  C4_5 
REMARK    3  A    between atoms: C7_8  and  C8_9 
REMARK    4  A    between atoms: C11_12  and  O2_13 
REMARK    5  A    between atoms: N1_18  and  O3_19 
ROOT
ATOM      1  C4  NON d   1      24.598 -17.282  -1.095  0.00  0.00     0.008 C 
ATOM      2  C5  NON d   1      23.387 -16.424  -0.706  0.00  0.00     0.009 C 
ATOM      3  C6  NON d   1      22.086 -17.225  -0.716  0.00  0.00     0.010 C 
ATOM      4  C7  NON d   1      22.135 -18.475   0.188  0.00  0.00     0.018 C 
ATOM      5  C14 NON d   1      23.379 -19.316  -0.178  0.00  0.00     0.010 C 
ATOM      6  C15 NON d   1      24.674 -18.501  -0.167  0.00  0.00     0.009 C 
ENDROOT
BRANCH   1   7
ATOM      7  C3  NON d   1      25.839 -16.408  -1.138  0.00  0.00    -0.017 C 
ATOM      8  C2  NON d   1      26.878 -16.441  -0.285  0.00  0.00     0.072 C 
BRANCH   8   9
ATOM      9  C1  NON d   1      28.072 -15.556  -0.323  0.00  0.00     0.264 C 
ATOM     10  O1  NON d   1      28.031 -14.478  -0.911  0.00  0.00    -0.266 OA
ATOM     11  N1  NON d   1      29.178 -15.976   0.362  0.00  0.00    -0.234 N 
ATOM     12  H18 NON d   1      29.187 -16.737   1.029  0.00  0.00     0.197 HD
BRANCH  11  13
ATOM     13  O3  NON d   1      30.252 -15.060   0.434  0.00  0.00    -0.287 OA
ATOM     14  H19 NON d   1      30.016 -14.406  -0.260  0.00  0.00     0.244 HD
ENDBRANCH  11  13
ENDBRANCH   8   9
ENDBRANCH   1   7
BRANCH   4  15
ATOM     15  C8  NON d   1      20.843 -19.303   0.179  0.00  0.00    -0.054 A 
ATOM     16  C9  NON d   1      19.969 -19.327  -0.923  0.00  0.00     0.010 A 
ATOM     17  C10 NON d   1      18.781 -20.065  -0.895  0.00  0.00     0.037 A 
ATOM     18  C11 NON d   1      18.443 -20.788   0.237  0.00  0.00     0.065 A 
ATOM     19  C12 NON d   1      19.269 -20.774   1.351  0.00  0.00     0.037 A 
ATOM     20  C13 NON d   1      20.452 -20.026   1.324  0.00  0.00     0.010 A 
BRANCH  18  21
ATOM     21  O2  NON d   1      17.281 -21.496   0.218  0.00  0.00    -0.361 OA
ATOM     22  H11 NON d   1      17.451 -22.381   0.579  0.00  0.00     0.217 HD
ENDBRANCH  18  21
ENDBRANCH   4  15
TORSDOF 5
ENDMDL
MODEL 2
REMARK VINA RESULT:    -7.808      3.039      8.697
REMARK INTER + INTRA:         -10.461
REMARK INTER:                  -9.299
REMARK INTRA:                  -1.161
REMARK CONF_INDEPENDENT:        1.492
REMARK UNBOUND:                -1.161
REMARK  5 active torsions:
REMARK  status: ('A' for Active; 'I' for Inactive)
REMARK    1  A    between atoms: C1_2  and  C2_3 
REMARK       I    between atoms: C1_2  and  N1_18 
REMARK    2  A    between atoms: C3_4  and  C4_5 
REMARK    3  A    between atoms: C7_8  and  C8_9 
REMARK    4  A    between atoms: C11_12  and  O2_13 
REMARK    5  A    between atoms: N1_18  and  O3_19 
ROOT
ATOM      1  C4  NON d   1      22.161 -18.701  -0.036  0.00  0.00     0.008 C 
ATOM      2  C5  NON d   1      21.780 -17.486  -0.893  0.00  0.00     0.009 C 
ATOM      3  C6  NON d   1      22.872 -16.418  -0.895  0.00  0.00     0.010 C 
ATOM      4  C7  NON d   1      24.246 -16.952  -1.352  0.00  0.00     0.018 C 
ATOM      5  C14 NON d   1      24.607 -18.201  -0.515  0.00  0.00     0.010 C 
ATOM      6  C15 NON d   1      23.504 -19.261  -0.520  0.00  0.00     0.009 C 
ENDROOT
BRANCH   1   7
ATOM      7  C3  NON d   1      21.004 -19.685  -0.019  0.00  0.00    -0.017 C 
ATOM      8  C2  NON d   1      19.967 -19.694   0.835  0.00  0.00     0.072 C 
BRANCH   8   9
ATOM      9  C1  NON d   1      18.857 -20.684   0.857  0.00  0.00     0.264 C 
ATOM     10  O1  NON d   1      18.669 -21.387   1.847  0.00  0.00    -0.266 OA
ATOM     11  N1  NON d   1      18.045 -20.732  -0.242  0.00  0.00    -0.234 N 
ATOM     12  H18 NON d   1      18.029 -20.035  -0.975  0.00  0.00     0.197 HD
BRANCH  11  13
ATOM     13  O3  NON d   1      16.915 -21.575  -0.145  0.00  0.00    -0.287 OA
ATOM     14  H19 NON d   1      17.224 -22.268   0.479  0.00  0.00     0.244 HD
ENDBRANCH  11  13
ENDBRANCH   8   9
ENDBRANCH   1   7
BRANCH   4  15
ATOM     15  C8  NON d   1      25.361 -15.898  -1.345  0.00  0.00    -0.054 A 
ATOM     16  C9  NON d   1      26.249 -15.746  -0.265  0.00  0.00     0.010 A 
ATOM     17  C10 NON d   1      27.237 -14.757  -0.268  0.00  0.00     0.037 A 
ATOM     18  C11 NON d   1      27.353 -13.899  -1.349  0.00  0.00     0.065 A 
ATOM     19  C12 NON d   1      26.484 -14.004  -2.425  0.00  0.00     0.037 A 
ATOM     20  C13 NON d   1      25.488 -14.988  -2.413  0.00  0.00     0.010 A 
BRANCH  18  21
ATOM     21  O2  NON d   1      28.333 -12.954  -1.312  0.00  0.00    -0.361 OA
ATOM     22  H11 NON d   1      29.157 -13.374  -1.017  0.00  0.00     0.217 HD
ENDBRANCH  18  21
ENDBRANCH   4  15
TORSDOF 5
ENDMDL
MODEL 3
REMARK VINA RESULT:    -7.751      2.889      8.766
REMARK INTER + INTRA:         -10.413
REMARK INTER:                  -9.242
REMARK INTRA:                  -1.171
REMARK CONF_INDEPENDENT:        1.492
REMARK UNBOUND:                -1.171
REMARK  5 active torsions:
REMARK  status: ('A' for Active; 'I' for Inactive)
REMARK    1  A    between atoms: C1_2  and  C2_3 
REMARK       I    between atoms: C1_2  and  N1_18 
REMARK    2  A    between atoms: C3_4  and  C4_5 
REMARK    3  A    between atoms: C7_8  and  C8_9 
REMARK    4  A    between atoms: C11_12  and  O2_13 
REMARK    5  A    between atoms: N1_18  and  O3_19 
ROOT
ATOM      1  C4  NON d   1      23.156 -17.720  -0.245  0.00  0.00     0.008 C 
ATOM      2  C5  NON d   1      23.625 -16.647  -1.238  0.00  0.00     0.009 C 
ATOM      3  C6  NON d   1      24.968 -16.041  -0.839  0.00  0.00     0.010 C 
ATOM      4  C7  NON d   1      26.083 -17.094  -0.663  0.00  0.00     0.018 C 
ATOM      5  C14 NON d   1      25.592 -18.194   0.305  0.00  0.00     0.010 C 
ATOM      6  C15 NON d   1      24.244 -18.791  -0.105  0.00  0.00     0.009 C 
ENDROOT
BRANCH   1   7
ATOM      7  C3  NON d   1      21.785 -18.223  -0.661  0.00  0.00    -0.017 C 
ATOM      8  C2  NON d   1      21.106 -19.250  -0.122  0.00  0.00     0.072 C 
BRANCH   8   9
ATOM      9  C1  NON d   1      19.776 -19.750  -0.562  0.00  0.00     0.264 C 
ATOM     10  O1  NON d   1      19.451 -19.700  -1.745  0.00  0.00    -0.266 OA
ATOM     11  N1  NON d   1      18.973 -20.302   0.397  0.00  0.00    -0.234 N 
ATOM     12  H18 NON d   1      19.279 -20.559   1.327  0.00  0.00     0.197 HD
BRANCH  11  13
ATOM     13  O3  NON d   1      17.776 -20.900  -0.062  0.00  0.00    -0.287 OA
ATOM     14  H19 NON d   1      17.606 -20.412  -0.897  0.00  0.00     0.244 HD
ENDBRANCH  11  13
ENDBRANCH   8   9
ENDBRANCH   1   7
BRANCH   4  15
ATOM     15  C8  NON d   1      27.439 -16.507  -0.246  0.00  0.00    -0.054 A 
ATOM     16  C9  NON d   1      28.661 -17.085  -0.632  0.00  0.00     0.010 A 
ATOM     17  C10 NON d   1      29.884 -16.550  -0.213  0.00  0.00     0.037 A 
ATOM     18  C11 NON d   1      29.905 -15.431   0.602  0.00  0.00     0.065 A 
ATOM     19  C12 NON d   1      28.720 -14.843   1.019  0.00  0.00     0.037 A 
ATOM     20  C13 NON d   1      27.498 -15.388   0.607  0.00  0.00     0.010 A 
BRANCH  18  21
ATOM     21  O2  NON d   1      31.118 -14.940   0.981  0.00  0.00    -0.361 OA
ATOM     22  H11 NON d   1      31.397 -15.396   1.791  0.00  0.00     0.217 HD
ENDBRANCH  18  21
ENDBRANCH   4  15
TORSDOF 5
ENDMDL
MODEL 4
REMARK VINA RESULT:    -7.660      2.903      8.686
REMARK INTER + INTRA:         -10.326
REMARK INTER:                  -9.152
REMARK INTRA:                  -1.174
REMARK CONF_INDEPENDENT:        1.492
REMARK UNBOUND:                -1.174
REMARK  5 active torsions:
REMARK  status: ('A' for Active; 'I' for Inactive)
REMARK    1  A    between atoms: C1_2  and  C2_3 
REMARK       I    between atoms: C1_2  and  N1_18 
REMARK    2  A    between atoms: C3_4  and  C4_5 
REMARK    3  A    between atoms: C7_8  and  C8_9 
REMARK    4  A    between atoms: C11_12  and  O2_13 
REMARK    5  A    between atoms: N1_18  and  O3_19 
ROOT
ATOM      1  C4  NON d   1      21.982 -18.420  -1.015  0.00  0.00     0.008 C 
ATOM      2  C5  NON d   1      22.981 -19.239  -0.185  0.00  0.00     0.009 C 
ATOM      3  C6  NON d   1      24.421 -18.776  -0.396  0.00  0.00     0.010 C 
ATOM      4  C7  NON d   1      24.627 -17.275  -0.103  0.00  0.00     0.018 C 
ATOM      5  C14 NON d   1      23.592 -16.456  -0.907  0.00  0.00     0.010 C 
ATOM      6  C15 NON d   1      22.154 -16.931  -0.689  0.00  0.00     0.009 C 
ENDROOT
BRANCH   1   7
ATOM      7  C3  NON d   1      20.585 -18.982  -0.815  0.00  0.00    -0.017 C 
ATOM      8  C2  NON d   1      20.237 -20.017  -0.032  0.00  0.00     0.072 C 
BRANCH   8   9
ATOM      9  C1  NON d   1      18.868 -20.575   0.128  0.00  0.00     0.264 C 
ATOM     10  O1  NON d   1      18.035 -20.449  -0.766  0.00  0.00    -0.266 OA
ATOM     11  N1  NON d   1      18.609 -21.264   1.280  0.00  0.00    -0.234 N 
ATOM     12  H18 NON d   1      19.315 -21.575   1.935  0.00  0.00     0.197 HD
BRANCH  11  13
ATOM     13  O3  NON d   1      17.352 -21.907   1.353  0.00  0.00    -0.287 OA
ATOM     14  H19 NON d   1      17.132 -22.042   0.405  0.00  0.00     0.244 HD
ENDBRANCH  11  13
ENDBRANCH   8   9
ENDBRANCH   1   7
BRANCH   4  15
ATOM     15  C8  NON d   1      26.064 -16.785  -0.324  0.00  0.00    -0.054 A 
ATOM     16  C9  NON d   1      27.186 -17.551   0.042  0.00  0.00     0.010 A 
ATOM     17  C10 NON d   1      28.487 -17.070  -0.141  0.00  0.00     0.037 A 
ATOM     18  C11 NON d   1      28.688 -15.814  -0.689  0.00  0.00     0.065 A 
ATOM     19  C12 NON d   1      27.607 -15.021  -1.045  0.00  0.00     0.037 A 
ATOM     20  C13 NON d   1      26.307 -15.502  -0.850  0.00  0.00     0.010 A 
BRANCH  18  21
ATOM     21  O2  NON d   1      29.971 -15.388  -0.854  0.00  0.00    -0.361 OA
ATOM     22  H11 NON d   1      30.553 -15.934  -0.300  0.00  0.00     0.217 HD
ENDBRANCH  18  21
ENDBRANCH   4  15
TORSDOF 5
ENDMDL
MODEL 5
REMARK VINA RESULT:    -7.585      1.935      2.435
REMARK INTER + INTRA:         -10.253
REMARK INTER:                  -9.076
REMARK INTRA:                  -1.177
REMARK CONF_INDEPENDENT:        1.492
REMARK UNBOUND:                -1.177
REMARK  5 active torsions:
REMARK  status: ('A' for Active; 'I' for Inactive)
REMARK    1  A    between atoms: C1_2  and  C2_3 
REMARK       I    between atoms: C1_2  and  N1_18 
REMARK    2  A    between atoms: C3_4  and  C4_5 
REMARK    3  A    between atoms: C7_8  and  C8_9 
REMARK    4  A    between atoms: C11_12  and  O2_13 
REMARK    5  A    between atoms: N1_18  and  O3_19 
ROOT
ATOM      1  C4  NON d   1      24.218 -17.491  -1.597  0.00  0.00     0.008 C 
ATOM      2  C5  NON d   1      23.055 -16.576  -1.187  0.00  0.00     0.009 C 
ATOM      3  C6  NON d   1      21.780 -17.363  -0.892  0.00  0.00     0.010 C 
ATOM      4  C7  NON d   1      21.973 -18.455   0.183  0.00  0.00     0.018 C 
ATOM      5  C14 NON d   1      23.171 -19.348  -0.213  0.00  0.00     0.010 C 
ATOM      6  C15 NON d   1      24.441 -18.547  -0.508  0.00  0.00     0.009 C 
ENDROOT
BRANCH   1   7
ATOM      7  C3  NON d   1      25.426 -16.640  -1.947  0.00  0.00    -0.017 C 
ATOM      8  C2  NON d   1      25.530 -15.769  -2.965  0.00  0.00     0.072 C 
BRANCH   8   9
ATOM      9  C1  NON d   1      26.733 -14.965  -3.312  0.00  0.00     0.264 C 
ATOM     10  O1  NON d   1      27.313 -14.307  -2.453  0.00  0.00    -0.266 OA
ATOM     11  N1  NON d   1      27.176 -15.039  -4.604  0.00  0.00    -0.234 N 
ATOM     12  H18 NON d   1      26.867 -15.725  -5.280  0.00  0.00     0.197 HD
BRANCH  11  13
ATOM     13  O3  NON d   1      28.398 -14.384  -4.881  0.00  0.00    -0.287 OA
ATOM     14  H19 NON d   1      28.471 -13.752  -4.132  0.00  0.00     0.244 HD
ENDBRANCH  11  13
ENDBRANCH   8   9
ENDBRANCH   1   7
BRANCH   4  15
ATOM     15  C8  NON d   1      20.707 -19.268   0.482  0.00  0.00    -0.054 A 
ATOM     16  C9  NON d   1      20.366 -19.682   1.783  0.00  0.00     0.010 A 
ATOM     17  C10 NON d   1      19.224 -20.450   2.027  0.00  0.00     0.037 A 
ATOM     18  C11 NON d   1      18.403 -20.822   0.975  0.00  0.00     0.065 A 
ATOM     19  C12 NON d   1      18.715 -20.450  -0.324  0.00  0.00     0.037 A 
ATOM     20  C13 NON d   1      19.866 -19.690  -0.566  0.00  0.00     0.010 A 
BRANCH  18  21
ATOM     21  O2  NON d   1      17.298 -21.565   1.259  0.00  0.00    -0.361 OA
ATOM     22  H11 NON d   1      17.191 -22.240   0.569  0.00  0.00     0.217 HD
ENDBRANCH  18  21
ENDBRANCH   4  15
TORSDOF 5
ENDMDL
MODEL 6
REMARK VINA RESULT:    -7.188      2.800      8.905
REMARK INTER + INTRA:          -9.885
REMARK INTER:                  -8.679
REMARK INTRA:                  -1.205
REMARK CONF_INDEPENDENT:        1.492
REMARK UNBOUND:                -1.205
REMARK  5 active torsions:
REMARK  status: ('A' for Active; 'I' for Inactive)
REMARK    1  A    between atoms: C1_2  and  C2_3 
REMARK       I    between atoms: C1_2  and  N1_18 
REMARK    2  A    between atoms: C3_4  and  C4_5 
REMARK    3  A    between atoms: C7_8  and  C8_9 
REMARK    4  A    between atoms: C11_12  and  O2_13 
REMARK    5  A    between atoms: N1_18  and  O3_19 
ROOT
ATOM      1  C4  NON d   1      23.998 -18.064  -1.149  0.00  0.00     0.008 C 
ATOM      2  C5  NON d   1      24.720 -18.575   0.105  0.00  0.00     0.009 C 
ATOM      3  C6  NON d   1      26.175 -18.114   0.160  0.00  0.00     0.010 C 
ATOM      4  C7  NON d   1      26.332 -16.581   0.071  0.00  0.00     0.018 C 
ATOM      5  C14 NON d   1      25.569 -16.065  -1.170  0.00  0.00     0.010 C 
ATOM      6  C15 NON d   1      24.114 -16.536  -1.214  0.00  0.00     0.009 C 
ENDROOT
BRANCH   1   7
ATOM      7  C3  NON d   1      22.585 -18.619  -1.176  0.00  0.00    -0.017 C 
ATOM      8  C2  NON d   1      21.918 -19.175  -0.150  0.00  0.00     0.072 C 
BRANCH   8   9
ATOM      9  C1  NON d   1      20.545 -19.743  -0.200  0.00  0.00     0.264 C 
ATOM     10  O1  NON d   1      19.890 -19.700  -1.239  0.00  0.00    -0.266 OA
ATOM     11  N1  NON d   1      20.081 -20.348   0.935  0.00  0.00    -0.234 N 
ATOM     12  H18 NON d   1      20.655 -20.596   1.730  0.00  0.00     0.197 HD
BRANCH  11  13
ATOM     13  O3  NON d   1      18.834 -21.006   0.825  0.00  0.00    -0.287 OA
ATOM     14  H19 NON d   1      18.642 -20.931  -0.135  0.00  0.00     0.244 HD
ENDBRANCH  11  13
ENDBRANCH   8   9
ENDBRANCH   1   7
BRANCH   4  15
ATOM     15  C8  NON d   1      27.789 -16.099   0.108  0.00  0.00    -0.054 A 
ATOM     16  C9  NON d   1      28.207 -15.026   0.916  0.00  0.00     0.010 A 
ATOM     17  C10 NON d   1      29.534 -14.583   0.908  0.00  0.00     0.037 A 
ATOM     18  C11 NON d   1      30.464 -15.202   0.091  0.00  0.00     0.065 A 
ATOM     19  C12 NON d   1      30.086 -16.251  -0.734  0.00  0.00     0.037 A 
ATOM     20  C13 NON d   1      28.755 -16.685  -0.733  0.00  0.00     0.010 A 
BRANCH  18  21
ATOM     21  O2  NON d   1      31.746 -14.743   0.120  0.00  0.00    -0.361 OA
ATOM     22  H11 NON d   1      31.818 -14.070   0.817  0.00  0.00     0.217 HD
ENDBRANCH  18  21
ENDBRANCH   4  15
TORSDOF 5
ENDMDL
MODEL 7
REMARK VINA RESULT:    -5.412      3.650      9.692
REMARK INTER + INTRA:          -8.074
REMARK INTER:                  -6.904
REMARK INTRA:                  -1.170
REMARK CONF_INDEPENDENT:        1.492
REMARK UNBOUND:                -1.170
REMARK  5 active torsions:
REMARK  status: ('A' for Active; 'I' for Inactive)
REMARK    1  A    between atoms: C1_2  and  C2_3 
REMARK       I    between atoms: C1_2  and  N1_18 
REMARK    2  A    between atoms: C3_4  and  C4_5 
REMARK    3  A    between atoms: C7_8  and  C8_9 
REMARK    4  A    between atoms: C11_12  and  O2_13 
REMARK    5  A    between atoms: N1_18  and  O3_19 
ROOT
ATOM      1  C4  NON d   1      26.078 -16.839  -0.062  0.00  0.00     0.008 C 
ATOM      2  C5  NON d   1      26.153 -15.328   0.198  0.00  0.00     0.009 C 
ATOM      3  C6  NON d   1      27.423 -14.936   0.952  0.00  0.00     0.010 C 
ATOM      4  C7  NON d   1      28.716 -15.397   0.246  0.00  0.00     0.018 C 
ATOM      5  C14 NON d   1      28.619 -16.911  -0.052  0.00  0.00     0.010 C 
ATOM      6  C15 NON d   1      27.342 -17.289  -0.804  0.00  0.00     0.009 C 
ENDROOT
BRANCH   1   7
ATOM      7  C3  NON d   1      24.761 -17.165  -0.745  0.00  0.00    -0.017 C 
ATOM      8  C2  NON d   1      23.902 -18.144  -0.414  0.00  0.00     0.072 C 
BRANCH   8   9
ATOM      9  C1  NON d   1      22.631 -18.470  -1.113  0.00  0.00     0.264 C 
ATOM     10  O1  NON d   1      22.605 -19.324  -1.995  0.00  0.00    -0.266 OA
ATOM     11  N1  NON d   1      21.506 -17.814  -0.693  0.00  0.00    -0.234 N 
ATOM     12  H18 NON d   1      21.440 -17.273   0.159  0.00  0.00     0.197 HD
BRANCH  11  13
ATOM     13  O3  NON d   1      20.287 -18.238  -1.269  0.00  0.00    -0.287 OA
ATOM     14  H19 NON d   1      20.592 -18.791  -2.022  0.00  0.00     0.244 HD
ENDBRANCH  11  13
ENDBRANCH   8   9
ENDBRANCH   1   7
BRANCH   4  15
ATOM     15  C8  NON d   1      30.003 -15.027   0.996  0.00  0.00    -0.054 A 
ATOM     16  C9  NON d   1      30.011 -14.142   2.090  0.00  0.00     0.010 A 
ATOM     17  C10 NON d   1      31.201 -13.796   2.737  0.00  0.00     0.037 A 
ATOM     18  C11 NON d   1      32.405 -14.324   2.300  0.00  0.00     0.065 A 
ATOM     19  C12 NON d   1      32.440 -15.185   1.214  0.00  0.00     0.037 A 
ATOM     20  C13 NON d   1      31.248 -15.521   0.561  0.00  0.00     0.010 A 
BRANCH  18  21
ATOM     21  O2  NON d   1      33.538 -13.964   2.964  0.00  0.00    -0.361 OA
ATOM     22  H11 NON d   1      33.389 -14.076   3.917  0.00  0.00     0.217 HD
ENDBRANCH  18  21
ENDBRANCH   4  15
TORSDOF 5
ENDMDL
MODEL 8
REMARK VINA RESULT:    -5.131      5.506      7.261
REMARK INTER + INTRA:          -7.803
REMARK INTER:                  -6.622
REMARK INTRA:                  -1.180
REMARK CONF_INDEPENDENT:        1.492
REMARK UNBOUND:                -1.180
REMARK  5 active torsions:
REMARK  status: ('A' for Active; 'I' for Inactive)
REMARK    1  A    between atoms: C1_2  and  C2_3 
REMARK       I    between atoms: C1_2  and  N1_18 
REMARK    2  A    between atoms: C3_4  and  C4_5 
REMARK    3  A    between atoms: C7_8  and  C8_9 
REMARK    4  A    between atoms: C11_12  and  O2_13 
REMARK    5  A    between atoms: N1_18  and  O3_19 
ROOT
ATOM      1  C4  NON d   1      27.323 -13.292  -4.838  0.00  0.00     0.008 C 
ATOM      2  C5  NON d   1      26.740 -14.594  -5.403  0.00  0.00     0.009 C 
ATOM      3  C6  NON d   1      26.345 -15.575  -4.301  0.00  0.00     0.010 C 
ATOM      4  C7  NON d   1      25.356 -14.975  -3.279  0.00  0.00     0.018 C 
ATOM      5  C14 NON d   1      25.927 -13.642  -2.743  0.00  0.00     0.010 C 
ATOM      6  C15 NON d   1      26.321 -12.671  -3.857  0.00  0.00     0.009 C 
ENDROOT
BRANCH   1   7
ATOM      7  C3  NON d   1      27.762 -12.399  -5.986  0.00  0.00    -0.017 C 
ATOM      8  C2  NON d   1      28.759 -12.636  -6.854  0.00  0.00     0.072 C 
BRANCH   8   9
ATOM      9  C1  NON d   1      29.197 -11.736  -7.954  0.00  0.00     0.264 C 
ATOM     10  O1  NON d   1      29.510 -10.571  -7.721  0.00  0.00    -0.266 OA
ATOM     11  N1  NON d   1      29.277 -12.280  -9.207  0.00  0.00    -0.234 N 
ATOM     12  H18 NON d   1      29.241 -13.271  -9.407  0.00  0.00     0.197 HD
BRANCH  11  13
ATOM     13  O3  NON d   1      29.830 -11.452 -10.211  0.00  0.00    -0.287 OA
ATOM     14  H19 NON d   1      29.855 -10.575  -9.768  0.00  0.00     0.244 HD
ENDBRANCH  11  13
ENDBRANCH   8   9
ENDBRANCH   1   7
BRANCH   4  15
ATOM     15  C8  NON d   1      24.958 -15.939  -2.153  0.00  0.00    -0.054 A 
ATOM     16  C9  NON d   1      23.655 -15.987  -1.626  0.00  0.00     0.010 A 
ATOM     17  C10 NON d   1      23.324 -16.852  -0.578  0.00  0.00     0.037 A 
ATOM     18  C11 NON d   1      24.292 -17.681  -0.035  0.00  0.00     0.065 A 
ATOM     19  C12 NON d   1      25.593 -17.650  -0.515  0.00  0.00     0.037 A 
ATOM     20  C13 NON d   1      25.923 -16.775  -1.557  0.00  0.00     0.010 A 
BRANCH  18  21
ATOM     21  O2  NON d   1      23.924 -18.512   0.980  0.00  0.00    -0.361 OA
ATOM     22  H11 NON d   1      23.357 -19.211   0.618  0.00  0.00     0.217 HD
ENDBRANCH  18  21
ENDBRANCH   4  15
TORSDOF 5
ENDMDL
