MODEL 1
REMARK VINA RESULT:    -7.640      0.000      0.000
REMARK INTER + INTRA:         -11.632
REMARK INTER:                 -10.325
REMARK INTRA:                  -1.308
REMARK CONF_INDEPENDENT:        2.685
REMARK UNBOUND:                -1.308
REMARK  9 active torsions:
REMARK  status: ('A' for Active; 'I' for Inactive)
REMARK    1  A    between atoms: C5_5  and  C6_6 
REMARK       I    between atoms: C6_6  and  N1_8 
REMARK    2  A    between atoms: N1_8  and  O2_9 
REMARK    3  A    between atoms: O2_9  and  C7_10 
REMARK    4  A    between atoms: C7_10  and  C8_11 
REMARK    5  A    between atoms: C8_11  and  C9_12 
REMARK    6  A    between atoms: C9_12  and  C10_13 
REMARK    7  A    between atoms: C10_13  and  C11_14 
REMARK    8  A    between atoms: C11_14  and  C12_15 
REMARK       I    between atoms: C12_15  and  N2_17 
REMARK    9  A    between atoms: N2_17  and  O4_18 
ROOT
ATOM      1  C6  NON d   1      21.961 -18.482  -0.768  0.00  0.00     0.275 C 
ATOM      2  O1  NON d   1      22.392 -18.875  -1.849  0.00  0.00    -0.265 OA
ATOM      3  N1  NON d   1      22.502 -17.434  -0.056  0.00  0.00    -0.231 N 
ATOM      4  H6  NON d   1      22.140 -17.052   0.804  0.00  0.00     0.197 HD
ENDROOT
BRANCH   3   5
ATOM      5  O2  NON d   1      23.716 -16.915  -0.565  0.00  0.00    -0.277 OA
BRANCH   5   6
ATOM      6  C7  NON d   1      24.759 -17.892  -0.540  0.00  0.00     0.201 C 
BRANCH   6   7
ATOM      7  C8  NON d   1      26.135 -17.226  -0.627  0.00  0.00     0.029 C 
BRANCH   7   8
ATOM      8  C9  NON d   1      26.074 -15.839  -1.271  0.00  0.00     0.003 C 
BRANCH   8   9
ATOM      9  C10 NON d   1      25.581 -15.843  -2.723  0.00  0.00     0.009 C 
BRANCH   9  10
ATOM     10  C11 NON d   1      26.132 -14.715  -3.597  0.00  0.00     0.105 C 
BRANCH  10  11
ATOM     11  C12 NON d   1      27.019 -15.148  -4.751  0.00  0.00     0.240 C 
ATOM     12  O3  NON d   1      26.631 -15.291  -5.904  0.00  0.00    -0.271 OA
ATOM     13  N2  NON d   1      28.303 -15.430  -4.329  0.00  0.00    -0.237 N 
ATOM     14  H17 NON d   1      28.675 -15.091  -3.449  0.00  0.00     0.197 HD
BRANCH  13  15
ATOM     15  O4  NON d   1      29.253 -15.691  -5.338  0.00  0.00    -0.287 OA
ATOM     16  H18 NON d   1      28.741 -15.524  -6.154  0.00  0.00     0.244 HD
ENDBRANCH  13  15
ENDBRANCH  10  11
ENDBRANCH   9  10
ENDBRANCH   8   9
ENDBRANCH   7   8
ENDBRANCH   6   7
ENDBRANCH   5   6
ENDBRANCH   3   5
BRANCH   1  17
ATOM     17  C5  NON d   1      20.787 -19.190  -0.156  0.00  0.00     0.034 A 
ATOM     18  C4  NON d   1      19.791 -19.671  -1.011  0.00  0.00     0.017 A 
ATOM     19  C3  NON d   1      18.723 -20.423  -0.512  0.00  0.00     0.008 A 
ATOM     20  C2  NON d   1      18.617 -20.710   0.857  0.00  0.00    -0.056 A 
ATOM     21  C1  NON d   1      17.486 -21.579   1.336  0.00  0.00     0.049 C 
ATOM     22  C14 NON d   1      19.574 -20.178   1.741  0.00  0.00    -0.055 A 
ATOM     23  C13 NON d   1      20.671 -19.452   1.215  0.00  0.00     0.024 A 
ATOM     24  C15 NON d   1      19.541 -20.451   3.256  0.00  0.00     0.049 C 
ENDBRANCH   1  17
TORSDOF 9
ENDMDL
MODEL 2
REMARK VINA RESULT:    -7.446      1.634      2.003
REMARK INTER + INTRA:         -11.508
REMARK INTER:                 -10.131
REMARK INTRA:                  -1.377
REMARK CONF_INDEPENDENT:        2.685
REMARK UNBOUND:                -1.377
REMARK  9 active torsions:
REMARK  status: ('A' for Active; 'I' for Inactive)
REMARK    1  A    between atoms: C5_5  and  C6_6 
REMARK       I    between atoms: C6_6  and  N1_8 
REMARK    2  A    between atoms: N1_8  and  O2_9 
REMARK    3  A    between atoms: O2_9  and  C7_10 
REMARK    4  A    between atoms: C7_10  and  C8_11 
REMARK    5  A    between atoms: C8_11  and  C9_12 
REMARK    6  A    between atoms: C9_12  and  C10_13 
REMARK    7  A    between atoms: C10_13  and  C11_14 
REMARK    8  A    between atoms: C11_14  and  C12_15 
REMARK       I    between atoms: C12_15  and  N2_17 
REMARK    9  A    between atoms: N2_17  and  O4_18 
ROOT
ATOM      1  C6  NON d   1      22.516 -18.090  -0.380  0.00  0.00     0.275 C 
ATOM      2  O1  NON d   1      22.458 -16.919  -0.748  0.00  0.00    -0.265 OA
ATOM      3  N1  NON d   1      23.688 -18.803  -0.259  0.00  0.00    -0.231 N 
ATOM      4  H6  NON d   1      23.775 -19.745   0.092  0.00  0.00     0.197 HD
ENDROOT
BRANCH   3   5
ATOM      5  O2  NON d   1      24.848 -18.157  -0.749  0.00  0.00    -0.277 OA
BRANCH   5   6
ATOM      6  C7  NON d   1      25.427 -17.297   0.235  0.00  0.00     0.201 C 
BRANCH   6   7
ATOM      7  C8  NON d   1      26.459 -16.360  -0.398  0.00  0.00     0.029 C 
BRANCH   7   8
ATOM      8  C9  NON d   1      27.109 -16.961  -1.647  0.00  0.00     0.003 C 
BRANCH   8   9
ATOM      9  C10 NON d   1      27.721 -15.924  -2.595  0.00  0.00     0.009 C 
BRANCH   9  10
ATOM     10  C11 NON d   1      26.903 -14.642  -2.766  0.00  0.00     0.105 C 
BRANCH  10  11
ATOM     11  C12 NON d   1      25.701 -14.744  -3.688  0.00  0.00     0.240 C 
ATOM     12  O3  NON d   1      25.515 -15.658  -4.482  0.00  0.00    -0.271 OA
ATOM     13  N2  NON d   1      24.876 -13.642  -3.574  0.00  0.00    -0.237 N 
ATOM     14  H17 NON d   1      24.901 -13.023  -2.771  0.00  0.00     0.197 HD
BRANCH  13  15
ATOM     15  O4  NON d   1      23.650 -13.701  -4.267  0.00  0.00    -0.287 OA
ATOM     16  H18 NON d   1      23.814 -14.410  -4.920  0.00  0.00     0.244 HD
ENDBRANCH  13  15
ENDBRANCH  10  11
ENDBRANCH   9  10
ENDBRANCH   8   9
ENDBRANCH   7   8
ENDBRANCH   6   7
ENDBRANCH   5   6
ENDBRANCH   3   5
BRANCH   1  17
ATOM     17  C5  NON d   1      21.240 -18.812  -0.059  0.00  0.00     0.034 A 
ATOM     18  C4  NON d   1      20.376 -19.122  -1.114  0.00  0.00     0.017 A 
ATOM     19  C3  NON d   1      19.221 -19.879  -0.894  0.00  0.00     0.008 A 
ATOM     20  C2  NON d   1      18.894 -20.342   0.389  0.00  0.00    -0.056 A 
ATOM     21  C1  NON d   1      17.676 -21.207   0.564  0.00  0.00     0.049 C 
ATOM     22  C14 NON d   1      19.714 -19.983   1.474  0.00  0.00    -0.055 A 
ATOM     23  C13 NON d   1      20.902 -19.250   1.228  0.00  0.00     0.024 A 
ATOM     24  C15 NON d   1      19.436 -20.455   2.913  0.00  0.00     0.049 C 
ENDBRANCH   1  17
TORSDOF 9
ENDMDL
MODEL 3
REMARK VINA RESULT:    -7.214      4.746      8.992
REMARK INTER + INTRA:         -11.188
REMARK INTER:                  -9.899
REMARK INTRA:                  -1.289
REMARK CONF_INDEPENDENT:        2.685
REMARK UNBOUND:                -1.289
REMARK  9 active torsions:
REMARK  status: ('A' for Active; 'I' for Inactive)
REMARK    1  A    between atoms: C5_5  and  C6_6 
REMARK       I    between atoms: C6_6  and  N1_8 
REMARK    2  A    between atoms: N1_8  and  O2_9 
REMARK    3  A    between atoms: O2_9  and  C7_10 
REMARK    4  A    between atoms: C7_10  and  C8_11 
REMARK    5  A    between atoms: C8_11  and  C9_12 
REMARK    6  A    between atoms: C9_12  and  C10_13 
REMARK    7  A    between atoms: C10_13  and  C11_14 
REMARK    8  A    between atoms: C11_14  and  C12_15 
REMARK       I    between atoms: C12_15  and  N2_17 
REMARK    9  A    between atoms: N2_17  and  O4_18 
ROOT
ATOM      1  C6  NON d   1      27.311 -14.618   1.357  0.00  0.00     0.275 C 
ATOM      2  O1  NON d   1      26.493 -14.095   0.604  0.00  0.00    -0.265 OA
ATOM      3  N1  NON d   1      27.936 -15.819   1.103  0.00  0.00    -0.231 N 
ATOM      4  H6  NON d   1      28.651 -16.247   1.672  0.00  0.00     0.197 HD
ENDROOT
BRANCH   3   5
ATOM      5  O2  NON d   1      27.459 -16.528  -0.025  0.00  0.00    -0.277 OA
BRANCH   5   6
ATOM      6  C7  NON d   1      27.144 -17.884   0.299  0.00  0.00     0.201 C 
BRANCH   6   7
ATOM      7  C8  NON d   1      25.629 -18.103   0.321  0.00  0.00     0.029 C 
BRANCH   7   8
ATOM      8  C9  NON d   1      24.931 -17.492  -0.896  0.00  0.00     0.003 C 
BRANCH   8   9
ATOM      9  C10 NON d   1      23.597 -18.158  -1.252  0.00  0.00     0.009 C 
BRANCH   9  10
ATOM     10  C11 NON d   1      22.563 -18.180  -0.125  0.00  0.00     0.105 C 
BRANCH  10  11
ATOM     11  C12 NON d   1      21.177 -18.666  -0.510  0.00  0.00     0.240 C 
ATOM     12  O3  NON d   1      20.423 -18.071  -1.270  0.00  0.00    -0.271 OA
ATOM     13  N2  NON d   1      20.840 -19.828   0.156  0.00  0.00    -0.237 N 
ATOM     14  H17 NON d   1      21.533 -20.431   0.585  0.00  0.00     0.197 HD
BRANCH  13  15
ATOM     15  O4  NON d   1      19.641 -20.455  -0.239  0.00  0.00    -0.287 OA
ATOM     16  H18 NON d   1      19.239 -19.783  -0.824  0.00  0.00     0.244 HD
ENDBRANCH  13  15
ENDBRANCH  10  11
ENDBRANCH   9  10
ENDBRANCH   8   9
ENDBRANCH   7   8
ENDBRANCH   6   7
ENDBRANCH   5   6
ENDBRANCH   3   5
BRANCH   1  17
ATOM     17  C5  NON d   1      27.647 -13.933   2.650  0.00  0.00     0.034 A 
ATOM     18  C4  NON d   1      27.415 -12.557   2.745  0.00  0.00     0.017 A 
ATOM     19  C3  NON d   1      27.614 -11.880   3.952  0.00  0.00     0.008 A 
ATOM     20  C2  NON d   1      28.057 -12.558   5.097  0.00  0.00    -0.056 A 
ATOM     21  C1  NON d   1      28.194 -11.799   6.388  0.00  0.00     0.049 C 
ATOM     22  C14 NON d   1      28.361 -13.929   5.003  0.00  0.00    -0.055 A 
ATOM     23  C13 NON d   1      28.115 -14.608   3.784  0.00  0.00     0.024 A 
ATOM     24  C15 NON d   1      28.843 -14.753   6.211  0.00  0.00     0.049 C 
ENDBRANCH   1  17
TORSDOF 9
ENDMDL
MODEL 4
REMARK VINA RESULT:    -7.126      2.585      9.759
REMARK INTER + INTRA:         -11.025
REMARK INTER:                  -9.811
REMARK INTRA:                  -1.214
REMARK CONF_INDEPENDENT:        2.685
REMARK UNBOUND:                -1.214
REMARK  9 active torsions:
REMARK  status: ('A' for Active; 'I' for Inactive)
REMARK    1  A    between atoms: C5_5  and  C6_6 
REMARK       I    between atoms: C6_6  and  N1_8 
REMARK    2  A    between atoms: N1_8  and  O2_9 
REMARK    3  A    between atoms: O2_9  and  C7_10 
REMARK    4  A    between atoms: C7_10  and  C8_11 
REMARK    5  A    between atoms: C8_11  and  C9_12 
REMARK    6  A    between atoms: C9_12  and  C10_13 
REMARK    7  A    between atoms: C10_13  and  C11_14 
REMARK    8  A    between atoms: C11_14  and  C12_15 
REMARK       I    between atoms: C12_15  and  N2_17 
REMARK    9  A    between atoms: N2_17  and  O4_18 
ROOT
ATOM      1  C6  NON d   1      25.597 -14.686  -3.865  0.00  0.00     0.275 C 
ATOM      2  O1  NON d   1      24.406 -14.440  -4.036  0.00  0.00    -0.265 OA
ATOM      3  N1  NON d   1      26.094 -15.381  -2.783  0.00  0.00    -0.231 N 
ATOM      4  H6  NON d   1      27.056 -15.646  -2.641  0.00  0.00     0.197 HD
ENDROOT
BRANCH   3   5
ATOM      5  O2  NON d   1      25.157 -15.670  -1.763  0.00  0.00    -0.277 OA
BRANCH   5   6
ATOM      6  C7  NON d   1      24.914 -17.075  -1.654  0.00  0.00     0.201 C 
BRANCH   6   7
ATOM      7  C8  NON d   1      25.067 -17.545  -0.205  0.00  0.00     0.029 C 
BRANCH   7   8
ATOM      8  C9  NON d   1      23.936 -18.480   0.230  0.00  0.00     0.003 C 
BRANCH   8   9
ATOM      9  C10 NON d   1      22.534 -17.973  -0.124  0.00  0.00     0.009 C 
BRANCH   9  10
ATOM     10  C11 NON d   1      21.843 -18.723  -1.265  0.00  0.00     0.105 C 
BRANCH  10  11
ATOM     11  C12 NON d   1      20.589 -19.490  -0.886  0.00  0.00     0.240 C 
ATOM     12  O3  NON d   1      19.651 -19.699  -1.645  0.00  0.00    -0.271 OA
ATOM     13  N2  NON d   1      20.602 -19.864   0.444  0.00  0.00    -0.237 N 
ATOM     14  H17 NON d   1      21.454 -19.902   0.991  0.00  0.00     0.197 HD
BRANCH  13  15
ATOM     15  O4  NON d   1      19.561 -20.716   0.867  0.00  0.00    -0.287 OA
ATOM     16  H18 NON d   1      18.940 -20.675   0.113  0.00  0.00     0.244 HD
ENDBRANCH  13  15
ENDBRANCH  10  11
ENDBRANCH   9  10
ENDBRANCH   8   9
ENDBRANCH   7   8
ENDBRANCH   6   7
ENDBRANCH   5   6
ENDBRANCH   3   5
BRANCH   1  17
ATOM     17  C5  NON d   1      26.592 -14.186  -4.871  0.00  0.00     0.034 A 
ATOM     18  C4  NON d   1      26.532 -12.839  -5.242  0.00  0.00     0.017 A 
ATOM     19  C3  NON d   1      27.491 -12.290  -6.100  0.00  0.00     0.008 A 
ATOM     20  C2  NON d   1      28.533 -13.075  -6.616  0.00  0.00    -0.056 A 
ATOM     21  C1  NON d   1      29.577 -12.424  -7.482  0.00  0.00     0.049 C 
ATOM     22  C14 NON d   1      28.570 -14.447  -6.309  0.00  0.00    -0.055 A 
ATOM     23  C13 NON d   1      27.615 -14.979  -5.406  0.00  0.00     0.024 A 
ATOM     24  C15 NON d   1      29.682 -15.380  -6.823  0.00  0.00     0.049 C 
ENDBRANCH   1  17
TORSDOF 9
ENDMDL
MODEL 5
REMARK VINA RESULT:    -7.117      2.865     10.053
REMARK INTER + INTRA:         -10.850
REMARK INTER:                  -9.802
REMARK INTRA:                  -1.049
REMARK CONF_INDEPENDENT:        2.685
REMARK UNBOUND:                -1.049
REMARK  9 active torsions:
REMARK  status: ('A' for Active; 'I' for Inactive)
REMARK    1  A    between atoms: C5_5  and  C6_6 
REMARK       I    between atoms: C6_6  and  N1_8 
REMARK    2  A    between atoms: N1_8  and  O2_9 
REMARK    3  A    between atoms: O2_9  and  C7_10 
REMARK    4  A    between atoms: C7_10  and  C8_11 
REMARK    5  A    between atoms: C8_11  and  C9_12 
REMARK    6  A    between atoms: C9_12  and  C10_13 
REMARK    7  A    between atoms: C10_13  and  C11_14 
REMARK    8  A    between atoms: C11_14  and  C12_15 
REMARK       I    between atoms: C12_15  and  N2_17 
REMARK    9  A    between atoms: N2_17  and  O4_18 
ROOT
ATOM      1  C6  NON d   1      25.643 -14.312  -3.901  0.00  0.00     0.275 C 
ATOM      2  O1  NON d   1      24.452 -14.450  -4.167  0.00  0.00    -0.265 OA
ATOM      3  N1  NON d   1      26.219 -14.705  -2.713  0.00  0.00    -0.231 N 
ATOM      4  H6  NON d   1      27.201 -14.657  -2.486  0.00  0.00     0.197 HD
ENDROOT
BRANCH   3   5
ATOM      5  O2  NON d   1      25.318 -15.142  -1.713  0.00  0.00    -0.277 OA
BRANCH   5   6
ATOM      6  C7  NON d   1      25.479 -16.534  -1.430  0.00  0.00     0.201 C 
BRANCH   6   7
ATOM      7  C8  NON d   1      24.489 -16.991  -0.355  0.00  0.00     0.029 C 
BRANCH   7   8
ATOM      8  C9  NON d   1      23.135 -17.398  -0.941  0.00  0.00     0.003 C 
BRANCH   8   9
ATOM      9  C10 NON d   1      22.749 -18.857  -0.669  0.00  0.00     0.009 C 
BRANCH   9  10
ATOM     10  C11 NON d   1      21.443 -19.047   0.105  0.00  0.00     0.105 C 
BRANCH  10  11
ATOM     11  C12 NON d   1      20.268 -19.570  -0.703  0.00  0.00     0.240 C 
ATOM     12  O3  NON d   1      20.270 -19.702  -1.920  0.00  0.00    -0.271 OA
ATOM     13  N2  NON d   1      19.169 -19.815   0.097  0.00  0.00    -0.237 N 
ATOM     14  H17 NON d   1      19.240 -19.934   1.101  0.00  0.00     0.197 HD
BRANCH  13  15
ATOM     15  O4  NON d   1      18.072 -20.451  -0.520  0.00  0.00    -0.287 OA
ATOM     16  H18 NON d   1      18.065 -20.038  -1.406  0.00  0.00     0.244 HD
ENDBRANCH  13  15
ENDBRANCH  10  11
ENDBRANCH   9  10
ENDBRANCH   8   9
ENDBRANCH   7   8
ENDBRANCH   6   7
ENDBRANCH   5   6
ENDBRANCH   3   5
BRANCH   1  17
ATOM     17  C5  NON d   1      26.539 -13.657  -4.911  0.00  0.00     0.034 A 
ATOM     18  C4  NON d   1      27.469 -14.457  -5.583  0.00  0.00     0.017 A 
ATOM     19  C3  NON d   1      28.263 -13.926  -6.605  0.00  0.00     0.008 A 
ATOM     20  C2  NON d   1      28.155 -12.579  -6.978  0.00  0.00    -0.056 A 
ATOM     21  C1  NON d   1      28.984 -12.071  -8.126  0.00  0.00     0.049 C 
ATOM     22  C14 NON d   1      27.274 -11.743  -6.268  0.00  0.00    -0.055 A 
ATOM     23  C13 NON d   1      26.448 -12.304  -5.264  0.00  0.00     0.024 A 
ATOM     24  C15 NON d   1      27.085 -10.255  -6.617  0.00  0.00     0.049 C 
ENDBRANCH   1  17
TORSDOF 9
ENDMDL
MODEL 6
REMARK VINA RESULT:    -6.914      2.553      9.948
REMARK INTER + INTRA:         -10.831
REMARK INTER:                  -9.599
REMARK INTRA:                  -1.232
REMARK CONF_INDEPENDENT:        2.685
REMARK UNBOUND:                -1.232
REMARK  9 active torsions:
REMARK  status: ('A' for Active; 'I' for Inactive)
REMARK    1  A    between atoms: C5_5  and  C6_6 
REMARK       I    between atoms: C6_6  and  N1_8 
REMARK    2  A    between atoms: N1_8  and  O2_9 
REMARK    3  A    between atoms: O2_9  and  C7_10 
REMARK    4  A    between atoms: C7_10  and  C8_11 
REMARK    5  A    between atoms: C8_11  and  C9_12 
REMARK    6  A    between atoms: C9_12  and  C10_13 
REMARK    7  A    between atoms: C10_13  and  C11_14 
REMARK    8  A    between atoms: C11_14  and  C12_15 
REMARK       I    between atoms: C12_15  and  N2_17 
REMARK    9  A    between atoms: N2_17  and  O4_18 
ROOT
ATOM      1  C6  NON d   1      26.289 -15.087  -4.341  0.00  0.00     0.275 C 
ATOM      2  O1  NON d   1      25.244 -15.134  -4.987  0.00  0.00    -0.265 OA
ATOM      3  N1  NON d   1      26.347 -15.105  -2.965  0.00  0.00    -0.231 N 
ATOM      4  H6  NON d   1      27.187 -15.124  -2.408  0.00  0.00     0.197 HD
ENDROOT
BRANCH   3   5
ATOM      5  O2  NON d   1      25.100 -15.015  -2.301  0.00  0.00    -0.277 OA
BRANCH   5   6
ATOM      6  C7  NON d   1      24.593 -16.306  -1.955  0.00  0.00     0.201 C 
BRANCH   6   7
ATOM      7  C8  NON d   1      25.534 -17.020  -0.981  0.00  0.00     0.029 C 
BRANCH   7   8
ATOM      8  C9  NON d   1      24.847 -18.168  -0.238  0.00  0.00     0.003 C 
BRANCH   8   9
ATOM      9  C10 NON d   1      23.560 -18.665  -0.906  0.00  0.00     0.009 C 
BRANCH   9  10
ATOM     10  C11 NON d   1      22.291 -18.499  -0.069  0.00  0.00     0.105 C 
BRANCH  10  11
ATOM     11  C12 NON d   1      21.096 -19.325  -0.511  0.00  0.00     0.240 C 
ATOM     12  O3  NON d   1      20.647 -19.336  -1.651  0.00  0.00    -0.271 OA
ATOM     13  N2  NON d   1      20.531 -20.012   0.546  0.00  0.00    -0.237 N 
ATOM     14  H17 NON d   1      21.030 -20.188   1.411  0.00  0.00     0.197 HD
BRANCH  13  15
ATOM     15  O4  NON d   1      19.513 -20.932   0.225  0.00  0.00    -0.287 OA
ATOM     16  H18 NON d   1      19.155 -20.565  -0.606  0.00  0.00     0.244 HD
ENDBRANCH  13  15
ENDBRANCH  10  11
ENDBRANCH   9  10
ENDBRANCH   8   9
ENDBRANCH   7   8
ENDBRANCH   6   7
ENDBRANCH   5   6
ENDBRANCH   3   5
BRANCH   1  17
ATOM     17  C5  NON d   1      27.591 -14.979  -5.079  0.00  0.00     0.034 A 
ATOM     18  C4  NON d   1      28.614 -15.872  -4.743  0.00  0.00     0.017 A 
ATOM     19  C3  NON d   1      29.814 -15.887  -5.460  0.00  0.00     0.008 A 
ATOM     20  C2  NON d   1      30.029 -15.005  -6.529  0.00  0.00    -0.056 A 
ATOM     21  C1  NON d   1      31.311 -15.104  -7.311  0.00  0.00     0.049 C 
ATOM     22  C14 NON d   1      29.039 -14.054  -6.838  0.00  0.00    -0.055 A 
ATOM     23  C13 NON d   1      27.813 -14.079  -6.129  0.00  0.00     0.024 A 
ATOM     24  C15 NON d   1      29.187 -13.056  -8.001  0.00  0.00     0.049 C 
ENDBRANCH   1  17
TORSDOF 9
ENDMDL
MODEL 7
REMARK VINA RESULT:    -5.528      3.821      6.230
REMARK INTER + INTRA:         -11.297
REMARK INTER:                  -8.212
REMARK INTRA:                  -3.085
REMARK CONF_INDEPENDENT:        2.685
REMARK UNBOUND:                -3.085
REMARK  9 active torsions:
REMARK  status: ('A' for Active; 'I' for Inactive)
REMARK    1  A    between atoms: C5_5  and  C6_6 
REMARK       I    between atoms: C6_6  and  N1_8 
REMARK    2  A    between atoms: N1_8  and  O2_9 
REMARK    3  A    between atoms: O2_9  and  C7_10 
REMARK    4  A    between atoms: C7_10  and  C8_11 
REMARK    5  A    between atoms: C8_11  and  C9_12 
REMARK    6  A    between atoms: C9_12  and  C10_13 
REMARK    7  A    between atoms: C10_13  and  C11_14 
REMARK    8  A    between atoms: C11_14  and  C12_15 
REMARK       I    between atoms: C12_15  and  N2_17 
REMARK    9  A    between atoms: N2_17  and  O4_18 
ROOT
ATOM      1  C6  NON d   1      24.954 -14.213  -2.832  0.00  0.00     0.275 C 
ATOM      2  O1  NON d   1      24.018 -14.308  -3.622  0.00  0.00    -0.265 OA
ATOM      3  N1  NON d   1      25.711 -13.074  -2.665  0.00  0.00    -0.231 N 
ATOM      4  H6  NON d   1      26.447 -12.946  -1.988  0.00  0.00     0.197 HD
ENDROOT
BRANCH   3   5
ATOM      5  O2  NON d   1      25.458 -12.034  -3.591  0.00  0.00    -0.277 OA
BRANCH   5   6
ATOM      6  C7  NON d   1      26.218 -10.862  -3.286  0.00  0.00     0.201 C 
BRANCH   6   7
ATOM      7  C8  NON d   1      27.037 -10.411  -4.499  0.00  0.00     0.029 C 
BRANCH   7   8
ATOM      8  C9  NON d   1      26.495 -10.976  -5.814  0.00  0.00     0.003 C 
BRANCH   8   9
ATOM      9  C10 NON d   1      27.405 -12.021  -6.469  0.00  0.00     0.009 C 
BRANCH   9  10
ATOM     10  C11 NON d   1      28.036 -13.026  -5.503  0.00  0.00     0.105 C 
BRANCH  10  11
ATOM     11  C12 NON d   1      27.492 -14.442  -5.575  0.00  0.00     0.240 C 
ATOM     12  O3  NON d   1      28.169 -15.431  -5.824  0.00  0.00    -0.271 OA
ATOM     13  N2  NON d   1      26.123 -14.471  -5.395  0.00  0.00    -0.237 N 
ATOM     14  H17 NON d   1      25.613 -13.709  -4.963  0.00  0.00     0.197 HD
BRANCH  13  15
ATOM     15  O4  NON d   1      25.530 -15.746  -5.287  0.00  0.00    -0.287 OA
ATOM     16  H18 NON d   1      26.302 -16.341  -5.363  0.00  0.00     0.244 HD
ENDBRANCH  13  15
ENDBRANCH  10  11
ENDBRANCH   9  10
ENDBRANCH   8   9
ENDBRANCH   7   8
ENDBRANCH   6   7
ENDBRANCH   5   6
ENDBRANCH   3   5
BRANCH   1  17
ATOM     17  C5  NON d   1      25.326 -15.408  -2.004  0.00  0.00     0.034 A 
ATOM     18  C4  NON d   1      26.659 -15.539  -1.599  0.00  0.00     0.017 A 
ATOM     19  C3  NON d   1      27.048 -16.577  -0.746  0.00  0.00     0.008 A 
ATOM     20  C2  NON d   1      26.117 -17.516  -0.278  0.00  0.00    -0.056 A 
ATOM     21  C1  NON d   1      26.572 -18.574   0.690  0.00  0.00     0.049 C 
ATOM     22  C14 NON d   1      24.787 -17.440  -0.728  0.00  0.00    -0.055 A 
ATOM     23  C13 NON d   1      24.399 -16.360  -1.560  0.00  0.00     0.024 A 
ATOM     24  C15 NON d   1      23.698 -18.423  -0.258  0.00  0.00     0.049 C 
ENDBRANCH   1  17
TORSDOF 9
ENDMDL
MODEL 8
REMARK VINA RESULT:    -5.096      4.964      8.236
REMARK INTER + INTRA:         -11.282
REMARK INTER:                  -7.781
REMARK INTRA:                  -3.501
REMARK CONF_INDEPENDENT:        2.685
REMARK UNBOUND:                -3.501
REMARK  9 active torsions:
REMARK  status: ('A' for Active; 'I' for Inactive)
REMARK    1  A    between atoms: C5_5  and  C6_6 
REMARK       I    between atoms: C6_6  and  N1_8 
REMARK    2  A    between atoms: N1_8  and  O2_9 
REMARK    3  A    between atoms: O2_9  and  C7_10 
REMARK    4  A    between atoms: C7_10  and  C8_11 
REMARK    5  A    between atoms: C8_11  and  C9_12 
REMARK    6  A    between atoms: C9_12  and  C10_13 
REMARK    7  A    between atoms: C10_13  and  C11_14 
REMARK    8  A    between atoms: C11_14  and  C12_15 
REMARK       I    between atoms: C12_15  and  N2_17 
REMARK    9  A    between atoms: N2_17  and  O4_18 
ROOT
ATOM      1  C6  NON d   1      27.638 -14.413   1.375  0.00  0.00     0.275 C 
ATOM      2  O1  NON d   1      26.843 -13.867   0.615  0.00  0.00    -0.265 OA
ATOM      3  N1  NON d   1      28.422 -15.492   1.028  0.00  0.00    -0.231 N 
ATOM      4  H6  NON d   1      29.122 -15.926   1.609  0.00  0.00     0.197 HD
ENDROOT
BRANCH   3   5
ATOM      5  O2  NON d   1      28.145 -16.065  -0.236  0.00  0.00    -0.277 OA
BRANCH   5   6
ATOM      6  C7  NON d   1      27.922 -17.474  -0.138  0.00  0.00     0.201 C 
BRANCH   6   7
ATOM      7  C8  NON d   1      26.657 -17.773   0.670  0.00  0.00     0.029 C 
BRANCH   7   8
ATOM      8  C9  NON d   1      25.433 -18.003  -0.221  0.00  0.00     0.003 C 
BRANCH   8   9
ATOM      9  C10 NON d   1      24.450 -16.827  -0.249  0.00  0.00     0.009 C 
BRANCH   9  10
ATOM     10  C11 NON d   1      24.043 -16.357  -1.647  0.00  0.00     0.105 C 
BRANCH  10  11
ATOM     11  C12 NON d   1      24.999 -15.390  -2.323  0.00  0.00     0.240 C 
ATOM     12  O3  NON d   1      24.777 -14.833  -3.390  0.00  0.00    -0.271 OA
ATOM     13  N2  NON d   1      26.182 -15.268  -1.620  0.00  0.00    -0.237 N 
ATOM     14  H17 NON d   1      26.266 -15.532  -0.645  0.00  0.00     0.197 HD
BRANCH  13  15
ATOM     15  O4  NON d   1      27.081 -14.280  -2.070  0.00  0.00    -0.287 OA
ATOM     16  H18 NON d   1      27.719 -14.228  -1.331  0.00  0.00     0.244 HD
ENDBRANCH  13  15
ENDBRANCH  10  11
ENDBRANCH   9  10
ENDBRANCH   8   9
ENDBRANCH   7   8
ENDBRANCH   6   7
ENDBRANCH   5   6
ENDBRANCH   3   5
BRANCH   1  17
ATOM     17  C5  NON d   1      27.762 -13.903   2.781  0.00  0.00     0.034 A 
ATOM     18  C4  NON d   1      28.045 -14.825   3.794  0.00  0.00     0.017 A 
ATOM     19  C3  NON d   1      28.269 -14.400   5.107  0.00  0.00     0.008 A 
ATOM     20  C2  NON d   1      28.211 -13.040   5.446  0.00  0.00    -0.056 A 
ATOM     21  C1  NON d   1      28.524 -12.626   6.858  0.00  0.00     0.049 C 
ATOM     22  C14 NON d   1      27.862 -12.104   4.455  0.00  0.00    -0.055 A 
ATOM     23  C13 NON d   1      27.677 -12.547   3.122  0.00  0.00     0.024 A 
ATOM     24  C15 NON d   1      27.784 -10.592   4.737  0.00  0.00     0.049 C 
ENDBRANCH   1  17
TORSDOF 9
ENDMDL
MODEL 9
REMARK VINA RESULT:    -5.070      4.085      6.479
REMARK INTER + INTRA:         -10.843
REMARK INTER:                  -7.755
REMARK INTRA:                  -3.088
REMARK CONF_INDEPENDENT:        2.685
REMARK UNBOUND:                -3.088
REMARK  9 active torsions:
REMARK  status: ('A' for Active; 'I' for Inactive)
REMARK    1  A    between atoms: C5_5  and  C6_6 
REMARK       I    between atoms: C6_6  and  N1_8 
REMARK    2  A    between atoms: N1_8  and  O2_9 
REMARK    3  A    between atoms: O2_9  and  C7_10 
REMARK    4  A    between atoms: C7_10  and  C8_11 
REMARK    5  A    between atoms: C8_11  and  C9_12 
REMARK    6  A    between atoms: C9_12  and  C10_13 
REMARK    7  A    between atoms: C10_13  and  C11_14 
REMARK    8  A    between atoms: C11_14  and  C12_15 
REMARK       I    between atoms: C12_15  and  N2_17 
REMARK    9  A    between atoms: N2_17  and  O4_18 
ROOT
ATOM      1  C6  NON d   1      26.914 -15.232  -3.473  0.00  0.00     0.275 C 
ATOM      2  O1  NON d   1      27.743 -14.376  -3.172  0.00  0.00    -0.265 OA
ATOM      3  N1  NON d   1      26.596 -15.575  -4.769  0.00  0.00    -0.231 N 
ATOM      4  H6  NON d   1      25.963 -16.310  -5.048  0.00  0.00     0.197 HD
ENDROOT
BRANCH   3   5
ATOM      5  O2  NON d   1      27.167 -14.760  -5.774  0.00  0.00    -0.277 OA
BRANCH   5   6
ATOM      6  C7  NON d   1      28.576 -14.975  -5.891  0.00  0.00     0.201 C 
BRANCH   6   7
ATOM      7  C8  NON d   1      29.275 -13.730  -6.442  0.00  0.00     0.029 C 
BRANCH   7   8
ATOM      8  C9  NON d   1      28.543 -13.131  -7.646  0.00  0.00     0.003 C 
BRANCH   8   9
ATOM      9  C10 NON d   1      28.128 -11.667  -7.461  0.00  0.00     0.009 C 
BRANCH   9  10
ATOM     10  C11 NON d   1      27.551 -11.327  -6.085  0.00  0.00     0.105 C 
BRANCH  10  11
ATOM     11  C12 NON d   1      26.109 -11.744  -5.853  0.00  0.00     0.240 C 
ATOM     12  O3  NON d   1      25.156 -11.321  -6.495  0.00  0.00    -0.271 OA
ATOM     13  N2  NON d   1      25.994 -12.608  -4.781  0.00  0.00    -0.237 N 
ATOM     14  H17 NON d   1      26.783 -13.130  -4.415  0.00  0.00     0.197 HD
BRANCH  13  15
ATOM     15  O4  NON d   1      24.724 -13.183  -4.570  0.00  0.00    -0.287 OA
ATOM     16  H18 NON d   1      24.253 -12.954  -5.395  0.00  0.00     0.244 HD
ENDBRANCH  13  15
ENDBRANCH  10  11
ENDBRANCH   9  10
ENDBRANCH   8   9
ENDBRANCH   7   8
ENDBRANCH   6   7
ENDBRANCH   5   6
ENDBRANCH   3   5
BRANCH   1  17
ATOM     17  C5  NON d   1      26.176 -15.941  -2.376  0.00  0.00     0.034 A 
ATOM     18  C4  NON d   1      24.779 -15.865  -2.368  0.00  0.00     0.017 A 
ATOM     19  C3  NON d   1      24.030 -16.585  -1.431  0.00  0.00     0.008 A 
ATOM     20  C2  NON d   1      24.657 -17.395  -0.472  0.00  0.00    -0.056 A 
ATOM     21  C1  NON d   1      23.806 -18.200   0.471  0.00  0.00     0.049 C 
ATOM     22  C14 NON d   1      26.062 -17.430  -0.423  0.00  0.00    -0.055 A 
ATOM     23  C13 NON d   1      26.806 -16.728  -1.404  0.00  0.00     0.024 A 
ATOM     24  C15 NON d   1      26.832 -18.299   0.589  0.00  0.00     0.049 C 
ENDBRANCH   1  17
TORSDOF 9
ENDMDL
