MODEL 1
REMARK VINA RESULT:    -8.169      0.000      0.000
REMARK INTER + INTRA:         -13.585
REMARK INTER:                 -11.749
REMARK INTRA:                  -1.837
REMARK CONF_INDEPENDENT:        3.580
REMARK UNBOUND:                -1.837
REMARK  12 active torsions:
REMARK  status: ('A' for Active; 'I' for Inactive)
REMARK    1  A    between atoms: C3_3  and  O1_4 
REMARK    2  A    between atoms: O1_4  and  C4_5 
REMARK    3  A    between atoms: C7_8  and  C8_9 
REMARK    4  A    between atoms: N1_10  and  N2_11 
REMARK       I    between atoms: N2_11  and  C9_12 
REMARK    5  A    between atoms: C9_12  and  C10_14 
REMARK    6  A    between atoms: C10_14  and  C11_15 
REMARK    7  A    between atoms: C11_15  and  C12_16 
REMARK    8  A    between atoms: C12_16  and  C13_17 
REMARK    9  A    between atoms: C13_17  and  C14_18 
REMARK   10  A    between atoms: C14_18  and  C15_19 
REMARK   11  A    between atoms: C15_19  and  C16_20 
REMARK       I    between atoms: C16_20  and  N3_22 
REMARK   12  A    between atoms: N3_22  and  O4_23 
ROOT
ATOM      1  C1  NON d   1      18.902 -20.792   1.394  0.00  0.00     0.014 C 
ATOM      2  C2  NON d   1      19.481 -20.173   0.108  0.00  0.00    -0.091 C 
ATOM      3  C3  NON d   1      20.059 -19.554  -1.178  0.00  0.00     0.268 C 
ENDROOT
BRANCH   3   4
ATOM      4  O1  NON d   1      20.442 -18.185  -1.119  0.00  0.00    -0.340 OA
BRANCH   4   5
ATOM      5  C4  NON d   1      21.786 -18.028  -0.824  0.00  0.00     0.070 A 
ATOM      6  C5  NON d   1      22.259 -16.713  -0.784  0.00  0.00     0.037 A 
ATOM      7  C6  NON d   1      23.614 -16.445  -0.521  0.00  0.00     0.015 A 
ATOM      8  C7  NON d   1      24.500 -17.499  -0.282  0.00  0.00    -0.017 A 
ATOM      9  C17 NON d   1      24.034 -18.812  -0.301  0.00  0.00     0.015 A 
ATOM     10  C18 NON d   1      22.690 -19.073  -0.573  0.00  0.00     0.037 A 
BRANCH   8  11
ATOM     11  C8  NON d   1      25.939 -17.242  -0.050  0.00  0.00     0.150 C 
ATOM     12  N1  NON d   1      26.830 -18.102  -0.425  0.00  0.00    -0.184 NA
BRANCH  12  13
ATOM     13  N2  NON d   1      28.136 -17.747  -0.264  0.00  0.00    -0.247 N 
ATOM     14  C9  NON d   1      28.745 -16.945  -1.225  0.00  0.00     0.237 C 
ATOM     15  O2  NON d   1      28.271 -16.688  -2.328  0.00  0.00    -0.272 OA
ATOM     16  H7  NON d   1      28.605 -17.960   0.607  0.00  0.00     0.192 HD
BRANCH  14  17
ATOM     17  C10 NON d   1      30.090 -16.417  -0.751  0.00  0.00     0.105 C 
BRANCH  17  18
ATOM     18  C11 NON d   1      30.030 -15.548   0.506  0.00  0.00     0.009 C 
BRANCH  18  19
ATOM     19  C12 NON d   1      28.801 -14.628   0.607  0.00  0.00     0.000 C 
BRANCH  19  20
ATOM     20  C13 NON d   1      27.958 -14.838   1.866  0.00  0.00     0.000 C 
BRANCH  20  21
ATOM     21  C14 NON d   1      27.566 -13.542   2.591  0.00  0.00     0.009 C 
BRANCH  21  22
ATOM     22  C15 NON d   1      27.318 -13.714   4.090  0.00  0.00     0.105 C 
BRANCH  22  23
ATOM     23  C16 NON d   1      28.581 -13.887   4.907  0.00  0.00     0.240 C 
ATOM     24  O3  NON d   1      29.087 -13.015   5.610  0.00  0.00    -0.271 OA
ATOM     25  N3  NON d   1      29.157 -15.127   4.763  0.00  0.00    -0.237 N 
ATOM     26  H20 NON d   1      28.948 -15.754   3.994  0.00  0.00     0.197 HD
BRANCH  25  27
ATOM     27  O4  NON d   1      30.403 -15.305   5.411  0.00  0.00    -0.287 OA
ATOM     28  H21 NON d   1      30.791 -14.403   5.365  0.00  0.00     0.244 HD
ENDBRANCH  25  27
ENDBRANCH  22  23
ENDBRANCH  21  22
ENDBRANCH  20  21
ENDBRANCH  19  20
ENDBRANCH  18  19
ENDBRANCH  17  18
ENDBRANCH  14  17
ENDBRANCH  12  13
ENDBRANCH   8  11
ENDBRANCH   4   5
ENDBRANCH   3   4
TORSDOF 12
ENDMDL
MODEL 2
REMARK VINA RESULT:    -7.804      3.323      4.088
REMARK INTER + INTRA:         -12.810
REMARK INTER:                 -11.383
REMARK INTRA:                  -1.427
REMARK CONF_INDEPENDENT:        3.580
REMARK UNBOUND:                -1.427
REMARK  12 active torsions:
REMARK  status: ('A' for Active; 'I' for Inactive)
REMARK    1  A    between atoms: C3_3  and  O1_4 
REMARK    2  A    between atoms: O1_4  and  C4_5 
REMARK    3  A    between atoms: C7_8  and  C8_9 
REMARK    4  A    between atoms: N1_10  and  N2_11 
REMARK       I    between atoms: N2_11  and  C9_12 
REMARK    5  A    between atoms: C9_12  and  C10_14 
REMARK    6  A    between atoms: C10_14  and  C11_15 
REMARK    7  A    between atoms: C11_15  and  C12_16 
REMARK    8  A    between atoms: C12_16  and  C13_17 
REMARK    9  A    between atoms: C13_17  and  C14_18 
REMARK   10  A    between atoms: C14_18  and  C15_19 
REMARK   11  A    between atoms: C15_19  and  C16_20 
REMARK       I    between atoms: C16_20  and  N3_22 
REMARK   12  A    between atoms: N3_22  and  O4_23 
ROOT
ATOM      1  C1  NON d   1      19.022 -20.063   1.815  0.00  0.00     0.014 C 
ATOM      2  C2  NON d   1      19.564 -19.577   0.458  0.00  0.00    -0.091 C 
ATOM      3  C3  NON d   1      20.106 -19.091  -0.899  0.00  0.00     0.268 C 
ENDROOT
BRANCH   3   4
ATOM      4  O1  NON d   1      20.749 -17.822  -0.920  0.00  0.00    -0.340 OA
BRANCH   4   5
ATOM      5  C4  NON d   1      22.106 -17.917  -0.657  0.00  0.00     0.070 A 
ATOM      6  C5  NON d   1      22.795 -16.707  -0.529  0.00  0.00     0.037 A 
ATOM      7  C6  NON d   1      24.180 -16.691  -0.291  0.00  0.00     0.015 A 
ATOM      8  C7  NON d   1      24.880 -17.895  -0.164  0.00  0.00    -0.017 A 
ATOM      9  C17 NON d   1      24.198 -19.105  -0.270  0.00  0.00     0.015 A 
ATOM     10  C18 NON d   1      22.825 -19.115  -0.518  0.00  0.00     0.037 A 
BRANCH   8  11
ATOM     11  C8  NON d   1      26.345 -17.902   0.041  0.00  0.00     0.150 C 
ATOM     12  N1  NON d   1      27.039 -16.824  -0.129  0.00  0.00    -0.184 NA
BRANCH  12  13
ATOM     13  N2  NON d   1      28.366 -16.890   0.175  0.00  0.00    -0.247 N 
ATOM     14  C9  NON d   1      29.303 -16.745  -0.845  0.00  0.00     0.237 C 
ATOM     15  O2  NON d   1      29.044 -16.766  -2.044  0.00  0.00    -0.272 OA
ATOM     16  H7  NON d   1      28.654 -16.914   1.145  0.00  0.00     0.192 HD
BRANCH  14  17
ATOM     17  C10 NON d   1      30.710 -16.558  -0.298  0.00  0.00     0.105 C 
BRANCH  17  18
ATOM     18  C11 NON d   1      31.368 -17.836   0.228  0.00  0.00     0.009 C 
BRANCH  18  19
ATOM     19  C12 NON d   1      32.668 -17.622   1.021  0.00  0.00     0.000 C 
BRANCH  19  20
ATOM     20  C13 NON d   1      33.087 -18.817   1.878  0.00  0.00     0.000 C 
BRANCH  20  21
ATOM     21  C14 NON d   1      32.256 -19.005   3.156  0.00  0.00     0.009 C 
BRANCH  21  22
ATOM     22  C15 NON d   1      31.889 -20.460   3.456  0.00  0.00     0.105 C 
BRANCH  22  23
ATOM     23  C16 NON d   1      31.939 -20.816   4.926  0.00  0.00     0.240 C 
ATOM     24  O3  NON d   1      32.954 -20.801   5.617  0.00  0.00    -0.271 OA
ATOM     25  N3  NON d   1      30.722 -21.209   5.433  0.00  0.00    -0.237 N 
ATOM     26  H20 NON d   1      29.947 -21.511   4.853  0.00  0.00     0.197 HD
BRANCH  25  27
ATOM     27  O4  NON d   1      30.733 -21.666   6.772  0.00  0.00    -0.287 OA
ATOM     28  H21 NON d   1      31.642 -22.030   6.860  0.00  0.00     0.244 HD
ENDBRANCH  25  27
ENDBRANCH  22  23
ENDBRANCH  21  22
ENDBRANCH  20  21
ENDBRANCH  19  20
ENDBRANCH  18  19
ENDBRANCH  17  18
ENDBRANCH  14  17
ENDBRANCH  12  13
ENDBRANCH   8  11
ENDBRANCH   4   5
ENDBRANCH   3   4
TORSDOF 12
ENDMDL
MODEL 3
REMARK VINA RESULT:    -7.502      3.103      4.811
REMARK INTER + INTRA:         -12.873
REMARK INTER:                 -11.082
REMARK INTRA:                  -1.791
REMARK CONF_INDEPENDENT:        3.580
REMARK UNBOUND:                -1.791
REMARK  12 active torsions:
REMARK  status: ('A' for Active; 'I' for Inactive)
REMARK    1  A    between atoms: C3_3  and  O1_4 
REMARK    2  A    between atoms: O1_4  and  C4_5 
REMARK    3  A    between atoms: C7_8  and  C8_9 
REMARK    4  A    between atoms: N1_10  and  N2_11 
REMARK       I    between atoms: N2_11  and  C9_12 
REMARK    5  A    between atoms: C9_12  and  C10_14 
REMARK    6  A    between atoms: C10_14  and  C11_15 
REMARK    7  A    between atoms: C11_15  and  C12_16 
REMARK    8  A    between atoms: C12_16  and  C13_17 
REMARK    9  A    between atoms: C13_17  and  C14_18 
REMARK   10  A    between atoms: C14_18  and  C15_19 
REMARK   11  A    between atoms: C15_19  and  C16_20 
REMARK       I    between atoms: C16_20  and  N3_22 
REMARK   12  A    between atoms: N3_22  and  O4_23 
ROOT
ATOM      1  C1  NON d   1      18.878 -20.429   1.290  0.00  0.00     0.014 C 
ATOM      2  C2  NON d   1      19.602 -19.854   0.058  0.00  0.00    -0.091 C 
ATOM      3  C3  NON d   1      20.326 -19.280  -1.172  0.00  0.00     0.268 C 
ENDROOT
BRANCH   3   4
ATOM      4  O1  NON d   1      20.809 -17.946  -1.073  0.00  0.00    -0.340 OA
BRANCH   4   5
ATOM      5  C4  NON d   1      22.152 -17.897  -0.737  0.00  0.00     0.070 A 
ATOM      6  C5  NON d   1      22.717 -16.622  -0.639  0.00  0.00     0.037 A 
ATOM      7  C6  NON d   1      24.080 -16.462  -0.332  0.00  0.00     0.015 A 
ATOM      8  C7  NON d   1      24.881 -17.585  -0.106  0.00  0.00    -0.017 A 
ATOM      9  C17 NON d   1      24.321 -18.859  -0.182  0.00  0.00     0.015 A 
ATOM     10  C18 NON d   1      22.971 -19.012  -0.498  0.00  0.00     0.037 A 
BRANCH   8  11
ATOM     11  C8  NON d   1      26.326 -17.443   0.173  0.00  0.00     0.150 C 
ATOM     12  N1  NON d   1      27.200 -18.083  -0.534  0.00  0.00    -0.184 NA
BRANCH  12  13
ATOM     13  N2  NON d   1      28.513 -17.822  -0.277  0.00  0.00    -0.247 N 
ATOM     14  C9  NON d   1      29.017 -16.554  -0.548  0.00  0.00     0.237 C 
ATOM     15  O2  NON d   1      28.434 -15.690  -1.197  0.00  0.00    -0.272 OA
ATOM     16  H7  NON d   1      29.068 -18.506   0.222  0.00  0.00     0.192 HD
BRANCH  14  17
ATOM     17  C10 NON d   1      30.399 -16.353   0.056  0.00  0.00     0.105 C 
BRANCH  17  18
ATOM     18  C11 NON d   1      31.518 -17.137  -0.632  0.00  0.00     0.009 C 
BRANCH  18  19
ATOM     19  C12 NON d   1      31.115 -17.844  -1.937  0.00  0.00     0.000 C 
BRANCH  19  20
ATOM     20  C13 NON d   1      31.325 -19.358  -1.924  0.00  0.00     0.000 C 
BRANCH  20  21
ATOM     21  C14 NON d   1      30.781 -20.065  -0.674  0.00  0.00     0.009 C 
BRANCH  21  22
ATOM     22  C15 NON d   1      30.948 -21.585  -0.692  0.00  0.00     0.105 C 
BRANCH  22  23
ATOM     23  C16 NON d   1      30.516 -22.267   0.589  0.00  0.00     0.240 C 
ATOM     24  O3  NON d   1      30.942 -23.349   0.986  0.00  0.00    -0.271 OA
ATOM     25  N3  NON d   1      29.548 -21.572   1.276  0.00  0.00    -0.237 N 
ATOM     26  H20 NON d   1      28.974 -20.851   0.854  0.00  0.00     0.197 HD
BRANCH  25  27
ATOM     27  O4  NON d   1      29.023 -22.219   2.419  0.00  0.00    -0.287 OA
ATOM     28  H21 NON d   1      29.283 -23.155   2.266  0.00  0.00     0.244 HD
ENDBRANCH  25  27
ENDBRANCH  22  23
ENDBRANCH  21  22
ENDBRANCH  20  21
ENDBRANCH  19  20
ENDBRANCH  18  19
ENDBRANCH  17  18
ENDBRANCH  14  17
ENDBRANCH  12  13
ENDBRANCH   8  11
ENDBRANCH   4   5
ENDBRANCH   3   4
TORSDOF 12
ENDMDL
MODEL 4
REMARK VINA RESULT:    -6.892      3.371      5.105
REMARK INTER + INTRA:         -13.557
REMARK INTER:                 -10.471
REMARK INTRA:                  -3.085
REMARK CONF_INDEPENDENT:        3.580
REMARK UNBOUND:                -3.085
REMARK  12 active torsions:
REMARK  status: ('A' for Active; 'I' for Inactive)
REMARK    1  A    between atoms: C3_3  and  O1_4 
REMARK    2  A    between atoms: O1_4  and  C4_5 
REMARK    3  A    between atoms: C7_8  and  C8_9 
REMARK    4  A    between atoms: N1_10  and  N2_11 
REMARK       I    between atoms: N2_11  and  C9_12 
REMARK    5  A    between atoms: C9_12  and  C10_14 
REMARK    6  A    between atoms: C10_14  and  C11_15 
REMARK    7  A    between atoms: C11_15  and  C12_16 
REMARK    8  A    between atoms: C12_16  and  C13_17 
REMARK    9  A    between atoms: C13_17  and  C14_18 
REMARK   10  A    between atoms: C14_18  and  C15_19 
REMARK   11  A    between atoms: C15_19  and  C16_20 
REMARK       I    between atoms: C16_20  and  N3_22 
REMARK   12  A    between atoms: N3_22  and  O4_23 
ROOT
ATOM      1  C1  NON d   1      18.896 -20.291   1.769  0.00  0.00     0.014 C 
ATOM      2  C2  NON d   1      19.418 -19.859   0.386  0.00  0.00    -0.091 C 
ATOM      3  C3  NON d   1      19.939 -19.427  -0.997  0.00  0.00     0.268 C 
ENDROOT
BRANCH   3   4
ATOM      4  O1  NON d   1      20.391 -18.085  -1.126  0.00  0.00    -0.340 OA
BRANCH   4   5
ATOM      5  C4  NON d   1      21.751 -17.964  -0.889  0.00  0.00     0.070 A 
ATOM      6  C5  NON d   1      22.254 -16.661  -0.838  0.00  0.00     0.037 A 
ATOM      7  C6  NON d   1      23.625 -16.428  -0.630  0.00  0.00     0.015 A 
ATOM      8  C7  NON d   1      24.497 -17.506  -0.457  0.00  0.00    -0.017 A 
ATOM      9  C17 NON d   1      24.001 -18.808  -0.486  0.00  0.00     0.015 A 
ATOM     10  C18 NON d   1      22.641 -19.033  -0.703  0.00  0.00     0.037 A 
BRANCH   8  11
ATOM     11  C8  NON d   1      25.950 -17.286  -0.284  0.00  0.00     0.150 C 
ATOM     12  N1  NON d   1      26.447 -16.093  -0.342  0.00  0.00    -0.184 NA
BRANCH  12  13
ATOM     13  N2  NON d   1      27.777 -15.965  -0.074  0.00  0.00    -0.247 N 
ATOM     14  C9  NON d   1      28.703 -16.393  -1.021  0.00  0.00     0.237 C 
ATOM     15  O2  NON d   1      28.436 -17.075  -2.006  0.00  0.00    -0.272 OA
ATOM     16  H7  NON d   1      28.073 -15.447   0.744  0.00  0.00     0.192 HD
BRANCH  14  17
ATOM     17  C10 NON d   1      30.110 -15.919  -0.691  0.00  0.00     0.105 C 
BRANCH  17  18
ATOM     18  C11 NON d   1      31.209 -16.504  -1.580  0.00  0.00     0.009 C 
BRANCH  18  19
ATOM     19  C12 NON d   1      31.267 -15.934  -3.007  0.00  0.00     0.000 C 
BRANCH  19  20
ATOM     20  C13 NON d   1      30.963 -16.953  -4.106  0.00  0.00     0.000 C 
BRANCH  20  21
ATOM     21  C14 NON d   1      29.657 -16.694  -4.871  0.00  0.00     0.009 C 
BRANCH  21  22
ATOM     22  C15 NON d   1      28.982 -15.365  -4.525  0.00  0.00     0.105 C 
BRANCH  22  23
ATOM     23  C16 NON d   1      27.479 -15.374  -4.702  0.00  0.00     0.240 C 
ATOM     24  O3  NON d   1      26.897 -15.200  -5.770  0.00  0.00    -0.271 OA
ATOM     25  N3  NON d   1      26.793 -15.560  -3.524  0.00  0.00    -0.237 N 
ATOM     26  H20 NON d   1      27.207 -15.417  -2.610  0.00  0.00     0.197 HD
BRANCH  25  27
ATOM     27  O4  NON d   1      25.385 -15.460  -3.611  0.00  0.00    -0.287 OA
ATOM     28  H21 NON d   1      25.265 -14.889  -4.403  0.00  0.00     0.244 HD
ENDBRANCH  25  27
ENDBRANCH  22  23
ENDBRANCH  21  22
ENDBRANCH  20  21
ENDBRANCH  19  20
ENDBRANCH  18  19
ENDBRANCH  17  18
ENDBRANCH  14  17
ENDBRANCH  12  13
ENDBRANCH   8  11
ENDBRANCH   4   5
ENDBRANCH   3   4
TORSDOF 12
ENDMDL
MODEL 5
REMARK VINA RESULT:    -6.803      2.945      3.905
REMARK INTER + INTRA:         -14.244
REMARK INTER:                 -10.383
REMARK INTRA:                  -3.861
REMARK CONF_INDEPENDENT:        3.580
REMARK UNBOUND:                -3.861
REMARK  12 active torsions:
REMARK  status: ('A' for Active; 'I' for Inactive)
REMARK    1  A    between atoms: C3_3  and  O1_4 
REMARK    2  A    between atoms: O1_4  and  C4_5 
REMARK    3  A    between atoms: C7_8  and  C8_9 
REMARK    4  A    between atoms: N1_10  and  N2_11 
REMARK       I    between atoms: N2_11  and  C9_12 
REMARK    5  A    between atoms: C9_12  and  C10_14 
REMARK    6  A    between atoms: C10_14  and  C11_15 
REMARK    7  A    between atoms: C11_15  and  C12_16 
REMARK    8  A    between atoms: C12_16  and  C13_17 
REMARK    9  A    between atoms: C13_17  and  C14_18 
REMARK   10  A    between atoms: C14_18  and  C15_19 
REMARK   11  A    between atoms: C15_19  and  C16_20 
REMARK       I    between atoms: C16_20  and  N3_22 
REMARK   12  A    between atoms: N3_22  and  O4_23 
ROOT
ATOM      1  C1  NON d   1      18.474 -20.245   1.628  0.00  0.00     0.014 C 
ATOM      2  C2  NON d   1      19.231 -19.775   0.372  0.00  0.00    -0.091 C 
ATOM      3  C3  NON d   1      19.988 -19.306  -0.884  0.00  0.00     0.268 C 
ENDROOT
BRANCH   3   4
ATOM      4  O1  NON d   1      20.410 -17.948  -0.913  0.00  0.00    -0.340 OA
BRANCH   4   5
ATOM      5  C4  NON d   1      21.777 -17.819  -0.725  0.00  0.00     0.070 A 
ATOM      6  C5  NON d   1      22.466 -18.990  -0.395  0.00  0.00     0.037 A 
ATOM      7  C6  NON d   1      23.851 -18.964  -0.155  0.00  0.00     0.015 A 
ATOM      8  C7  NON d   1      24.556 -17.762  -0.260  0.00  0.00    -0.017 A 
ATOM      9  C17 NON d   1      23.880 -16.594  -0.608  0.00  0.00     0.015 A 
ATOM     10  C18 NON d   1      22.503 -16.623  -0.834  0.00  0.00     0.037 A 
BRANCH   8  11
ATOM     11  C8  NON d   1      26.004 -17.703   0.033  0.00  0.00     0.150 C 
ATOM     12  N1  NON d   1      26.864 -17.564  -0.923  0.00  0.00    -0.184 NA
BRANCH  12  13
ATOM     13  N2  NON d   1      28.170 -17.419  -0.563  0.00  0.00    -0.247 N 
ATOM     14  C9  NON d   1      29.042 -16.759  -1.423  0.00  0.00     0.237 C 
ATOM     15  O2  NON d   1      28.791 -16.466  -2.589  0.00  0.00    -0.272 OA
ATOM     16  H7  NON d   1      28.460 -17.676   0.373  0.00  0.00     0.192 HD
BRANCH  14  17
ATOM     17  C10 NON d   1      30.368 -16.439  -0.750  0.00  0.00     0.105 C 
BRANCH  17  18
ATOM     18  C11 NON d   1      30.266 -15.496   0.451  0.00  0.00     0.009 C 
BRANCH  18  19
ATOM     19  C12 NON d   1      29.241 -14.359   0.303  0.00  0.00     0.000 C 
BRANCH  19  20
ATOM     20  C13 NON d   1      27.904 -14.619   0.999  0.00  0.00     0.000 C 
BRANCH  20  21
ATOM     21  C14 NON d   1      26.684 -14.586   0.067  0.00  0.00     0.009 C 
BRANCH  21  22
ATOM     22  C15 NON d   1      26.754 -13.510  -1.017  0.00  0.00     0.105 C 
BRANCH  22  23
ATOM     23  C16 NON d   1      26.018 -13.870  -2.290  0.00  0.00     0.240 C 
ATOM     24  O3  NON d   1      25.202 -13.147  -2.857  0.00  0.00    -0.271 OA
ATOM     25  N3  NON d   1      26.318 -15.129  -2.755  0.00  0.00    -0.237 N 
ATOM     26  H20 NON d   1      26.744 -15.848  -2.182  0.00  0.00     0.197 HD
BRANCH  25  27
ATOM     27  O4  NON d   1      25.572 -15.563  -3.876  0.00  0.00    -0.287 OA
ATOM     28  H21 NON d   1      25.176 -14.724  -4.200  0.00  0.00     0.244 HD
ENDBRANCH  25  27
ENDBRANCH  22  23
ENDBRANCH  21  22
ENDBRANCH  20  21
ENDBRANCH  19  20
ENDBRANCH  18  19
ENDBRANCH  17  18
ENDBRANCH  14  17
ENDBRANCH  12  13
ENDBRANCH   8  11
ENDBRANCH   4   5
ENDBRANCH   3   4
TORSDOF 12
ENDMDL
MODEL 6
REMARK VINA RESULT:    -6.241      2.281      3.490
REMARK INTER + INTRA:         -13.125
REMARK INTER:                  -9.821
REMARK INTRA:                  -3.304
REMARK CONF_INDEPENDENT:        3.580
REMARK UNBOUND:                -3.304
REMARK  12 active torsions:
REMARK  status: ('A' for Active; 'I' for Inactive)
REMARK    1  A    between atoms: C3_3  and  O1_4 
REMARK    2  A    between atoms: O1_4  and  C4_5 
REMARK    3  A    between atoms: C7_8  and  C8_9 
REMARK    4  A    between atoms: N1_10  and  N2_11 
REMARK       I    between atoms: N2_11  and  C9_12 
REMARK    5  A    between atoms: C9_12  and  C10_14 
REMARK    6  A    between atoms: C10_14  and  C11_15 
REMARK    7  A    between atoms: C11_15  and  C12_16 
REMARK    8  A    between atoms: C12_16  and  C13_17 
REMARK    9  A    between atoms: C13_17  and  C14_18 
REMARK   10  A    between atoms: C14_18  and  C15_19 
REMARK   11  A    between atoms: C15_19  and  C16_20 
REMARK       I    between atoms: C16_20  and  N3_22 
REMARK   12  A    between atoms: N3_22  and  O4_23 
ROOT
ATOM      1  C1  NON d   1      19.434 -19.355  -0.732  0.00  0.00     0.014 C 
ATOM      2  C2  NON d   1      20.969 -19.299  -0.615  0.00  0.00    -0.091 C 
ATOM      3  C3  NON d   1      22.503 -19.242  -0.498  0.00  0.00     0.268 C 
ENDROOT
BRANCH   3   4
ATOM      4  O1  NON d   1      23.201 -18.528  -1.510  0.00  0.00    -0.340 OA
BRANCH   4   5
ATOM      5  C4  NON d   1      24.279 -17.820  -1.004  0.00  0.00     0.070 A 
ATOM      6  C5  NON d   1      25.143 -18.530  -0.164  0.00  0.00     0.037 A 
ATOM      7  C6  NON d   1      26.252 -17.899   0.426  0.00  0.00     0.015 A 
ATOM      8  C7  NON d   1      26.509 -16.551   0.162  0.00  0.00    -0.017 A 
ATOM      9  C17 NON d   1      25.665 -15.840  -0.689  0.00  0.00     0.015 A 
ATOM     10  C18 NON d   1      24.559 -16.469  -1.263  0.00  0.00     0.037 A 
BRANCH   8  11
ATOM     11  C8  NON d   1      27.643 -15.854   0.808  0.00  0.00     0.150 C 
ATOM     12  N1  NON d   1      27.479 -14.691   1.349  0.00  0.00    -0.184 NA
BRANCH  12  13
ATOM     13  N2  NON d   1      28.547 -14.161   2.008  0.00  0.00    -0.247 N 
ATOM     14  C9  NON d   1      29.005 -12.896   1.651  0.00  0.00     0.237 C 
ATOM     15  O2  NON d   1      28.661 -12.283   0.644  0.00  0.00    -0.272 OA
ATOM     16  H7  NON d   1      28.911 -14.631   2.828  0.00  0.00     0.192 HD
BRANCH  14  17
ATOM     17  C10 NON d   1      30.001 -12.347   2.661  0.00  0.00     0.105 C 
BRANCH  17  18
ATOM     18  C11 NON d   1      29.732 -10.910   3.110  0.00  0.00     0.009 C 
BRANCH  18  19
ATOM     19  C12 NON d   1      28.320 -10.650   3.661  0.00  0.00     0.000 C 
BRANCH  19  20
ATOM     20  C13 NON d   1      27.794 -11.745   4.590  0.00  0.00     0.000 C 
BRANCH  20  21
ATOM     21  C14 NON d   1      28.633 -11.959   5.859  0.00  0.00     0.009 C 
BRANCH  21  22
ATOM     22  C15 NON d   1      28.682 -13.410   6.339  0.00  0.00     0.105 C 
BRANCH  22  23
ATOM     23  C16 NON d   1      29.042 -14.405   5.256  0.00  0.00     0.240 C 
ATOM     24  O3  NON d   1      28.292 -15.280   4.831  0.00  0.00    -0.271 OA
ATOM     25  N3  NON d   1      30.333 -14.270   4.800  0.00  0.00    -0.237 N 
ATOM     26  H20 NON d   1      31.056 -13.776   5.310  0.00  0.00     0.197 HD
BRANCH  25  27
ATOM     27  O4  NON d   1      30.761 -15.248   3.872  0.00  0.00    -0.287 OA
ATOM     28  H21 NON d   1      30.079 -15.949   3.979  0.00  0.00     0.244 HD
ENDBRANCH  25  27
ENDBRANCH  22  23
ENDBRANCH  21  22
ENDBRANCH  20  21
ENDBRANCH  19  20
ENDBRANCH  18  19
ENDBRANCH  17  18
ENDBRANCH  14  17
ENDBRANCH  12  13
ENDBRANCH   8  11
ENDBRANCH   4   5
ENDBRANCH   3   4
TORSDOF 12
ENDMDL
MODEL 7
REMARK VINA RESULT:    -6.130      1.538      1.864
REMARK INTER + INTRA:         -12.628
REMARK INTER:                  -9.710
REMARK INTRA:                  -2.918
REMARK CONF_INDEPENDENT:        3.580
REMARK UNBOUND:                -2.918
REMARK  12 active torsions:
REMARK  status: ('A' for Active; 'I' for Inactive)
REMARK    1  A    between atoms: C3_3  and  O1_4 
REMARK    2  A    between atoms: O1_4  and  C4_5 
REMARK    3  A    between atoms: C7_8  and  C8_9 
REMARK    4  A    between atoms: N1_10  and  N2_11 
REMARK       I    between atoms: N2_11  and  C9_12 
REMARK    5  A    between atoms: C9_12  and  C10_14 
REMARK    6  A    between atoms: C10_14  and  C11_15 
REMARK    7  A    between atoms: C11_15  and  C12_16 
REMARK    8  A    between atoms: C12_16  and  C13_17 
REMARK    9  A    between atoms: C13_17  and  C14_18 
REMARK   10  A    between atoms: C14_18  and  C15_19 
REMARK   11  A    between atoms: C15_19  and  C16_20 
REMARK       I    between atoms: C16_20  and  N3_22 
REMARK   12  A    between atoms: N3_22  and  O4_23 
ROOT
ATOM      1  C1  NON d   1      18.444 -20.705   1.542  0.00  0.00     0.014 C 
ATOM      2  C2  NON d   1      19.362 -20.283   0.380  0.00  0.00    -0.091 C 
ATOM      3  C3  NON d   1      20.280 -19.860  -0.782  0.00  0.00     0.268 C 
ENDROOT
BRANCH   3   4
ATOM      4  O1  NON d   1      20.512 -18.467  -0.947  0.00  0.00    -0.340 OA
BRANCH   4   5
ATOM      5  C4  NON d   1      21.839 -18.128  -0.743  0.00  0.00     0.070 A 
ATOM      6  C5  NON d   1      22.151 -16.768  -0.842  0.00  0.00     0.037 A 
ATOM      7  C6  NON d   1      23.473 -16.321  -0.680  0.00  0.00     0.015 A 
ATOM      8  C7  NON d   1      24.491 -17.238  -0.401  0.00  0.00    -0.017 A 
ATOM      9  C17 NON d   1      24.187 -18.592  -0.281  0.00  0.00     0.015 A 
ATOM     10  C18 NON d   1      22.873 -19.032  -0.454  0.00  0.00     0.037 A 
BRANCH   8  11
ATOM     11  C8  NON d   1      25.897 -16.796  -0.273  0.00  0.00     0.150 C 
ATOM     12  N1  NON d   1      26.786 -17.573   0.256  0.00  0.00    -0.184 NA
BRANCH  12  13
ATOM     13  N2  NON d   1      28.075 -17.131   0.249  0.00  0.00    -0.247 N 
ATOM     14  C9  NON d   1      28.663 -16.776  -0.962  0.00  0.00     0.237 C 
ATOM     15  O2  NON d   1      28.192 -17.018  -2.069  0.00  0.00    -0.272 OA
ATOM     16  H7  NON d   1      28.542 -16.944   1.127  0.00  0.00     0.192 HD
BRANCH  14  17
ATOM     17  C10 NON d   1      29.981 -16.044  -0.758  0.00  0.00     0.105 C 
BRANCH  17  18
ATOM     18  C11 NON d   1      30.125 -14.748  -1.558  0.00  0.00     0.009 C 
BRANCH  18  19
ATOM     19  C12 NON d   1      28.835 -14.249  -2.230  0.00  0.00     0.000 C 
BRANCH  19  20
ATOM     20  C13 NON d   1      27.717 -13.882  -1.254  0.00  0.00     0.000 C 
BRANCH  20  21
ATOM     21  C14 NON d   1      28.085 -12.781  -0.249  0.00  0.00     0.009 C 
BRANCH  21  22
ATOM     22  C15 NON d   1      27.580 -13.035   1.172  0.00  0.00     0.105 C 
BRANCH  22  23
ATOM     23  C16 NON d   1      28.298 -14.158   1.889  0.00  0.00     0.240 C 
ATOM     24  O3  NON d   1      27.786 -15.229   2.205  0.00  0.00    -0.271 OA
ATOM     25  N3  NON d   1      29.603 -13.858   2.202  0.00  0.00    -0.237 N 
ATOM     26  H20 NON d   1      29.968 -12.912   2.225  0.00  0.00     0.197 HD
BRANCH  25  27
ATOM     27  O4  NON d   1      30.287 -14.825   2.976  0.00  0.00    -0.287 OA
ATOM     28  H21 NON d   1      29.551 -15.391   3.299  0.00  0.00     0.244 HD
ENDBRANCH  25  27
ENDBRANCH  22  23
ENDBRANCH  21  22
ENDBRANCH  20  21
ENDBRANCH  19  20
ENDBRANCH  18  19
ENDBRANCH  17  18
ENDBRANCH  14  17
ENDBRANCH  12  13
ENDBRANCH   8  11
ENDBRANCH   4   5
ENDBRANCH   3   4
TORSDOF 12
ENDMDL
MODEL 8
REMARK VINA RESULT:    -5.684      3.852      5.126
REMARK INTER + INTRA:         -12.691
REMARK INTER:                  -9.264
REMARK INTRA:                  -3.427
REMARK CONF_INDEPENDENT:        3.580
REMARK UNBOUND:                -3.427
REMARK  12 active torsions:
REMARK  status: ('A' for Active; 'I' for Inactive)
REMARK    1  A    between atoms: C3_3  and  O1_4 
REMARK    2  A    between atoms: O1_4  and  C4_5 
REMARK    3  A    between atoms: C7_8  and  C8_9 
REMARK    4  A    between atoms: N1_10  and  N2_11 
REMARK       I    between atoms: N2_11  and  C9_12 
REMARK    5  A    between atoms: C9_12  and  C10_14 
REMARK    6  A    between atoms: C10_14  and  C11_15 
REMARK    7  A    between atoms: C11_15  and  C12_16 
REMARK    8  A    between atoms: C12_16  and  C13_17 
REMARK    9  A    between atoms: C13_17  and  C14_18 
REMARK   10  A    between atoms: C14_18  and  C15_19 
REMARK   11  A    between atoms: C15_19  and  C16_20 
REMARK       I    between atoms: C16_20  and  N3_22 
REMARK   12  A    between atoms: N3_22  and  O4_23 
ROOT
ATOM      1  C1  NON d   1      18.142 -21.201   0.955  0.00  0.00     0.014 C 
ATOM      2  C2  NON d   1      19.224 -20.257   0.398  0.00  0.00    -0.091 C 
ATOM      3  C3  NON d   1      20.306 -19.313  -0.159  0.00  0.00     0.268 C 
ENDROOT
BRANCH   3   4
ATOM      4  O1  NON d   1      21.403 -19.014   0.696  0.00  0.00    -0.340 OA
BRANCH   4   5
ATOM      5  C4  NON d   1      22.440 -18.393   0.019  0.00  0.00     0.070 A 
ATOM      6  C5  NON d   1      22.152 -17.143  -0.538  0.00  0.00     0.037 A 
ATOM      7  C6  NON d   1      23.126 -16.441  -1.269  0.00  0.00     0.015 A 
ATOM      8  C7  NON d   1      24.403 -16.985  -1.432  0.00  0.00    -0.017 A 
ATOM      9  C17 NON d   1      24.705 -18.221  -0.863  0.00  0.00     0.015 A 
ATOM     10  C18 NON d   1      23.731 -18.919  -0.147  0.00  0.00     0.037 A 
BRANCH   8  11
ATOM     11  C8  NON d   1      25.429 -16.286  -2.236  0.00  0.00     0.150 C 
ATOM     12  N1  NON d   1      25.312 -15.025  -2.499  0.00  0.00    -0.184 NA
BRANCH  12  13
ATOM     13  N2  NON d   1      26.347 -14.434  -3.160  0.00  0.00    -0.247 N 
ATOM     14  C9  NON d   1      26.518 -14.689  -4.518  0.00  0.00     0.237 C 
ATOM     15  O2  NON d   1      25.937 -15.570  -5.146  0.00  0.00    -0.272 OA
ATOM     16  H7  NON d   1      26.896 -13.723  -2.693  0.00  0.00     0.192 HD
BRANCH  14  17
ATOM     17  C10 NON d   1      27.526 -13.741  -5.150  0.00  0.00     0.105 C 
BRANCH  17  18
ATOM     18  C11 NON d   1      28.245 -14.297  -6.380  0.00  0.00     0.009 C 
BRANCH  18  19
ATOM     19  C12 NON d   1      29.676 -14.801  -6.127  0.00  0.00     0.000 C 
BRANCH  19  20
ATOM     20  C13 NON d   1      29.798 -16.321  -6.010  0.00  0.00     0.000 C 
BRANCH  20  21
ATOM     21  C14 NON d   1      30.030 -16.832  -4.581  0.00  0.00     0.009 C 
BRANCH  21  22
ATOM     22  C15 NON d   1      30.133 -15.726  -3.529  0.00  0.00     0.105 C 
BRANCH  22  23
ATOM     23  C16 NON d   1      29.027 -15.755  -2.496  0.00  0.00     0.240 C 
ATOM     24  O3  NON d   1      28.275 -16.706  -2.299  0.00  0.00    -0.271 OA
ATOM     25  N3  NON d   1      28.904 -14.576  -1.797  0.00  0.00    -0.237 N 
ATOM     26  H20 NON d   1      29.292 -13.696  -2.116  0.00  0.00     0.197 HD
BRANCH  25  27
ATOM     27  O4  NON d   1      27.811 -14.506  -0.900  0.00  0.00    -0.287 OA
ATOM     28  H21 NON d   1      27.158 -15.108  -1.321  0.00  0.00     0.244 HD
ENDBRANCH  25  27
ENDBRANCH  22  23
ENDBRANCH  21  22
ENDBRANCH  20  21
ENDBRANCH  19  20
ENDBRANCH  18  19
ENDBRANCH  17  18
ENDBRANCH  14  17
ENDBRANCH  12  13
ENDBRANCH   8  11
ENDBRANCH   4   5
ENDBRANCH   3   4
TORSDOF 12
ENDMDL
MODEL 9
REMARK VINA RESULT:    -5.628      3.961      5.571
REMARK INTER + INTRA:         -12.715
REMARK INTER:                  -9.208
REMARK INTRA:                  -3.507
REMARK CONF_INDEPENDENT:        3.580
REMARK UNBOUND:                -3.507
REMARK  12 active torsions:
REMARK  status: ('A' for Active; 'I' for Inactive)
REMARK    1  A    between atoms: C3_3  and  O1_4 
REMARK    2  A    between atoms: O1_4  and  C4_5 
REMARK    3  A    between atoms: C7_8  and  C8_9 
REMARK    4  A    between atoms: N1_10  and  N2_11 
REMARK       I    between atoms: N2_11  and  C9_12 
REMARK    5  A    between atoms: C9_12  and  C10_14 
REMARK    6  A    between atoms: C10_14  and  C11_15 
REMARK    7  A    between atoms: C11_15  and  C12_16 
REMARK    8  A    between atoms: C12_16  and  C13_17 
REMARK    9  A    between atoms: C13_17  and  C14_18 
REMARK   10  A    between atoms: C14_18  and  C15_19 
REMARK   11  A    between atoms: C15_19  and  C16_20 
REMARK       I    between atoms: C16_20  and  N3_22 
REMARK   12  A    between atoms: N3_22  and  O4_23 
ROOT
ATOM      1  C1  NON d   1      18.189 -21.211   0.791  0.00  0.00     0.014 C 
ATOM      2  C2  NON d   1      19.282 -20.288   0.220  0.00  0.00    -0.091 C 
ATOM      3  C3  NON d   1      20.374 -19.366  -0.351  0.00  0.00     0.268 C 
ENDROOT
BRANCH   3   4
ATOM      4  O1  NON d   1      21.469 -19.057   0.503  0.00  0.00    -0.340 OA
BRANCH   4   5
ATOM      5  C4  NON d   1      22.393 -18.226  -0.109  0.00  0.00     0.070 A 
ATOM      6  C5  NON d   1      23.664 -18.769  -0.321  0.00  0.00     0.037 A 
ATOM      7  C6  NON d   1      24.684 -18.002  -0.909  0.00  0.00     0.015 A 
ATOM      8  C7  NON d   1      24.428 -16.686  -1.303  0.00  0.00    -0.017 A 
ATOM      9  C17 NON d   1      23.159 -16.143  -1.115  0.00  0.00     0.015 A 
ATOM     10  C18 NON d   1      22.153 -16.906  -0.520  0.00  0.00     0.037 A 
BRANCH   8  11
ATOM     11  C8  NON d   1      25.499 -15.845  -1.882  0.00  0.00     0.150 C 
ATOM     12  N1  NON d   1      26.602 -16.378  -2.297  0.00  0.00    -0.184 NA
BRANCH  12  13
ATOM     13  N2  NON d   1      27.497 -15.549  -2.906  0.00  0.00    -0.247 N 
ATOM     14  C9  NON d   1      28.855 -15.707  -2.644  0.00  0.00     0.237 C 
ATOM     15  O2  NON d   1      29.320 -16.401  -1.745  0.00  0.00    -0.272 OA
ATOM     16  H7  NON d   1      27.178 -14.921  -3.633  0.00  0.00     0.192 HD
BRANCH  14  17
ATOM     17  C10 NON d   1      29.714 -14.907  -3.611  0.00  0.00     0.105 C 
BRANCH  17  18
ATOM     18  C11 NON d   1      30.525 -13.781  -2.965  0.00  0.00     0.009 C 
BRANCH  18  19
ATOM     19  C12 NON d   1      29.913 -12.377  -3.097  0.00  0.00     0.000 C 
BRANCH  19  20
ATOM     20  C13 NON d   1      28.416 -12.367  -3.407  0.00  0.00     0.000 C 
BRANCH  20  21
ATOM     21  C14 NON d   1      28.054 -11.787  -4.782  0.00  0.00     0.009 C 
BRANCH  21  22
ATOM     22  C15 NON d   1      27.919 -12.834  -5.888  0.00  0.00     0.105 C 
BRANCH  22  23
ATOM     23  C16 NON d   1      27.131 -14.061  -5.481  0.00  0.00     0.240 C 
ATOM     24  O3  NON d   1      27.434 -15.216  -5.766  0.00  0.00    -0.271 OA
ATOM     25  N3  NON d   1      25.988 -13.764  -4.774  0.00  0.00    -0.237 N 
ATOM     26  H20 NON d   1      25.557 -12.847  -4.770  0.00  0.00     0.197 HD
BRANCH  25  27
ATOM     27  O4  NON d   1      25.153 -14.864  -4.469  0.00  0.00    -0.287 OA
ATOM     28  H21 NON d   1      25.804 -15.556  -4.215  0.00  0.00     0.244 HD
ENDBRANCH  25  27
ENDBRANCH  22  23
ENDBRANCH  21  22
ENDBRANCH  20  21
ENDBRANCH  19  20
ENDBRANCH  18  19
ENDBRANCH  17  18
ENDBRANCH  14  17
ENDBRANCH  12  13
ENDBRANCH   8  11
ENDBRANCH   4   5
ENDBRANCH   3   4
TORSDOF 12
ENDMDL
