MODEL 1
REMARK VINA RESULT:   -16.987      0.000      0.000
REMARK INTER + INTRA:         -20.909
REMARK INTER:                 -19.075
REMARK INTRA:                  -1.834
REMARK CONF_INDEPENDENT:        2.088
REMARK UNBOUND:                -1.834
REMARK  7 active torsions:
REMARK  status: ('A' for Active; 'I' for Inactive)
REMARK    1  A    between atoms: C2_2  and  N1_3 
REMARK       I    between atoms: N2_6  and  C5_7 
REMARK       I    between atoms: C5_7  and  N3_9 
REMARK    2  A    between atoms: N3_9  and  C6_10 
REMARK    3  A    between atoms: C6_10  and  C7_11 
REMARK    4  A    between atoms: C10_14  and  C11_15 
REMARK       I    between atoms: C11_15  and  N4_17 
REMARK    5  A    between atoms: N4_17  and  C12_18 
REMARK    6  A    between atoms: C14_20  and  C15_21 
REMARK    7  A    between atoms: C21_28  and  N5_29 
ROOT
ATOM      1  C7  NON d   1      26.101 -16.308  -1.337  0.00  0.00    -0.040 A 
ATOM      2  C8  NON d   1      25.982 -17.434  -0.486  0.00  0.00     0.010 A 
ATOM      3  C9  NON d   1      24.731 -17.984  -0.122  0.00  0.00     0.017 A 
ATOM      4  C10 NON d   1      23.555 -17.412  -0.604  0.00  0.00     0.032 A 
ATOM      5  C22 NON d   1      23.671 -16.307  -1.472  0.00  0.00     0.017 A 
ATOM      6  C23 NON d   1      24.918 -15.766  -1.839  0.00  0.00     0.010 A 
ENDROOT
BRANCH   4   7
ATOM      7  C11 NON d   1      22.163 -17.830  -0.213  0.00  0.00     0.256 C 
ATOM      8  O2  NON d   1      21.253 -17.372  -0.903  0.00  0.00    -0.267 OA
ATOM      9  N4  NON d   1      21.971 -18.665   0.886  0.00  0.00    -0.321 N 
ATOM     10  H15 NON d   1      22.757 -18.817   1.500  0.00  0.00     0.169 HD
BRANCH   9  11
ATOM     11  C12 NON d   1      20.727 -19.266   1.303  0.00  0.00     0.057 A 
ATOM     12  C13 NON d   1      20.642 -19.709   2.652  0.00  0.00     0.044 A 
ATOM     13  C14 NON d   1      19.475 -20.312   3.189  0.00  0.00    -0.017 A 
ATOM     14  C19 NON d   1      18.395 -20.493   2.319  0.00  0.00     0.014 A 
ATOM     15  C20 NON d   1      18.469 -20.104   0.986  0.00  0.00     0.026 A 
ATOM     16  C21 NON d   1      19.602 -19.462   0.467  0.00  0.00     0.033 A 
BRANCH  13  17
ATOM     17  C15 NON d   1      19.391 -20.752   4.612  0.00  0.00     0.015 A 
ATOM     18  C16 NON d   1      18.935 -20.075   5.732  0.00  0.00     0.020 A 
ATOM     19  C17 NON d   1      19.016 -20.839   6.938  0.00  0.00     0.008 A 
ATOM     20  C18 NON d   1      19.531 -22.094   6.723  0.00  0.00     0.050 A 
ATOM     21  S1  NON d   1      19.903 -22.345   5.083  0.00  0.00    -0.101 SA
ENDBRANCH  13  17
BRANCH  16  22
ATOM     22  N5  NON d   1      19.629 -19.325  -0.938  0.00  0.00    -0.301 NA
ATOM     23  H22 NON d   1      20.562 -19.558  -1.293  0.00  0.00     0.124 HD
ATOM     24  H23 NON d   1      19.387 -18.390  -1.248  0.00  0.00     0.124 HD
ENDBRANCH  16  22
ENDBRANCH   9  11
ENDBRANCH   4   7
BRANCH   1  25
ATOM     25  C6  NON d   1      27.490 -15.759  -1.635  0.00  0.00     0.162 C 
BRANCH  25  26
ATOM     26  N3  NON d   1      27.720 -15.045  -2.889  0.00  0.00    -0.338 N 
ATOM     27  C5  NON d   1      28.844 -15.327  -3.641  0.00  0.00     0.325 C 
ATOM     28  N2  NON d   1      29.087 -14.536  -4.780  0.00  0.00    -0.260 N 
ATOM     29  O1  NON d   1      29.591 -16.259  -3.333  0.00  0.00    -0.247 OA
ATOM     30  C4  NON d   1      30.162 -15.010  -5.642  0.00  0.00     0.157 C 
ATOM     31  C24 NON d   1      28.282 -13.476  -5.206  0.00  0.00     0.319 C 
ATOM     32  C3  NON d   1      30.696 -14.005  -6.656  0.00  0.00     0.146 C 
ATOM     33  N1  NON d   1      29.669 -13.256  -7.353  0.00  0.00    -0.343 N 
ATOM     34  C25 NON d   1      28.613 -12.767  -6.556  0.00  0.00     0.312 C 
ATOM     35  O4  NON d   1      27.918 -11.805  -6.865  0.00  0.00    -0.262 OA
ATOM     36  O3  NON d   1      27.337 -13.049  -4.543  0.00  0.00    -0.262 OA
ATOM     37  H10 NON d   1      27.280 -14.142  -3.047  0.00  0.00     0.164 HD
BRANCH  33  38
ATOM     38  C2  NON d   1      30.085 -12.580  -8.636  0.00  0.00     0.122 C 
ATOM     39  C1  NON d   1      28.897 -12.117  -9.500  0.00  0.00     0.026 C 
ENDBRANCH  33  38
ENDBRANCH  25  26
ENDBRANCH   1  25
TORSDOF 7
ENDMDL
MODEL 2
REMARK VINA RESULT:   -16.881      1.442      2.261
REMARK INTER + INTRA:         -20.048
REMARK INTER:                 -18.969
REMARK INTRA:                  -1.079
REMARK CONF_INDEPENDENT:        2.088
REMARK UNBOUND:                -1.079
REMARK  7 active torsions:
REMARK  status: ('A' for Active; 'I' for Inactive)
REMARK    1  A    between atoms: C2_2  and  N1_3 
REMARK       I    between atoms: N2_6  and  C5_7 
REMARK       I    between atoms: C5_7  and  N3_9 
REMARK    2  A    between atoms: N3_9  and  C6_10 
REMARK    3  A    between atoms: C6_10  and  C7_11 
REMARK    4  A    between atoms: C10_14  and  C11_15 
REMARK       I    between atoms: C11_15  and  N4_17 
REMARK    5  A    between atoms: N4_17  and  C12_18 
REMARK    6  A    between atoms: C14_20  and  C15_21 
REMARK    7  A    between atoms: C21_28  and  N5_29 
ROOT
ATOM      1  C7  NON d   1      26.226 -16.340  -1.082  0.00  0.00    -0.040 A 
ATOM      2  C8  NON d   1      26.112 -17.194   0.041  0.00  0.00     0.010 A 
ATOM      3  C9  NON d   1      24.968 -17.990   0.279  0.00  0.00     0.017 A 
ATOM      4  C10 NON d   1      23.898 -17.950  -0.612  0.00  0.00     0.032 A 
ATOM      5  C22 NON d   1      24.019 -17.120  -1.746  0.00  0.00     0.017 A 
ATOM      6  C23 NON d   1      25.162 -16.334  -1.984  0.00  0.00     0.010 A 
ENDROOT
BRANCH   4   7
ATOM      7  C11 NON d   1      22.585 -18.662  -0.424  0.00  0.00     0.256 C 
ATOM      8  O2  NON d   1      22.234 -19.392  -1.350  0.00  0.00    -0.267 OA
ATOM      9  N4  NON d   1      21.842 -18.454   0.736  0.00  0.00    -0.321 N 
ATOM     10  H15 NON d   1      22.114 -17.689   1.335  0.00  0.00     0.169 HD
BRANCH   9  11
ATOM     11  C12 NON d   1      20.645 -19.159   1.129  0.00  0.00     0.057 A 
ATOM     12  C13 NON d   1      20.570 -19.604   2.478  0.00  0.00     0.044 A 
ATOM     13  C14 NON d   1      19.448 -20.305   2.994  0.00  0.00    -0.017 A 
ATOM     14  C19 NON d   1      18.407 -20.582   2.100  0.00  0.00     0.014 A 
ATOM     15  C20 NON d   1      18.477 -20.192   0.767  0.00  0.00     0.026 A 
ATOM     16  C21 NON d   1      19.560 -19.456   0.270  0.00  0.00     0.033 A 
BRANCH  13  17
ATOM     17  C15 NON d   1      19.372 -20.746   4.416  0.00  0.00     0.015 A 
ATOM     18  C16 NON d   1      18.910 -20.075   5.537  0.00  0.00     0.020 A 
ATOM     19  C17 NON d   1      19.003 -20.838   6.743  0.00  0.00     0.008 A 
ATOM     20  C18 NON d   1      19.531 -22.088   6.526  0.00  0.00     0.050 A 
ATOM     21  S1  NON d   1      19.903 -22.334   4.886  0.00  0.00    -0.101 SA
ENDBRANCH  13  17
BRANCH  16  22
ATOM     22  N5  NON d   1      19.607 -19.321  -1.135  0.00  0.00    -0.301 NA
ATOM     23  H22 NON d   1      19.783 -18.343  -1.386  0.00  0.00     0.124 HD
ATOM     24  H23 NON d   1      18.752 -19.624  -1.588  0.00  0.00     0.124 HD
ENDBRANCH  16  22
ENDBRANCH   9  11
ENDBRANCH   4   7
BRANCH   1  25
ATOM     25  C6  NON d   1      27.479 -15.485  -1.228  0.00  0.00     0.162 C 
BRANCH  25  26
ATOM     26  N3  NON d   1      28.418 -15.776  -2.310  0.00  0.00    -0.338 N 
ATOM     27  C5  NON d   1      28.447 -14.964  -3.427  0.00  0.00     0.325 C 
ATOM     28  N2  NON d   1      29.283 -15.346  -4.494  0.00  0.00    -0.260 N 
ATOM     29  O1  NON d   1      27.781 -13.927  -3.470  0.00  0.00    -0.247 OA
ATOM     30  C4  NON d   1      29.431 -14.351  -5.548  0.00  0.00     0.157 C 
ATOM     31  C24 NON d   1      30.080 -16.493  -4.516  0.00  0.00     0.319 C 
ATOM     32  C3  NON d   1      30.006 -14.856  -6.866  0.00  0.00     0.146 C 
ATOM     33  N1  NON d   1      31.149 -15.735  -6.722  0.00  0.00    -0.343 N 
ATOM     34  C25 NON d   1      31.046 -16.723  -5.720  0.00  0.00     0.312 C 
ATOM     35  O4  NON d   1      31.686 -17.769  -5.729  0.00  0.00    -0.262 OA
ATOM     36  O3  NON d   1      30.030 -17.356  -3.640  0.00  0.00    -0.262 OA
ATOM     37  H10 NON d   1      28.793 -16.715  -2.418  0.00  0.00     0.164 HD
BRANCH  33  38
ATOM     38  C2  NON d   1      32.013 -15.920  -7.945  0.00  0.00     0.122 C 
ATOM     39  C1  NON d   1      32.411 -14.596  -8.623  0.00  0.00     0.026 C 
ENDBRANCH  33  38
ENDBRANCH  25  26
ENDBRANCH   1  25
TORSDOF 7
ENDMDL
MODEL 3
REMARK VINA RESULT:   -16.624      2.593      3.160
REMARK INTER + INTRA:         -20.673
REMARK INTER:                 -18.712
REMARK INTRA:                  -1.962
REMARK CONF_INDEPENDENT:        2.088
REMARK UNBOUND:                -1.962
REMARK  7 active torsions:
REMARK  status: ('A' for Active; 'I' for Inactive)
REMARK    1  A    between atoms: C2_2  and  N1_3 
REMARK       I    between atoms: N2_6  and  C5_7 
REMARK       I    between atoms: C5_7  and  N3_9 
REMARK    2  A    between atoms: N3_9  and  C6_10 
REMARK    3  A    between atoms: C6_10  and  C7_11 
REMARK    4  A    between atoms: C10_14  and  C11_15 
REMARK       I    between atoms: C11_15  and  N4_17 
REMARK    5  A    between atoms: N4_17  and  C12_18 
REMARK    6  A    between atoms: C14_20  and  C15_21 
REMARK    7  A    between atoms: C21_28  and  N5_29 
ROOT
ATOM      1  C7  NON d   1      26.124 -16.389  -1.403  0.00  0.00    -0.040 A 
ATOM      2  C8  NON d   1      25.972 -17.125  -0.203  0.00  0.00     0.010 A 
ATOM      3  C9  NON d   1      24.730 -17.662   0.209  0.00  0.00     0.017 A 
ATOM      4  C10 NON d   1      23.597 -17.473  -0.580  0.00  0.00     0.032 A 
ATOM      5  C22 NON d   1      23.751 -16.763  -1.789  0.00  0.00     0.017 A 
ATOM      6  C23 NON d   1      24.990 -16.236  -2.200  0.00  0.00     0.010 A 
ENDROOT
BRANCH   4   7
ATOM      7  C11 NON d   1      22.202 -17.897  -0.210  0.00  0.00     0.256 C 
ATOM      8  O2  NON d   1      21.307 -17.509  -0.960  0.00  0.00    -0.267 OA
ATOM      9  N4  NON d   1      21.988 -18.662   0.935  0.00  0.00    -0.321 N 
ATOM     10  H15 NON d   1      22.755 -18.754   1.586  0.00  0.00     0.169 HD
BRANCH   9  11
ATOM     11  C12 NON d   1      20.743 -19.264   1.348  0.00  0.00     0.057 A 
ATOM     12  C13 NON d   1      20.655 -19.707   2.696  0.00  0.00     0.044 A 
ATOM     13  C14 NON d   1      19.486 -20.312   3.231  0.00  0.00    -0.017 A 
ATOM     14  C19 NON d   1      18.409 -20.494   2.356  0.00  0.00     0.014 A 
ATOM     15  C20 NON d   1      18.487 -20.104   1.024  0.00  0.00     0.026 A 
ATOM     16  C21 NON d   1      19.621 -19.462   0.508  0.00  0.00     0.033 A 
BRANCH  13  17
ATOM     17  C15 NON d   1      19.399 -20.752   4.653  0.00  0.00     0.015 A 
ATOM     18  C16 NON d   1      18.943 -20.075   5.772  0.00  0.00     0.020 A 
ATOM     19  C17 NON d   1      19.020 -20.839   6.978  0.00  0.00     0.008 A 
ATOM     20  C18 NON d   1      19.530 -22.097   6.763  0.00  0.00     0.050 A 
ATOM     21  S1  NON d   1      19.904 -22.348   5.124  0.00  0.00    -0.101 SA
ENDBRANCH  13  17
BRANCH  16  22
ATOM     22  N5  NON d   1      19.653 -19.324  -0.897  0.00  0.00    -0.301 NA
ATOM     23  H22 NON d   1      20.586 -19.559  -1.249  0.00  0.00     0.124 HD
ATOM     24  H23 NON d   1      19.414 -18.389  -1.206  0.00  0.00     0.124 HD
ENDBRANCH  16  22
ENDBRANCH   9  11
ENDBRANCH   4   7
BRANCH   1  25
ATOM     25  C6  NON d   1      27.493 -15.810  -1.739  0.00  0.00     0.162 C 
BRANCH  25  26
ATOM     26  N3  NON d   1      28.251 -16.374  -2.853  0.00  0.00    -0.338 N 
ATOM     27  C5  NON d   1      29.384 -17.124  -2.600  0.00  0.00     0.325 C 
ATOM     28  N2  NON d   1      30.149 -17.550  -3.702  0.00  0.00    -0.260 N 
ATOM     29  O1  NON d   1      29.692 -17.428  -1.445  0.00  0.00    -0.247 OA
ATOM     30  C4  NON d   1      31.204 -18.505  -3.388  0.00  0.00     0.157 C 
ATOM     31  C24 NON d   1      29.857 -17.264  -5.038  0.00  0.00     0.319 C 
ATOM     32  C3  NON d   1      32.270 -18.697  -4.460  0.00  0.00     0.146 C 
ATOM     33  N1  NON d   1      31.748 -18.819  -5.807  0.00  0.00    -0.343 N 
ATOM     34  C25 NON d   1      30.732 -17.906  -6.160  0.00  0.00     0.312 C 
ATOM     35  O4  NON d   1      30.479 -17.584  -7.317  0.00  0.00    -0.262 OA
ATOM     36  O3  NON d   1      28.957 -16.494  -5.373  0.00  0.00    -0.262 OA
ATOM     37  H10 NON d   1      28.174 -15.963  -3.780  0.00  0.00     0.164 HD
BRANCH  33  38
ATOM     38  C2  NON d   1      32.672 -19.426  -6.834  0.00  0.00     0.122 C 
ATOM     39  C1  NON d   1      31.957 -20.356  -7.831  0.00  0.00     0.026 C 
ENDBRANCH  33  38
ENDBRANCH  25  26
ENDBRANCH   1  25
TORSDOF 7
ENDMDL
MODEL 4
REMARK VINA RESULT:   -16.551      4.020      6.137
REMARK INTER + INTRA:         -20.567
REMARK INTER:                 -18.639
REMARK INTRA:                  -1.928
REMARK CONF_INDEPENDENT:        2.088
REMARK UNBOUND:                -1.928
REMARK  7 active torsions:
REMARK  status: ('A' for Active; 'I' for Inactive)
REMARK    1  A    between atoms: C2_2  and  N1_3 
REMARK       I    between atoms: N2_6  and  C5_7 
REMARK       I    between atoms: C5_7  and  N3_9 
REMARK    2  A    between atoms: N3_9  and  C6_10 
REMARK    3  A    between atoms: C6_10  and  C7_11 
REMARK    4  A    between atoms: C10_14  and  C11_15 
REMARK       I    between atoms: C11_15  and  N4_17 
REMARK    5  A    between atoms: N4_17  and  C12_18 
REMARK    6  A    between atoms: C14_20  and  C15_21 
REMARK    7  A    between atoms: C21_28  and  N5_29 
ROOT
ATOM      1  C7  NON d   1      26.228 -16.393  -0.837  0.00  0.00    -0.040 A 
ATOM      2  C8  NON d   1      26.247 -17.751  -0.434  0.00  0.00     0.010 A 
ATOM      3  C9  NON d   1      25.069 -18.522  -0.300  0.00  0.00     0.017 A 
ATOM      4  C10 NON d   1      23.829 -17.946  -0.568  0.00  0.00     0.032 A 
ATOM      5  C22 NON d   1      23.808 -16.602  -0.994  0.00  0.00     0.017 A 
ATOM      6  C23 NON d   1      24.983 -15.839  -1.133  0.00  0.00     0.010 A 
ENDROOT
BRANCH   4   7
ATOM      7  C11 NON d   1      22.498 -18.618  -0.364  0.00  0.00     0.256 C 
ATOM      8  O2  NON d   1      22.064 -19.250  -1.326  0.00  0.00    -0.267 OA
ATOM      9  N4  NON d   1      21.830 -18.482   0.851  0.00  0.00    -0.321 N 
ATOM     10  H15 NON d   1      22.169 -17.784   1.496  0.00  0.00     0.169 HD
BRANCH   9  11
ATOM     11  C12 NON d   1      20.626 -19.171   1.253  0.00  0.00     0.057 A 
ATOM     12  C13 NON d   1      20.555 -19.615   2.602  0.00  0.00     0.044 A 
ATOM     13  C14 NON d   1      19.427 -20.301   3.125  0.00  0.00    -0.017 A 
ATOM     14  C19 NON d   1      18.375 -20.562   2.240  0.00  0.00     0.014 A 
ATOM     15  C20 NON d   1      18.440 -20.172   0.907  0.00  0.00     0.026 A 
ATOM     16  C21 NON d   1      19.531 -19.451   0.401  0.00  0.00     0.033 A 
BRANCH  13  17
ATOM     17  C15 NON d   1      19.355 -20.742   4.549  0.00  0.00     0.015 A 
ATOM     18  C16 NON d   1      18.884 -20.075   5.668  0.00  0.00     0.020 A 
ATOM     19  C17 NON d   1      18.984 -20.836   6.875  0.00  0.00     0.008 A 
ATOM     20  C18 NON d   1      19.529 -22.079   6.660  0.00  0.00     0.050 A 
ATOM     21  S1  NON d   1      19.905 -22.322   5.020  0.00  0.00    -0.101 SA
ENDBRANCH  13  17
BRANCH  16  22
ATOM     22  N5  NON d   1      19.568 -19.316  -1.004  0.00  0.00    -0.301 NA
ATOM     23  H22 NON d   1      20.197 -20.019  -1.405  0.00  0.00     0.124 HD
ATOM     24  H23 NON d   1      19.874 -18.397  -1.303  0.00  0.00     0.124 HD
ENDBRANCH  16  22
ENDBRANCH   9  11
ENDBRANCH   4   7
BRANCH   1  25
ATOM     25  C6  NON d   1      27.545 -15.632  -0.907  0.00  0.00     0.162 C 
BRANCH  25  26
ATOM     26  N3  NON d   1      28.123 -15.092   0.322  0.00  0.00    -0.338 N 
ATOM     27  C5  NON d   1      27.405 -14.183   1.074  0.00  0.00     0.325 C 
ATOM     28  N2  NON d   1      28.043 -13.601   2.186  0.00  0.00    -0.260 N 
ATOM     29  O1  NON d   1      26.235 -13.916   0.791  0.00  0.00    -0.247 OA
ATOM     30  C4  NON d   1      27.175 -12.818   3.055  0.00  0.00     0.157 C 
ATOM     31  C24 NON d   1      29.357 -13.865   2.584  0.00  0.00     0.319 C 
ATOM     32  C3  NON d   1      27.879 -11.883   4.033  0.00  0.00     0.146 C 
ATOM     33  N1  NON d   1      29.014 -12.475   4.713  0.00  0.00    -0.343 N 
ATOM     34  C25 NON d   1      29.889 -13.235   3.908  0.00  0.00     0.312 C 
ATOM     35  O4  NON d   1      31.064 -13.443   4.192  0.00  0.00    -0.262 OA
ATOM     36  O3  NON d   1      30.131 -14.548   1.914  0.00  0.00    -0.262 OA
ATOM     37  H10 NON d   1      29.131 -15.099   0.455  0.00  0.00     0.164 HD
BRANCH  33  38
ATOM     38  C2  NON d   1      29.478 -11.784   5.971  0.00  0.00     0.122 C 
ATOM     39  C1  NON d   1      28.649 -10.537   6.330  0.00  0.00     0.026 C 
ENDBRANCH  33  38
ENDBRANCH  25  26
ENDBRANCH   1  25
TORSDOF 7
ENDMDL
MODEL 5
REMARK VINA RESULT:   -16.409      2.902      3.652
REMARK INTER + INTRA:         -19.655
REMARK INTER:                 -18.497
REMARK INTRA:                  -1.157
REMARK CONF_INDEPENDENT:        2.088
REMARK UNBOUND:                -1.157
REMARK  7 active torsions:
REMARK  status: ('A' for Active; 'I' for Inactive)
REMARK    1  A    between atoms: C2_2  and  N1_3 
REMARK       I    between atoms: N2_6  and  C5_7 
REMARK       I    between atoms: C5_7  and  N3_9 
REMARK    2  A    between atoms: N3_9  and  C6_10 
REMARK    3  A    between atoms: C6_10  and  C7_11 
REMARK    4  A    between atoms: C10_14  and  C11_15 
REMARK       I    between atoms: C11_15  and  N4_17 
REMARK    5  A    between atoms: N4_17  and  C12_18 
REMARK    6  A    between atoms: C14_20  and  C15_21 
REMARK    7  A    between atoms: C21_28  and  N5_29 
ROOT
ATOM      1  C7  NON d   1      26.105 -16.303  -1.309  0.00  0.00    -0.040 A 
ATOM      2  C8  NON d   1      25.988 -17.422  -0.449  0.00  0.00     0.010 A 
ATOM      3  C9  NON d   1      24.739 -17.982  -0.093  0.00  0.00     0.017 A 
ATOM      4  C10 NON d   1      23.563 -17.429  -0.595  0.00  0.00     0.032 A 
ATOM      5  C22 NON d   1      23.677 -16.331  -1.474  0.00  0.00     0.017 A 
ATOM      6  C23 NON d   1      24.922 -15.780  -1.831  0.00  0.00     0.010 A 
ENDROOT
BRANCH   4   7
ATOM      7  C11 NON d   1      22.171 -17.857  -0.216  0.00  0.00     0.256 C 
ATOM      8  O2  NON d   1      21.267 -17.447  -0.943  0.00  0.00    -0.267 OA
ATOM      9  N4  NON d   1      21.972 -18.651   0.911  0.00  0.00    -0.321 N 
ATOM     10  H15 NON d   1      22.747 -18.763   1.548  0.00  0.00     0.169 HD
BRANCH   9  11
ATOM     11  C12 NON d   1      20.730 -19.259   1.327  0.00  0.00     0.057 A 
ATOM     12  C13 NON d   1      20.647 -19.704   2.675  0.00  0.00     0.044 A 
ATOM     13  C14 NON d   1      19.482 -20.314   3.211  0.00  0.00    -0.017 A 
ATOM     14  C19 NON d   1      18.404 -20.500   2.339  0.00  0.00     0.014 A 
ATOM     15  C20 NON d   1      18.478 -20.110   1.006  0.00  0.00     0.026 A 
ATOM     16  C21 NON d   1      19.607 -19.462   0.489  0.00  0.00     0.033 A 
BRANCH  13  17
ATOM     17  C15 NON d   1      19.400 -20.755   4.634  0.00  0.00     0.015 A 
ATOM     18  C16 NON d   1      18.961 -20.074   5.757  0.00  0.00     0.020 A 
ATOM     19  C17 NON d   1      19.037 -20.841   6.962  0.00  0.00     0.008 A 
ATOM     20  C18 NON d   1      19.530 -22.104   6.741  0.00  0.00     0.050 A 
ATOM     21  S1  NON d   1      19.889 -22.357   5.099  0.00  0.00    -0.101 SA
ENDBRANCH  13  17
BRANCH  16  22
ATOM     22  N5  NON d   1      19.635 -19.323  -0.916  0.00  0.00    -0.301 NA
ATOM     23  H22 NON d   1      20.075 -18.433  -1.170  0.00  0.00     0.124 HD
ATOM     24  H23 NON d   1      18.713 -19.362  -1.334  0.00  0.00     0.124 HD
ENDBRANCH  16  22
ENDBRANCH   9  11
ENDBRANCH   4   7
BRANCH   1  25
ATOM     25  C6  NON d   1      27.492 -15.742  -1.597  0.00  0.00     0.162 C 
BRANCH  25  26
ATOM     26  N3  NON d   1      27.722 -14.306  -1.456  0.00  0.00    -0.338 N 
ATOM     27  C5  NON d   1      27.067 -13.423  -2.292  0.00  0.00     0.325 C 
ATOM     28  N2  NON d   1      27.405 -12.059  -2.201  0.00  0.00    -0.260 N 
ATOM     29  O1  NON d   1      26.196 -13.820  -3.070  0.00  0.00    -0.247 OA
ATOM     30  C4  NON d   1      26.539 -11.158  -2.950  0.00  0.00     0.157 C 
ATOM     31  C24 NON d   1      28.364 -11.528  -1.334  0.00  0.00     0.319 C 
ATOM     32  C3  NON d   1      27.080  -9.751  -3.181  0.00  0.00     0.146 C 
ATOM     33  N1  NON d   1      27.689  -9.147  -2.012  0.00  0.00    -0.343 N 
ATOM     34  C25 NON d   1      28.545  -9.980  -1.261  0.00  0.00     0.312 C 
ATOM     35  O4  NON d   1      29.436  -9.557  -0.532  0.00  0.00    -0.262 OA
ATOM     36  O3  NON d   1      29.103 -12.232  -0.647  0.00  0.00    -0.262 OA
ATOM     37  H10 NON d   1      28.574 -13.969  -1.014  0.00  0.00     0.164 HD
BRANCH  33  38
ATOM     38  C2  NON d   1      27.850  -7.647  -2.039  0.00  0.00     0.122 C 
ATOM     39  C1  NON d   1      26.812  -6.902  -1.179  0.00  0.00     0.026 C 
ENDBRANCH  33  38
ENDBRANCH  25  26
ENDBRANCH   1  25
TORSDOF 7
ENDMDL
MODEL 6
REMARK VINA RESULT:   -16.142      2.494      3.683
REMARK INTER + INTRA:         -19.620
REMARK INTER:                 -18.231
REMARK INTRA:                  -1.390
REMARK CONF_INDEPENDENT:        2.088
REMARK UNBOUND:                -1.390
REMARK  7 active torsions:
REMARK  status: ('A' for Active; 'I' for Inactive)
REMARK    1  A    between atoms: C2_2  and  N1_3 
REMARK       I    between atoms: N2_6  and  C5_7 
REMARK       I    between atoms: C5_7  and  N3_9 
REMARK    2  A    between atoms: N3_9  and  C6_10 
REMARK    3  A    between atoms: C6_10  and  C7_11 
REMARK    4  A    between atoms: C10_14  and  C11_15 
REMARK       I    between atoms: C11_15  and  N4_17 
REMARK    5  A    between atoms: N4_17  and  C12_18 
REMARK    6  A    between atoms: C14_20  and  C15_21 
REMARK    7  A    between atoms: C21_28  and  N5_29 
ROOT
ATOM      1  C7  NON d   1      26.324 -16.496  -1.037  0.00  0.00    -0.040 A 
ATOM      2  C8  NON d   1      26.197 -17.406   0.041  0.00  0.00     0.010 A 
ATOM      3  C9  NON d   1      25.012 -18.140   0.281  0.00  0.00     0.017 A 
ATOM      4  C10 NON d   1      23.913 -17.978  -0.560  0.00  0.00     0.032 A 
ATOM      5  C22 NON d   1      24.046 -17.092  -1.649  0.00  0.00     0.017 A 
ATOM      6  C23 NON d   1      25.229 -16.368  -1.890  0.00  0.00     0.010 A 
ENDROOT
BRANCH   4   7
ATOM      7  C11 NON d   1      22.564 -18.613  -0.357  0.00  0.00     0.256 C 
ATOM      8  O2  NON d   1      22.081 -19.171  -1.342  0.00  0.00    -0.267 OA
ATOM      9  N4  NON d   1      21.934 -18.525   0.882  0.00  0.00    -0.321 N 
ATOM     10  H15 NON d   1      22.316 -17.879   1.556  0.00  0.00     0.169 HD
BRANCH   9  11
ATOM     11  C12 NON d   1      20.717 -19.193   1.278  0.00  0.00     0.057 A 
ATOM     12  C13 NON d   1      20.630 -19.635   2.627  0.00  0.00     0.044 A 
ATOM     13  C14 NON d   1      19.488 -20.301   3.145  0.00  0.00    -0.017 A 
ATOM     14  C19 NON d   1      18.437 -20.545   2.253  0.00  0.00     0.014 A 
ATOM     15  C20 NON d   1      18.517 -20.158   0.920  0.00  0.00     0.026 A 
ATOM     16  C21 NON d   1      19.621 -19.457   0.420  0.00  0.00     0.033 A 
BRANCH  13  17
ATOM     17  C15 NON d   1      19.401 -20.738   4.568  0.00  0.00     0.015 A 
ATOM     18  C16 NON d   1      18.947 -20.058   5.686  0.00  0.00     0.020 A 
ATOM     19  C17 NON d   1      19.023 -20.821   6.894  0.00  0.00     0.008 A 
ATOM     20  C18 NON d   1      19.531 -22.079   6.680  0.00  0.00     0.050 A 
ATOM     21  S1  NON d   1      19.903 -22.334   5.041  0.00  0.00    -0.101 SA
ENDBRANCH  13  17
BRANCH  16  22
ATOM     22  N5  NON d   1      19.670 -19.324  -0.984  0.00  0.00    -0.301 NA
ATOM     23  H22 NON d   1      20.516 -18.813  -1.258  0.00  0.00     0.124 HD
ATOM     24  H23 NON d   1      18.862 -18.842  -1.363  0.00  0.00     0.124 HD
ENDBRANCH  16  22
ENDBRANCH   9  11
ENDBRANCH   4   7
BRANCH   1  25
ATOM     25  C6  NON d   1      27.625 -15.717  -1.187  0.00  0.00     0.162 C 
BRANCH  25  26
ATOM     26  N3  NON d   1      28.798 -16.389  -1.741  0.00  0.00    -0.338 N 
ATOM     27  C5  NON d   1      28.999 -16.399  -3.108  0.00  0.00     0.325 C 
ATOM     28  N2  NON d   1      30.076 -17.155  -3.608  0.00  0.00    -0.260 N 
ATOM     29  O1  NON d   1      28.270 -15.743  -3.856  0.00  0.00    -0.247 OA
ATOM     30  C4  NON d   1      30.363 -16.960  -5.023  0.00  0.00     0.157 C 
ATOM     31  C24 NON d   1      30.957 -17.908  -2.826  0.00  0.00     0.319 C 
ATOM     32  C3  NON d   1      31.252 -18.012  -5.675  0.00  0.00     0.146 C 
ATOM     33  N1  NON d   1      32.410 -18.387  -4.886  0.00  0.00    -0.343 N 
ATOM     34  C25 NON d   1      32.177 -18.598  -3.510  0.00  0.00     0.312 C 
ATOM     35  O4  NON d   1      32.893 -19.297  -2.800  0.00  0.00    -0.262 OA
ATOM     36  O3  NON d   1      30.793 -18.083  -1.619  0.00  0.00    -0.262 OA
ATOM     37  H10 NON d   1      29.268 -17.114  -1.206  0.00  0.00     0.164 HD
BRANCH  33  38
ATOM     38  C2  NON d   1      33.531 -19.075  -5.624  0.00  0.00     0.122 C 
ATOM     39  C1  NON d   1      33.071 -20.294  -6.446  0.00  0.00     0.026 C 
ENDBRANCH  33  38
ENDBRANCH  25  26
ENDBRANCH   1  25
TORSDOF 7
ENDMDL
MODEL 7
REMARK VINA RESULT:   -15.859      1.712      1.946
REMARK INTER + INTRA:         -19.881
REMARK INTER:                 -17.947
REMARK INTRA:                  -1.934
REMARK CONF_INDEPENDENT:        2.088
REMARK UNBOUND:                -1.934
REMARK  7 active torsions:
REMARK  status: ('A' for Active; 'I' for Inactive)
REMARK    1  A    between atoms: C2_2  and  N1_3 
REMARK       I    between atoms: N2_6  and  C5_7 
REMARK       I    between atoms: C5_7  and  N3_9 
REMARK    2  A    between atoms: N3_9  and  C6_10 
REMARK    3  A    between atoms: C6_10  and  C7_11 
REMARK    4  A    between atoms: C10_14  and  C11_15 
REMARK       I    between atoms: C11_15  and  N4_17 
REMARK    5  A    between atoms: N4_17  and  C12_18 
REMARK    6  A    between atoms: C14_20  and  C15_21 
REMARK    7  A    between atoms: C21_28  and  N5_29 
ROOT
ATOM      1  C7  NON d   1      26.008 -16.295  -1.316  0.00  0.00    -0.040 A 
ATOM      2  C8  NON d   1      25.878 -17.502  -0.587  0.00  0.00     0.010 A 
ATOM      3  C9  NON d   1      24.623 -18.079  -0.287  0.00  0.00     0.017 A 
ATOM      4  C10 NON d   1      23.453 -17.455  -0.713  0.00  0.00     0.032 A 
ATOM      5  C22 NON d   1      23.579 -16.267  -1.463  0.00  0.00     0.017 A 
ATOM      6  C23 NON d   1      24.830 -15.699  -1.766  0.00  0.00     0.010 A 
ENDROOT
BRANCH   4   7
ATOM      7  C11 NON d   1      22.057 -17.903  -0.374  0.00  0.00     0.256 C 
ATOM      8  O2  NON d   1      21.174 -17.543  -1.151  0.00  0.00    -0.267 OA
ATOM      9  N4  NON d   1      21.829 -18.658   0.775  0.00  0.00    -0.321 N 
ATOM     10  H15 NON d   1      22.580 -18.726   1.446  0.00  0.00     0.169 HD
BRANCH   9  11
ATOM     11  C12 NON d   1      20.586 -19.279   1.165  0.00  0.00     0.057 A 
ATOM     12  C13 NON d   1      20.485 -19.740   2.506  0.00  0.00     0.044 A 
ATOM     13  C14 NON d   1      19.317 -20.365   3.017  0.00  0.00    -0.017 A 
ATOM     14  C19 NON d   1      18.254 -20.548   2.127  0.00  0.00     0.014 A 
ATOM     15  C20 NON d   1      18.345 -20.142   0.800  0.00  0.00     0.026 A 
ATOM     16  C21 NON d   1      19.478 -19.480   0.308  0.00  0.00     0.033 A 
BRANCH  13  17
ATOM     17  C15 NON d   1      19.216 -20.823   4.433  0.00  0.00     0.015 A 
ATOM     18  C16 NON d   1      19.913 -21.815   5.103  0.00  0.00     0.020 A 
ATOM     19  C17 NON d   1      19.529 -21.964   6.473  0.00  0.00     0.008 A 
ATOM     20  C18 NON d   1      18.544 -21.077   6.833  0.00  0.00     0.050 A 
ATOM     21  S1  NON d   1      18.097 -20.076   5.534  0.00  0.00    -0.101 SA
ENDBRANCH  13  17
BRANCH  16  22
ATOM     22  N5  NON d   1      19.527 -19.325  -1.095  0.00  0.00    -0.301 NA
ATOM     23  H22 NON d   1      20.457 -19.579  -1.442  0.00  0.00     0.124 HD
ATOM     24  H23 NON d   1      19.315 -18.380  -1.395  0.00  0.00     0.124 HD
ENDBRANCH  16  22
ENDBRANCH   9  11
ENDBRANCH   4   7
BRANCH   1  25
ATOM     25  C6  NON d   1      27.401 -15.726  -1.550  0.00  0.00     0.162 C 
BRANCH  25  26
ATOM     26  N3  NON d   1      27.539 -14.420  -2.191  0.00  0.00    -0.338 N 
ATOM     27  C5  NON d   1      27.992 -14.341  -3.494  0.00  0.00     0.325 C 
ATOM     28  N2  NON d   1      28.221 -13.061  -4.033  0.00  0.00    -0.260 N 
ATOM     29  O1  NON d   1      28.162 -15.362  -4.164  0.00  0.00    -0.247 OA
ATOM     30  C4  NON d   1      28.493 -13.034  -5.464  0.00  0.00     0.157 C 
ATOM     31  C24 NON d   1      28.035 -11.858  -3.346  0.00  0.00     0.319 C 
ATOM     32  C3  NON d   1      29.105 -11.746  -6.002  0.00  0.00     0.146 C 
ATOM     33  N1  NON d   1      28.488 -10.535  -5.498  0.00  0.00    -0.343 N 
ATOM     34  C25 NON d   1      28.216 -10.511  -4.114  0.00  0.00     0.312 C 
ATOM     35  O4  NON d   1      28.100  -9.479  -3.462  0.00  0.00    -0.262 OA
ATOM     36  O3  NON d   1      27.769 -11.811  -2.146  0.00  0.00    -0.262 OA
ATOM     37  H10 NON d   1      27.639 -13.583  -1.622  0.00  0.00     0.164 HD
BRANCH  33  38
ATOM     38  C2  NON d   1      28.737  -9.274  -6.288  0.00  0.00     0.122 C 
ATOM     39  C1  NON d   1      27.528  -8.826  -7.130  0.00  0.00     0.026 C 
ENDBRANCH  33  38
ENDBRANCH  25  26
ENDBRANCH   1  25
TORSDOF 7
ENDMDL
MODEL 8
REMARK VINA RESULT:   -15.442      3.465      4.635
REMARK INTER + INTRA:         -19.420
REMARK INTER:                 -17.530
REMARK INTRA:                  -1.890
REMARK CONF_INDEPENDENT:        2.088
REMARK UNBOUND:                -1.890
REMARK  7 active torsions:
REMARK  status: ('A' for Active; 'I' for Inactive)
REMARK    1  A    between atoms: C2_2  and  N1_3 
REMARK       I    between atoms: N2_6  and  C5_7 
REMARK       I    between atoms: C5_7  and  N3_9 
REMARK    2  A    between atoms: N3_9  and  C6_10 
REMARK    3  A    between atoms: C6_10  and  C7_11 
REMARK    4  A    between atoms: C10_14  and  C11_15 
REMARK       I    between atoms: C11_15  and  N4_17 
REMARK    5  A    between atoms: N4_17  and  C12_18 
REMARK    6  A    between atoms: C14_20  and  C15_21 
REMARK    7  A    between atoms: C21_28  and  N5_29 
ROOT
ATOM      1  C7  NON d   1      26.001 -16.048  -1.337  0.00  0.00    -0.040 A 
ATOM      2  C8  NON d   1      25.911 -17.033  -0.324  0.00  0.00     0.010 A 
ATOM      3  C9  NON d   1      24.684 -17.626   0.054  0.00  0.00     0.017 A 
ATOM      4  C10 NON d   1      23.504 -17.242  -0.579  0.00  0.00     0.032 A 
ATOM      5  C22 NON d   1      23.594 -16.280  -1.607  0.00  0.00     0.017 A 
ATOM      6  C23 NON d   1      24.818 -15.697  -1.986  0.00  0.00     0.010 A 
ENDROOT
BRANCH   4   7
ATOM      7  C11 NON d   1      22.124 -17.712  -0.204  0.00  0.00     0.256 C 
ATOM      8  O2  NON d   1      21.204 -17.277  -0.895  0.00  0.00    -0.267 OA
ATOM      9  N4  NON d   1      21.954 -18.569   0.881  0.00  0.00    -0.321 N 
ATOM     10  H15 NON d   1      22.740 -18.703   1.500  0.00  0.00     0.169 HD
BRANCH   9  11
ATOM     11  C12 NON d   1      20.728 -19.218   1.281  0.00  0.00     0.057 A 
ATOM     12  C13 NON d   1      20.640 -19.661   2.629  0.00  0.00     0.044 A 
ATOM     13  C14 NON d   1      19.489 -20.310   3.151  0.00  0.00    -0.017 A 
ATOM     14  C19 NON d   1      18.431 -20.535   2.264  0.00  0.00     0.014 A 
ATOM     15  C20 NON d   1      18.510 -20.146   0.931  0.00  0.00     0.026 A 
ATOM     16  C21 NON d   1      19.624 -19.461   0.428  0.00  0.00     0.033 A 
BRANCH  13  17
ATOM     17  C15 NON d   1      19.402 -20.750   4.573  0.00  0.00     0.015 A 
ATOM     18  C16 NON d   1      18.947 -20.072   5.692  0.00  0.00     0.020 A 
ATOM     19  C17 NON d   1      19.023 -20.836   6.899  0.00  0.00     0.008 A 
ATOM     20  C18 NON d   1      19.531 -22.095   6.683  0.00  0.00     0.050 A 
ATOM     21  S1  NON d   1      19.905 -22.346   5.044  0.00  0.00    -0.101 SA
ENDBRANCH  13  17
BRANCH  16  22
ATOM     22  N5  NON d   1      19.668 -19.325  -0.977  0.00  0.00    -0.301 NA
ATOM     23  H22 NON d   1      20.599 -19.578  -1.323  0.00  0.00     0.124 HD
ATOM     24  H23 NON d   1      19.449 -18.386  -1.289  0.00  0.00     0.124 HD
ENDBRANCH  16  22
ENDBRANCH   9  11
ENDBRANCH   4   7
BRANCH   1  25
ATOM     25  C6  NON d   1      27.362 -15.434  -1.642  0.00  0.00     0.162 C 
BRANCH  25  26
ATOM     26  N3  NON d   1      27.594 -14.026  -1.329  0.00  0.00    -0.338 N 
ATOM     27  C5  NON d   1      27.770 -13.637  -0.015  0.00  0.00     0.325 C 
ATOM     28  N2  NON d   1      27.875 -12.258   0.253  0.00  0.00    -0.260 N 
ATOM     29  O1  NON d   1      27.859 -14.476   0.884  0.00  0.00    -0.247 OA
ATOM     30  C4  NON d   1      28.267 -11.924   1.616  0.00  0.00     0.157 C 
ATOM     31  C24 NON d   1      27.803 -11.248  -0.709  0.00  0.00     0.319 C 
ATOM     32  C3  NON d   1      28.029 -10.480   2.043  0.00  0.00     0.146 C 
ATOM     33  N1  NON d   1      28.424  -9.493   1.057  0.00  0.00    -0.343 N 
ATOM     34  C25 NON d   1      28.055  -9.770  -0.276  0.00  0.00     0.312 C 
ATOM     35  O4  NON d   1      27.926  -8.907  -1.138  0.00  0.00    -0.262 OA
ATOM     36  O3  NON d   1      27.512 -11.467  -1.884  0.00  0.00    -0.262 OA
ATOM     37  H10 NON d   1      27.298 -13.305  -1.982  0.00  0.00     0.164 HD
BRANCH  33  38
ATOM     38  C2  NON d   1      28.620  -8.084   1.559  0.00  0.00     0.122 C 
ATOM     39  C1  NON d   1      28.599  -7.969   3.094  0.00  0.00     0.026 C 
ENDBRANCH  33  38
ENDBRANCH  25  26
ENDBRANCH   1  25
TORSDOF 7
ENDMDL
