MODEL 1
REMARK VINA RESULT:    -8.431      0.000      0.000
REMARK INTER + INTRA:         -11.762
REMARK INTER:                 -10.519
REMARK INTRA:                  -1.243
REMARK CONF_INDEPENDENT:        2.088
REMARK UNBOUND:                -1.243
REMARK  7 active torsions:
REMARK  status: ('A' for Active; 'I' for Inactive)
REMARK    1  A    between atoms: C2_2  and  C3_3 
REMARK    2  A    between atoms: C4_4  and  C5_5 
REMARK       I    between atoms: C5_5  and  N1_7 
REMARK    3  A    between atoms: N1_7  and  O2_8 
REMARK    4  A    between atoms: C7_10  and  C6_9 
REMARK    5  A    between atoms: C7_10  and  C9_12 
REMARK    6  A    between atoms: C9_12  and  C10_14 
REMARK    7  A    between atoms: C13_17  and  N2_18 
ROOT
ATOM      1  C7  NON d   1      25.363 -15.473  -1.564  0.00  0.00     0.079 C 
ATOM      2  C8  NON d   1      26.641 -15.373  -0.710  0.00  0.00     0.022 C 
ENDROOT
BRANCH   1   3
ATOM      3  C6  NON d   1      24.219 -16.495  -1.604  0.00  0.00    -0.008 C 
ATOM      4  C2  NON d   1      24.265 -17.667  -0.930  0.00  0.00    -0.065 C 
ATOM      5  C1  NON d   1      25.443 -18.045  -0.057  0.00  0.00     0.048 C 
BRANCH   4   6
ATOM      6  C3  NON d   1      23.154 -18.610  -1.009  0.00  0.00     0.012 C 
ATOM      7  C4  NON d   1      21.925 -18.396  -0.507  0.00  0.00     0.076 C 
BRANCH   7   8
ATOM      8  C5  NON d   1      20.874 -19.433  -0.610  0.00  0.00     0.264 C 
ATOM      9  O1  NON d   1      20.278 -19.700  -1.647  0.00  0.00    -0.266 OA
ATOM     10  N1  NON d   1      20.636 -20.082   0.574  0.00  0.00    -0.234 N 
ATOM     11  H6  NON d   1      21.039 -19.846   1.472  0.00  0.00     0.197 HD
BRANCH  10  12
ATOM     12  O2  NON d   1      19.637 -21.081   0.559  0.00  0.00    -0.287 OA
ATOM     13  H7  NON d   1      19.522 -21.242  -0.404  0.00  0.00     0.244 HD
ENDBRANCH  10  12
ENDBRANCH   7   8
ENDBRANCH   4   6
ENDBRANCH   1   3
BRANCH   1  14
ATOM     14  C9  NON d   1      25.369 -14.974  -3.021  0.00  0.00     0.166 C 
ATOM     15  O3  NON d   1      24.435 -14.449  -3.624  0.00  0.00    -0.292 OA
BRANCH  14  16
ATOM     16  C10 NON d   1      26.754 -15.153  -3.905  0.00  0.00     0.011 A 
ATOM     17  C11 NON d   1      26.830 -14.689  -5.229  0.00  0.00     0.017 A 
ATOM     18  C12 NON d   1      28.025 -14.825  -6.070  0.00  0.00     0.030 A 
ATOM     19  C13 NON d   1      29.239 -15.444  -5.670  0.00  0.00     0.029 A 
ATOM     20  C16 NON d   1      29.162 -15.882  -4.334  0.00  0.00     0.030 A 
ATOM     21  C17 NON d   1      27.978 -15.719  -3.478  0.00  0.00     0.017 A 
BRANCH  19  22
ATOM     22  N2  NON d   1      30.443 -15.518  -6.470  0.00  0.00    -0.390 N 
ATOM     23  C14 NON d   1      30.779 -14.342  -7.270  0.00  0.00     0.149 C 
ATOM     24  C15 NON d   1      30.838 -16.882  -7.068  0.00  0.00     0.149 C 
ENDBRANCH  19  22
ENDBRANCH  14  16
ENDBRANCH   1  14
TORSDOF 7
ENDMDL
MODEL 2
REMARK VINA RESULT:    -8.381      0.171      1.007
REMARK INTER + INTRA:         -11.630
REMARK INTER:                 -10.469
REMARK INTRA:                  -1.161
REMARK CONF_INDEPENDENT:        2.088
REMARK UNBOUND:                -1.161
REMARK  7 active torsions:
REMARK  status: ('A' for Active; 'I' for Inactive)
REMARK    1  A    between atoms: C2_2  and  C3_3 
REMARK    2  A    between atoms: C4_4  and  C5_5 
REMARK       I    between atoms: C5_5  and  N1_7 
REMARK    3  A    between atoms: N1_7  and  O2_8 
REMARK    4  A    between atoms: C7_10  and  C6_9 
REMARK    5  A    between atoms: C7_10  and  C9_12 
REMARK    6  A    between atoms: C9_12  and  C10_14 
REMARK    7  A    between atoms: C13_17  and  N2_18 
ROOT
ATOM      1  C7  NON d   1      25.316 -15.424  -1.496  0.00  0.00     0.079 C 
ATOM      2  C8  NON d   1      26.610 -15.349  -0.665  0.00  0.00     0.022 C 
ENDROOT
BRANCH   1   3
ATOM      3  C6  NON d   1      24.173 -16.447  -1.549  0.00  0.00    -0.008 C 
ATOM      4  C2  NON d   1      24.249 -17.654  -0.942  0.00  0.00    -0.065 C 
ATOM      5  C1  NON d   1      25.460 -18.074  -0.138  0.00  0.00     0.048 C 
BRANCH   4   6
ATOM      6  C3  NON d   1      23.137 -18.596  -1.030  0.00  0.00     0.012 C 
ATOM      7  C4  NON d   1      21.927 -18.413  -0.472  0.00  0.00     0.076 C 
BRANCH   7   8
ATOM      8  C5  NON d   1      20.875 -19.448  -0.591  0.00  0.00     0.264 C 
ATOM      9  O1  NON d   1      20.280 -19.700  -1.633  0.00  0.00    -0.266 OA
ATOM     10  N1  NON d   1      20.634 -20.112   0.584  0.00  0.00    -0.234 N 
ATOM     11  H6  NON d   1      21.036 -19.888   1.485  0.00  0.00     0.197 HD
BRANCH  10  12
ATOM     12  O2  NON d   1      19.634 -21.110   0.553  0.00  0.00    -0.287 OA
ATOM     13  H7  NON d   1      19.421 -21.158  -0.405  0.00  0.00     0.244 HD
ENDBRANCH  10  12
ENDBRANCH   7   8
ENDBRANCH   4   6
ENDBRANCH   1   3
BRANCH   1  14
ATOM     14  C9  NON d   1      25.292 -14.876  -2.935  0.00  0.00     0.166 C 
ATOM     15  O3  NON d   1      24.352 -14.315  -3.495  0.00  0.00    -0.292 OA
BRANCH  14  16
ATOM     16  C10 NON d   1      26.649 -15.051  -3.863  0.00  0.00     0.011 A 
ATOM     17  C11 NON d   1      27.807 -15.653  -3.342  0.00  0.00     0.017 A 
ATOM     18  C12 NON d   1      29.045 -15.830  -4.109  0.00  0.00     0.030 A 
ATOM     19  C13 NON d   1      29.241 -15.413  -5.452  0.00  0.00     0.029 A 
ATOM     20  C16 NON d   1      28.068 -14.836  -5.974  0.00  0.00     0.030 A 
ATOM     21  C17 NON d   1      26.814 -14.685  -5.219  0.00  0.00     0.017 A 
BRANCH  19  22
ATOM     22  N2  NON d   1      30.435 -15.649  -6.236  0.00  0.00    -0.390 N 
ATOM     23  C14 NON d   1      30.848 -14.583  -7.148  0.00  0.00     0.149 C 
ATOM     24  C15 NON d   1      30.734 -17.089  -6.694  0.00  0.00     0.149 C 
ENDBRANCH  19  22
ENDBRANCH  14  16
ENDBRANCH   1  14
TORSDOF 7
ENDMDL
MODEL 3
REMARK VINA RESULT:    -8.191      1.259      1.610
REMARK INTER + INTRA:         -11.638
REMARK INTER:                 -10.280
REMARK INTRA:                  -1.358
REMARK CONF_INDEPENDENT:        2.088
REMARK UNBOUND:                -1.358
REMARK  7 active torsions:
REMARK  status: ('A' for Active; 'I' for Inactive)
REMARK    1  A    between atoms: C2_2  and  C3_3 
REMARK    2  A    between atoms: C4_4  and  C5_5 
REMARK       I    between atoms: C5_5  and  N1_7 
REMARK    3  A    between atoms: N1_7  and  O2_8 
REMARK    4  A    between atoms: C7_10  and  C6_9 
REMARK    5  A    between atoms: C7_10  and  C9_12 
REMARK    6  A    between atoms: C9_12  and  C10_14 
REMARK    7  A    between atoms: C13_17  and  N2_18 
ROOT
ATOM      1  C7  NON d   1      25.424 -15.905  -1.710  0.00  0.00     0.079 C 
ATOM      2  C8  NON d   1      26.930 -16.064  -1.427  0.00  0.00     0.022 C 
ENDROOT
BRANCH   1   3
ATOM      3  C6  NON d   1      24.247 -16.888  -1.650  0.00  0.00    -0.008 C 
ATOM      4  C2  NON d   1      24.204 -17.919  -0.776  0.00  0.00    -0.065 C 
ATOM      5  C1  NON d   1      25.307 -18.164   0.233  0.00  0.00     0.048 C 
BRANCH   4   6
ATOM      6  C3  NON d   1      23.065 -18.832  -0.765  0.00  0.00     0.012 C 
ATOM      7  C4  NON d   1      21.776 -18.454  -0.715  0.00  0.00     0.076 C 
BRANCH   7   8
ATOM      8  C5  NON d   1      20.693 -19.462  -0.673  0.00  0.00     0.264 C 
ATOM      9  O1  NON d   1      19.946 -19.701  -1.615  0.00  0.00    -0.266 OA
ATOM     10  N1  NON d   1      20.610 -20.118   0.528  0.00  0.00    -0.234 N 
ATOM     11  H6  NON d   1      21.144 -19.903   1.360  0.00  0.00     0.197 HD
BRANCH  10  12
ATOM     12  O2  NON d   1      19.592 -21.090   0.649  0.00  0.00    -0.287 OA
ATOM     13  H7  NON d   1      19.075 -20.951  -0.175  0.00  0.00     0.244 HD
ENDBRANCH  10  12
ENDBRANCH   7   8
ENDBRANCH   4   6
ENDBRANCH   1   3
BRANCH   1  14
ATOM     14  C9  NON d   1      24.945 -14.931  -2.803  0.00  0.00     0.166 C 
ATOM     15  O3  NON d   1      23.820 -14.448  -2.917  0.00  0.00    -0.292 OA
BRANCH  14  16
ATOM     16  C10 NON d   1      26.020 -14.473  -3.971  0.00  0.00     0.011 A 
ATOM     17  C11 NON d   1      26.199 -13.117  -4.296  0.00  0.00     0.017 A 
ATOM     18  C12 NON d   1      27.130 -12.645  -5.327  0.00  0.00     0.030 A 
ATOM     19  C13 NON d   1      27.952 -13.480  -6.130  0.00  0.00     0.029 A 
ATOM     20  C16 NON d   1      27.785 -14.833  -5.780  0.00  0.00     0.030 A 
ATOM     21  C17 NON d   1      26.877 -15.309  -4.725  0.00  0.00     0.017 A 
BRANCH  19  22
ATOM     22  N2  NON d   1      28.923 -13.016  -7.098  0.00  0.00    -0.390 N 
ATOM     23  C14 NON d   1      28.400 -12.375  -8.303  0.00  0.00     0.149 C 
ATOM     24  C15 NON d   1      30.224 -13.823  -7.269  0.00  0.00     0.149 C 
ENDBRANCH  19  22
ENDBRANCH  14  16
ENDBRANCH   1  14
TORSDOF 7
ENDMDL
MODEL 4
REMARK VINA RESULT:    -7.834      3.026      4.016
REMARK INTER + INTRA:         -11.166
REMARK INTER:                  -9.922
REMARK INTRA:                  -1.243
REMARK CONF_INDEPENDENT:        2.088
REMARK UNBOUND:                -1.243
REMARK  7 active torsions:
REMARK  status: ('A' for Active; 'I' for Inactive)
REMARK    1  A    between atoms: C2_2  and  C3_3 
REMARK    2  A    between atoms: C4_4  and  C5_5 
REMARK       I    between atoms: C5_5  and  N1_7 
REMARK    3  A    between atoms: N1_7  and  O2_8 
REMARK    4  A    between atoms: C7_10  and  C6_9 
REMARK    5  A    between atoms: C7_10  and  C9_12 
REMARK    6  A    between atoms: C9_12  and  C10_14 
REMARK    7  A    between atoms: C13_17  and  N2_18 
ROOT
ATOM      1  C7  NON d   1      25.584 -15.740  -1.758  0.00  0.00     0.079 C 
ATOM      2  C8  NON d   1      26.864 -15.657  -0.906  0.00  0.00     0.022 C 
ENDROOT
BRANCH   1   3
ATOM      3  C6  NON d   1      24.399 -16.715  -1.759  0.00  0.00    -0.008 C 
ATOM      4  C2  NON d   1      24.355 -17.809  -0.964  0.00  0.00    -0.065 C 
ATOM      5  C1  NON d   1      25.465 -18.137   0.013  0.00  0.00     0.048 C 
BRANCH   4   6
ATOM      6  C3  NON d   1      23.208 -18.712  -1.010  0.00  0.00     0.012 C 
ATOM      7  C4  NON d   1      21.988 -18.432  -0.520  0.00  0.00     0.076 C 
BRANCH   7   8
ATOM      8  C5  NON d   1      20.899 -19.431  -0.586  0.00  0.00     0.264 C 
ATOM      9  O1  NON d   1      20.280 -19.700  -1.609  0.00  0.00    -0.266 OA
ATOM     10  N1  NON d   1      20.652 -20.042   0.617  0.00  0.00    -0.234 N 
ATOM     11  H6  NON d   1      21.074 -19.800   1.504  0.00  0.00     0.197 HD
BRANCH  10  12
ATOM     12  O2  NON d   1      19.616 -21.003   0.637  0.00  0.00    -0.287 OA
ATOM     13  H7  NON d   1      19.502 -21.202  -0.318  0.00  0.00     0.244 HD
ENDBRANCH  10  12
ENDBRANCH   7   8
ENDBRANCH   4   6
ENDBRANCH   1   3
BRANCH   1  14
ATOM     14  C9  NON d   1      25.610 -15.302  -3.234  0.00  0.00     0.166 C 
ATOM     15  O3  NON d   1      25.530 -16.030  -4.221  0.00  0.00    -0.292 OA
BRANCH  14  16
ATOM     16  C10 NON d   1      25.776 -13.692  -3.571  0.00  0.00     0.011 A 
ATOM     17  C11 NON d   1      25.963 -12.755  -2.540  0.00  0.00     0.017 A 
ATOM     18  C12 NON d   1      26.108 -11.313  -2.770  0.00  0.00     0.030 A 
ATOM     19  C13 NON d   1      26.067 -10.681  -4.041  0.00  0.00     0.029 A 
ATOM     20  C16 NON d   1      25.905 -11.629  -5.069  0.00  0.00     0.030 A 
ATOM     21  C17 NON d   1      25.792 -13.078  -4.845  0.00  0.00     0.017 A 
BRANCH  19  22
ATOM     22  N2  NON d   1      26.279  -9.268  -4.280  0.00  0.00    -0.390 N 
ATOM     23  C14 NON d   1      26.259  -8.390  -3.112  0.00  0.00     0.149 C 
ATOM     24  C15 NON d   1      25.749  -8.664  -5.594  0.00  0.00     0.149 C 
ENDBRANCH  19  22
ENDBRANCH  14  16
ENDBRANCH   1  14
TORSDOF 7
ENDMDL
MODEL 5
REMARK VINA RESULT:    -7.469      3.387      3.848
REMARK INTER + INTRA:         -10.883
REMARK INTER:                  -9.557
REMARK INTRA:                  -1.326
REMARK CONF_INDEPENDENT:        2.088
REMARK UNBOUND:                -1.326
REMARK  7 active torsions:
REMARK  status: ('A' for Active; 'I' for Inactive)
REMARK    1  A    between atoms: C2_2  and  C3_3 
REMARK    2  A    between atoms: C4_4  and  C5_5 
REMARK       I    between atoms: C5_5  and  N1_7 
REMARK    3  A    between atoms: N1_7  and  O2_8 
REMARK    4  A    between atoms: C7_10  and  C6_9 
REMARK    5  A    between atoms: C7_10  and  C9_12 
REMARK    6  A    between atoms: C9_12  and  C10_14 
REMARK    7  A    between atoms: C13_17  and  N2_18 
ROOT
ATOM      1  C7  NON d   1      25.462 -17.220  -0.417  0.00  0.00     0.079 C 
ATOM      2  C8  NON d   1      26.888 -17.171   0.163  0.00  0.00     0.022 C 
ENDROOT
BRANCH   1   3
ATOM      3  C6  NON d   1      24.281 -18.174  -0.192  0.00  0.00    -0.008 C 
ATOM      4  C2  NON d   1      22.994 -17.759  -0.227  0.00  0.00    -0.065 C 
ATOM      5  C1  NON d   1      22.620 -16.322  -0.521  0.00  0.00     0.048 C 
BRANCH   4   6
ATOM      6  C3  NON d   1      21.906 -18.706   0.003  0.00  0.00     0.012 C 
ATOM      7  C4  NON d   1      20.905 -18.953  -0.860  0.00  0.00     0.076 C 
BRANCH   7   8
ATOM      8  C5  NON d   1      19.829 -19.909  -0.516  0.00  0.00     0.264 C 
ATOM      9  O1  NON d   1      18.797 -20.038  -1.166  0.00  0.00    -0.266 OA
ATOM     10  N1  NON d   1      20.103 -20.652   0.603  0.00  0.00    -0.234 N 
ATOM     11  H6  NON d   1      20.896 -20.529   1.218  0.00  0.00     0.197 HD
BRANCH  10  12
ATOM     12  O2  NON d   1      19.116 -21.582   1.002  0.00  0.00    -0.287 OA
ATOM     13  H7  NON d   1      18.687 -21.806   0.147  0.00  0.00     0.244 HD
ENDBRANCH  10  12
ENDBRANCH   7   8
ENDBRANCH   4   6
ENDBRANCH   1   3
BRANCH   1  14
ATOM     14  C9  NON d   1      25.202 -16.760  -1.864  0.00  0.00     0.166 C 
ATOM     15  O3  NON d   1      24.810 -17.454  -2.799  0.00  0.00    -0.292 OA
BRANCH  14  16
ATOM     16  C10 NON d   1      25.480 -15.175  -2.244  0.00  0.00     0.011 A 
ATOM     17  C11 NON d   1      26.426 -14.418  -1.533  0.00  0.00     0.017 A 
ATOM     18  C12 NON d   1      26.714 -13.007  -1.814  0.00  0.00     0.030 A 
ATOM     19  C13 NON d   1      26.077 -12.227  -2.816  0.00  0.00     0.029 A 
ATOM     20  C16 NON d   1      25.150 -13.001  -3.540  0.00  0.00     0.030 A 
ATOM     21  C17 NON d   1      24.882 -14.424  -3.283  0.00  0.00     0.017 A 
BRANCH  19  22
ATOM     22  N2  NON d   1      26.406 -10.856  -3.145  0.00  0.00    -0.390 N 
ATOM     23  C14 NON d   1      26.011 -10.381  -4.471  0.00  0.00     0.149 C 
ATOM     24  C15 NON d   1      27.703 -10.259  -2.568  0.00  0.00     0.149 C 
ENDBRANCH  19  22
ENDBRANCH  14  16
ENDBRANCH   1  14
TORSDOF 7
ENDMDL
MODEL 6
REMARK VINA RESULT:    -7.374      2.291      3.059
REMARK INTER + INTRA:         -10.843
REMARK INTER:                  -9.462
REMARK INTRA:                  -1.382
REMARK CONF_INDEPENDENT:        2.088
REMARK UNBOUND:                -1.382
REMARK  7 active torsions:
REMARK  status: ('A' for Active; 'I' for Inactive)
REMARK    1  A    between atoms: C2_2  and  C3_3 
REMARK    2  A    between atoms: C4_4  and  C5_5 
REMARK       I    between atoms: C5_5  and  N1_7 
REMARK    3  A    between atoms: N1_7  and  O2_8 
REMARK    4  A    between atoms: C7_10  and  C6_9 
REMARK    5  A    between atoms: C7_10  and  C9_12 
REMARK    6  A    between atoms: C9_12  and  C10_14 
REMARK    7  A    between atoms: C13_17  and  N2_18 
ROOT
ATOM      1  C7  NON d   1      25.891 -15.611  -0.808  0.00  0.00     0.079 C 
ATOM      2  C8  NON d   1      26.591 -15.410   0.549  0.00  0.00     0.022 C 
ENDROOT
BRANCH   1   3
ATOM      3  C6  NON d   1      24.592 -16.322  -1.211  0.00  0.00    -0.008 C 
ATOM      4  C2  NON d   1      24.290 -17.575  -0.798  0.00  0.00    -0.065 C 
ATOM      5  C1  NON d   1      25.202 -18.360   0.121  0.00  0.00     0.048 C 
BRANCH   4   6
ATOM      6  C3  NON d   1      23.045 -18.211  -1.218  0.00  0.00     0.012 C 
ATOM      7  C4  NON d   1      21.993 -18.450  -0.414  0.00  0.00     0.076 C 
BRANCH   7   8
ATOM      8  C5  NON d   1      20.787 -19.134  -0.931  0.00  0.00     0.264 C 
ATOM      9  O1  NON d   1      20.733 -19.693  -2.020  0.00  0.00    -0.266 OA
ATOM     10  N1  NON d   1      19.727 -19.091  -0.062  0.00  0.00    -0.234 N 
ATOM     11  H6  NON d   1      19.693 -18.575   0.808  0.00  0.00     0.197 HD
BRANCH  10  12
ATOM     12  O2  NON d   1      18.533 -19.714  -0.489  0.00  0.00    -0.287 OA
ATOM     13  H7  NON d   1      18.586 -19.613  -1.465  0.00  0.00     0.244 HD
ENDBRANCH  10  12
ENDBRANCH   7   8
ENDBRANCH   4   6
ENDBRANCH   1   3
BRANCH   1  14
ATOM     14  C9  NON d   1      26.728 -15.770  -2.091  0.00  0.00     0.166 C 
ATOM     15  O3  NON d   1      27.475 -16.705  -2.374  0.00  0.00    -0.292 OA
BRANCH  14  16
ATOM     16  C10 NON d   1      26.653 -14.573  -3.229  0.00  0.00     0.011 A 
ATOM     17  C11 NON d   1      27.396 -14.660  -4.418  0.00  0.00     0.017 A 
ATOM     18  C12 NON d   1      27.380 -13.629  -5.462  0.00  0.00     0.030 A 
ATOM     19  C13 NON d   1      26.635 -12.422  -5.407  0.00  0.00     0.029 A 
ATOM     20  C16 NON d   1      25.873 -12.356  -4.225  0.00  0.00     0.030 A 
ATOM     21  C17 NON d   1      25.861 -13.401  -3.191  0.00  0.00     0.017 A 
BRANCH  19  22
ATOM     22  N2  NON d   1      26.560 -11.435  -6.465  0.00  0.00    -0.390 N 
ATOM     23  C14 NON d   1      27.811 -11.094  -7.140  0.00  0.00     0.149 C 
ATOM     24  C15 NON d   1      25.530 -10.298  -6.329  0.00  0.00     0.149 C 
ENDBRANCH  19  22
ENDBRANCH  14  16
ENDBRANCH   1  14
TORSDOF 7
ENDMDL
MODEL 7
REMARK VINA RESULT:    -7.328      3.816      6.250
REMARK INTER + INTRA:         -10.932
REMARK INTER:                  -9.416
REMARK INTRA:                  -1.516
REMARK CONF_INDEPENDENT:        2.088
REMARK UNBOUND:                -1.516
REMARK  7 active torsions:
REMARK  status: ('A' for Active; 'I' for Inactive)
REMARK    1  A    between atoms: C2_2  and  C3_3 
REMARK    2  A    between atoms: C4_4  and  C5_5 
REMARK       I    between atoms: C5_5  and  N1_7 
REMARK    3  A    between atoms: N1_7  and  O2_8 
REMARK    4  A    between atoms: C7_10  and  C6_9 
REMARK    5  A    between atoms: C7_10  and  C9_12 
REMARK    6  A    between atoms: C9_12  and  C10_14 
REMARK    7  A    between atoms: C13_17  and  N2_18 
ROOT
ATOM      1  C7  NON d   1      26.957 -16.101  -1.324  0.00  0.00     0.079 C 
ATOM      2  C8  NON d   1      28.234 -16.630  -2.004  0.00  0.00     0.022 C 
ENDROOT
BRANCH   1   3
ATOM      3  C6  NON d   1      25.473 -16.454  -1.486  0.00  0.00    -0.008 C 
ATOM      4  C2  NON d   1      24.866 -17.408  -0.743  0.00  0.00    -0.065 C 
ATOM      5  C1  NON d   1      25.604 -18.181   0.329  0.00  0.00     0.048 C 
BRANCH   4   6
ATOM      6  C3  NON d   1      23.452 -17.712  -0.942  0.00  0.00     0.012 C 
ATOM      7  C4  NON d   1      22.766 -18.656  -0.275  0.00  0.00     0.076 C 
BRANCH   7   8
ATOM      8  C5  NON d   1      21.339 -18.910  -0.577  0.00  0.00     0.264 C 
ATOM      9  O1  NON d   1      20.642 -18.165  -1.256  0.00  0.00    -0.266 OA
ATOM     10  N1  NON d   1      20.870 -20.075  -0.028  0.00  0.00    -0.234 N 
ATOM     11  H6  NON d   1      21.377 -20.681   0.605  0.00  0.00     0.197 HD
BRANCH  10  12
ATOM     12  O2  NON d   1      19.510 -20.383  -0.263  0.00  0.00    -0.287 OA
ATOM     13  H7  NON d   1      19.321 -19.868  -1.078  0.00  0.00     0.244 HD
ENDBRANCH  10  12
ENDBRANCH   7   8
ENDBRANCH   4   6
ENDBRANCH   1   3
BRANCH   1  14
ATOM     14  C9  NON d   1      26.868 -14.625  -0.893  0.00  0.00     0.166 C 
ATOM     15  O3  NON d   1      26.608 -13.662  -1.611  0.00  0.00    -0.292 OA
BRANCH  14  16
ATOM     16  C10 NON d   1      27.159 -14.253   0.691  0.00  0.00     0.011 A 
ATOM     17  C11 NON d   1      26.447 -13.225   1.333  0.00  0.00     0.017 A 
ATOM     18  C12 NON d   1      26.662 -12.840   2.732  0.00  0.00     0.030 A 
ATOM     19  C13 NON d   1      27.611 -13.433   3.606  0.00  0.00     0.029 A 
ATOM     20  C16 NON d   1      28.301 -14.478   2.963  0.00  0.00     0.030 A 
ATOM     21  C17 NON d   1      28.065 -14.889   1.571  0.00  0.00     0.017 A 
BRANCH  19  22
ATOM     22  N2  NON d   1      27.780 -13.105   5.007  0.00  0.00    -0.390 N 
ATOM     23  C14 NON d   1      27.882 -11.687   5.346  0.00  0.00     0.149 C 
ATOM     24  C15 NON d   1      28.588 -14.074   5.890  0.00  0.00     0.149 C 
ENDBRANCH  19  22
ENDBRANCH  14  16
ENDBRANCH   1  14
TORSDOF 7
ENDMDL
MODEL 8
REMARK VINA RESULT:    -7.267      4.620      7.073
REMARK INTER + INTRA:         -10.811
REMARK INTER:                  -9.355
REMARK INTRA:                  -1.455
REMARK CONF_INDEPENDENT:        2.088
REMARK UNBOUND:                -1.455
REMARK  7 active torsions:
REMARK  status: ('A' for Active; 'I' for Inactive)
REMARK    1  A    between atoms: C2_2  and  C3_3 
REMARK    2  A    between atoms: C4_4  and  C5_5 
REMARK       I    between atoms: C5_5  and  N1_7 
REMARK    3  A    between atoms: N1_7  and  O2_8 
REMARK    4  A    between atoms: C7_10  and  C6_9 
REMARK    5  A    between atoms: C7_10  and  C9_12 
REMARK    6  A    between atoms: C9_12  and  C10_14 
REMARK    7  A    between atoms: C13_17  and  N2_18 
ROOT
ATOM      1  C7  NON d   1      27.201 -15.645  -0.049  0.00  0.00     0.079 C 
ATOM      2  C8  NON d   1      28.572 -16.140  -0.547  0.00  0.00     0.022 C 
ENDROOT
BRANCH   1   3
ATOM      3  C6  NON d   1      25.762 -15.994  -0.453  0.00  0.00    -0.008 C 
ATOM      4  C2  NON d   1      25.208 -17.202  -0.202  0.00  0.00    -0.065 C 
ATOM      5  C1  NON d   1      25.961 -18.295   0.526  0.00  0.00     0.048 C 
BRANCH   4   6
ATOM      6  C3  NON d   1      23.837 -17.487  -0.615  0.00  0.00     0.012 C 
ATOM      7  C4  NON d   1      23.009 -18.346   0.005  0.00  0.00     0.076 C 
BRANCH   7   8
ATOM      8  C5  NON d   1      21.645 -18.590  -0.515  0.00  0.00     0.264 C 
ATOM      9  O1  NON d   1      21.053 -17.823  -1.266  0.00  0.00    -0.266 OA
ATOM     10  N1  NON d   1      21.105 -19.773  -0.082  0.00  0.00    -0.234 N 
ATOM     11  H6  NON d   1      21.515 -20.399   0.600  0.00  0.00     0.197 HD
BRANCH  10  12
ATOM     12  O2  NON d   1      19.798 -20.074  -0.528  0.00  0.00    -0.287 OA
ATOM     13  H7  NON d   1      19.556 -19.258  -1.020  0.00  0.00     0.244 HD
ENDBRANCH  10  12
ENDBRANCH   7   8
ENDBRANCH   4   6
ENDBRANCH   1   3
BRANCH   1  14
ATOM     14  C9  NON d   1      27.033 -14.189   0.426  0.00  0.00     0.166 C 
ATOM     15  O3  NON d   1      26.611 -13.242  -0.235  0.00  0.00    -0.292 OA
BRANCH  14  16
ATOM     16  C10 NON d   1      27.465 -13.817   1.977  0.00  0.00     0.011 A 
ATOM     17  C11 NON d   1      27.782 -14.828   2.900  0.00  0.00     0.017 A 
ATOM     18  C12 NON d   1      28.164 -14.565   4.292  0.00  0.00     0.030 A 
ATOM     19  C13 NON d   1      28.251 -13.278   4.887  0.00  0.00     0.029 A 
ATOM     20  C16 NON d   1      27.958 -12.271   3.948  0.00  0.00     0.030 A 
ATOM     21  C17 NON d   1      27.606 -12.529   2.543  0.00  0.00     0.017 A 
BRANCH  19  22
ATOM     22  N2  NON d   1      28.695 -13.009   6.238  0.00  0.00    -0.390 N 
ATOM     23  C14 NON d   1      28.509 -11.647   6.736  0.00  0.00     0.149 C 
ATOM     24  C15 NON d   1      29.935 -13.759   6.762  0.00  0.00     0.149 C 
ENDBRANCH  19  22
ENDBRANCH  14  16
ENDBRANCH   1  14
TORSDOF 7
ENDMDL
MODEL 9
REMARK VINA RESULT:    -6.585      3.758      5.838
REMARK INTER + INTRA:         -10.122
REMARK INTER:                  -8.673
REMARK INTRA:                  -1.449
REMARK CONF_INDEPENDENT:        2.088
REMARK UNBOUND:                -1.449
REMARK  7 active torsions:
REMARK  status: ('A' for Active; 'I' for Inactive)
REMARK    1  A    between atoms: C2_2  and  C3_3 
REMARK    2  A    between atoms: C4_4  and  C5_5 
REMARK       I    between atoms: C5_5  and  N1_7 
REMARK    3  A    between atoms: N1_7  and  O2_8 
REMARK    4  A    between atoms: C7_10  and  C6_9 
REMARK    5  A    between atoms: C7_10  and  C9_12 
REMARK    6  A    between atoms: C9_12  and  C10_14 
REMARK    7  A    between atoms: C13_17  and  N2_18 
ROOT
ATOM      1  C7  NON d   1      26.419 -17.026  -1.058  0.00  0.00     0.079 C 
ATOM      2  C8  NON d   1      26.736 -15.991  -2.154  0.00  0.00     0.022 C 
ENDROOT
BRANCH   1   3
ATOM      3  C6  NON d   1      25.254 -18.004  -0.860  0.00  0.00    -0.008 C 
ATOM      4  C2  NON d   1      23.960 -17.611  -0.894  0.00  0.00    -0.065 C 
ATOM      5  C1  NON d   1      23.563 -16.175  -1.162  0.00  0.00     0.048 C 
BRANCH   4   6
ATOM      6  C3  NON d   1      22.888 -18.581  -0.689  0.00  0.00     0.012 C 
ATOM      7  C4  NON d   1      21.581 -18.339  -0.897  0.00  0.00     0.076 C 
BRANCH   7   8
ATOM      8  C5  NON d   1      20.567 -19.382  -0.626  0.00  0.00     0.264 C 
ATOM      9  O1  NON d   1      19.687 -19.700  -1.418  0.00  0.00    -0.266 OA
ATOM     10  N1  NON d   1      20.713 -19.973   0.602  0.00  0.00    -0.234 N 
ATOM     11  H6  NON d   1      21.367 -19.693   1.322  0.00  0.00     0.197 HD
BRANCH  10  12
ATOM     12  O2  NON d   1      19.774 -20.974   0.939  0.00  0.00    -0.287 OA
ATOM     13  H7  NON d   1      19.060 -20.815   0.283  0.00  0.00     0.244 HD
ENDBRANCH  10  12
ENDBRANCH   7   8
ENDBRANCH   4   6
ENDBRANCH   1   3
BRANCH   1  14
ATOM     14  C9  NON d   1      26.833 -16.754   0.400  0.00  0.00     0.166 C 
ATOM     15  O3  NON d   1      27.029 -17.592   1.279  0.00  0.00    -0.292 OA
BRANCH  14  16
ATOM     16  C10 NON d   1      27.034 -15.185   0.879  0.00  0.00     0.011 A 
ATOM     17  C11 NON d   1      27.782 -14.870   2.026  0.00  0.00     0.017 A 
ATOM     18  C12 NON d   1      27.991 -13.500   2.508  0.00  0.00     0.030 A 
ATOM     19  C13 NON d   1      27.463 -12.331   1.900  0.00  0.00     0.029 A 
ATOM     20  C16 NON d   1      26.737 -12.653   0.738  0.00  0.00     0.030 A 
ATOM     21  C17 NON d   1      26.553 -14.022   0.232  0.00  0.00     0.017 A 
BRANCH  19  22
ATOM     22  N2  NON d   1      27.724 -10.973   2.331  0.00  0.00    -0.390 N 
ATOM     23  C14 NON d   1      28.908 -10.759   3.161  0.00  0.00     0.149 C 
ATOM     24  C15 NON d   1      26.520 -10.055   2.615  0.00  0.00     0.149 C 
ENDBRANCH  19  22
ENDBRANCH  14  16
ENDBRANCH   1  14
TORSDOF 7
ENDMDL
