MODEL 1
REMARK VINA RESULT:    -8.853      0.000      0.000
REMARK INTER + INTRA:         -13.644
REMARK INTER:                 -12.135
REMARK INTRA:                  -1.509
REMARK CONF_INDEPENDENT:        3.281
REMARK UNBOUND:                -1.509
REMARK  11 active torsions:
REMARK  status: ('A' for Active; 'I' for Inactive)
REMARK    1  A    between atoms: C1_2  and  C2_3 
REMARK       I    between atoms: C1_2  and  N4_26 
REMARK    2  A    between atoms: C2_3  and  C3_4 
REMARK    3  A    between atoms: C3_4  and  C4_5 
REMARK    4  A    between atoms: C4_5  and  C5_6 
REMARK    5  A    between atoms: C5_6  and  C6_7 
REMARK    6  A    between atoms: C6_7  and  C7_8 
REMARK    7  A    between atoms: C7_8  and  C8_9 
REMARK       I    between atoms: C8_9  and  N1_11 
REMARK    8  A    between atoms: N1_11  and  C9_12 
REMARK    9  A    between atoms: C10_14  and  C11_15 
REMARK   10  A    between atoms: C15_19  and  N3_20 
REMARK   11  A    between atoms: N4_26  and  O5_27 
ROOT
ATOM      1  C8  NON d   1      27.052 -15.410   0.605  0.00  0.00     0.223 C 
ATOM      2  O2  NON d   1      26.132 -14.626   0.404  0.00  0.00    -0.273 OA
ATOM      3  N1  NON d   1      27.974 -15.360   1.632  0.00  0.00    -0.306 N 
ATOM      4  H13 NON d   1      28.708 -16.049   1.695  0.00  0.00     0.171 HD
ENDROOT
BRANCH   3   5
ATOM      5  C9  NON d   1      27.984 -14.378   2.583  0.00  0.00     0.173 A 
ATOM      6  N2  NON d   1      27.883 -13.082   2.454  0.00  0.00    -0.223 NA
ATOM      7  C10 NON d   1      27.945 -12.469   3.701  0.00  0.00     0.076 A 
ATOM      8  C17 NON d   1      28.098 -13.351   4.755  0.00  0.00     0.085 A 
ATOM      9  S1  NON d   1      28.154 -14.965   4.175  0.00  0.00    -0.061 SA
BRANCH   7  10
ATOM     10  C11 NON d   1      27.845 -11.010   3.829  0.00  0.00    -0.004 A 
ATOM     11  C12 NON d   1      28.708 -10.341   4.714  0.00  0.00     0.014 A 
ATOM     12  C13 NON d   1      28.660  -8.952   4.869  0.00  0.00     0.003 A 
ATOM     13  C14 NON d   1      27.742  -8.199   4.138  0.00  0.00     0.036 A 
ATOM     14  C15 NON d   1      26.875  -8.850   3.255  0.00  0.00     0.103 A 
ATOM     15  C16 NON d   1      26.921 -10.247   3.097  0.00  0.00     0.050 A 
BRANCH  14  16
ATOM     16  N3  NON d   1      25.905  -8.063   2.480  0.00  0.00    -0.116 N 
ATOM     17  O3  NON d   1      25.156  -8.668   1.699  0.00  0.00    -0.532 OA
ATOM     18  O4  NON d   1      25.890  -6.836   2.656  0.00  0.00    -0.532 OA
ENDBRANCH  14  16
ENDBRANCH   7  10
ENDBRANCH   3   5
BRANCH   1  19
ATOM     19  C7  NON d   1      27.319 -16.604  -0.306  0.00  0.00     0.103 C 
BRANCH  19  20
ATOM     20  C6  NON d   1      26.965 -17.963   0.305  0.00  0.00     0.009 C 
BRANCH  20  21
ATOM     21  C5  NON d   1      25.463 -18.126   0.563  0.00  0.00     0.000 C 
BRANCH  21  22
ATOM     22  C4  NON d   1      24.574 -17.643  -0.593  0.00  0.00     0.000 C 
BRANCH  22  23
ATOM     23  C3  NON d   1      23.412 -18.574  -0.978  0.00  0.00     0.009 C 
BRANCH  23  24
ATOM     24  C2  NON d   1      22.150 -18.375  -0.147  0.00  0.00     0.105 C 
BRANCH  24  25
ATOM     25  C1  NON d   1      21.014 -19.325  -0.508  0.00  0.00     0.240 C 
ATOM     26  O1  NON d   1      20.579 -19.468  -1.645  0.00  0.00    -0.271 OA
ATOM     27  N4  NON d   1      20.508 -19.950   0.620  0.00  0.00    -0.237 N 
ATOM     28  H19 NON d   1      21.122 -20.094   1.416  0.00  0.00     0.197 HD
BRANCH  27  29
ATOM     29  O5  NON d   1      19.608 -21.011   0.374  0.00  0.00    -0.287 OA
ATOM     30  H20 NON d   1      19.354 -20.854  -0.555  0.00  0.00     0.244 HD
ENDBRANCH  27  29
ENDBRANCH  24  25
ENDBRANCH  23  24
ENDBRANCH  22  23
ENDBRANCH  21  22
ENDBRANCH  20  21
ENDBRANCH  19  20
ENDBRANCH   1  19
TORSDOF 11
ENDMDL
MODEL 2
REMARK VINA RESULT:    -8.670      4.763      5.480
REMARK INTER + INTRA:         -13.369
REMARK INTER:                 -11.952
REMARK INTRA:                  -1.418
REMARK CONF_INDEPENDENT:        3.281
REMARK UNBOUND:                -1.418
REMARK  11 active torsions:
REMARK  status: ('A' for Active; 'I' for Inactive)
REMARK    1  A    between atoms: C1_2  and  C2_3 
REMARK       I    between atoms: C1_2  and  N4_26 
REMARK    2  A    between atoms: C2_3  and  C3_4 
REMARK    3  A    between atoms: C3_4  and  C4_5 
REMARK    4  A    between atoms: C4_5  and  C5_6 
REMARK    5  A    between atoms: C5_6  and  C6_7 
REMARK    6  A    between atoms: C6_7  and  C7_8 
REMARK    7  A    between atoms: C7_8  and  C8_9 
REMARK       I    between atoms: C8_9  and  N1_11 
REMARK    8  A    between atoms: N1_11  and  C9_12 
REMARK    9  A    between atoms: C10_14  and  C11_15 
REMARK   10  A    between atoms: C15_19  and  N3_20 
REMARK   11  A    between atoms: N4_26  and  O5_27 
ROOT
ATOM      1  C8  NON d   1      25.415 -14.231  -3.796  0.00  0.00     0.223 C 
ATOM      2  O2  NON d   1      24.378 -14.042  -4.421  0.00  0.00    -0.273 OA
ATOM      3  N1  NON d   1      26.311 -13.271  -3.370  0.00  0.00    -0.306 N 
ATOM      4  H13 NON d   1      27.150 -13.536  -2.876  0.00  0.00     0.171 HD
ENDROOT
BRANCH   3   5
ATOM      5  C9  NON d   1      26.153 -11.935  -3.617  0.00  0.00     0.173 A 
ATOM      6  N2  NON d   1      25.995 -10.940  -2.785  0.00  0.00    -0.223 NA
ATOM      7  C10 NON d   1      25.869  -9.745  -3.486  0.00  0.00     0.076 A 
ATOM      8  C17 NON d   1      25.934  -9.888  -4.860  0.00  0.00     0.085 A 
ATOM      9  S1  NON d   1      26.168 -11.537  -5.275  0.00  0.00    -0.061 SA
BRANCH   7  10
ATOM     10  C11 NON d   1      25.690  -8.472  -2.778  0.00  0.00    -0.004 A 
ATOM     11  C12 NON d   1      25.670  -7.276  -3.518  0.00  0.00     0.014 A 
ATOM     12  C13 NON d   1      25.495  -6.037  -2.894  0.00  0.00     0.003 A 
ATOM     13  C14 NON d   1      25.337  -5.966  -1.511  0.00  0.00     0.036 A 
ATOM     14  C15 NON d   1      25.357  -7.147  -0.761  0.00  0.00     0.103 A 
ATOM     15  C16 NON d   1      25.533  -8.395  -1.385  0.00  0.00     0.050 A 
BRANCH  14  16
ATOM     16  N3  NON d   1      25.190  -7.081   0.698  0.00  0.00    -0.116 N 
ATOM     17  O3  NON d   1      24.718  -6.043   1.184  0.00  0.00    -0.532 OA
ATOM     18  O4  NON d   1      25.529  -8.073   1.360  0.00  0.00    -0.532 OA
ENDBRANCH  14  16
ENDBRANCH   7  10
ENDBRANCH   3   5
BRANCH   1  19
ATOM     19  C7  NON d   1      25.881 -15.626  -3.393  0.00  0.00     0.103 C 
BRANCH  19  20
ATOM     20  C6  NON d   1      25.753 -15.933  -1.899  0.00  0.00     0.009 C 
BRANCH  20  21
ATOM     21  C5  NON d   1      24.308 -16.215  -1.471  0.00  0.00     0.000 C 
BRANCH  21  22
ATOM     22  C4  NON d   1      23.990 -17.707  -1.293  0.00  0.00     0.000 C 
BRANCH  22  23
ATOM     23  C3  NON d   1      23.022 -18.052  -0.148  0.00  0.00     0.009 C 
BRANCH  23  24
ATOM     24  C2  NON d   1      22.178 -19.297  -0.397  0.00  0.00     0.105 C 
BRANCH  24  25
ATOM     25  C1  NON d   1      20.723 -19.000  -0.740  0.00  0.00     0.240 C 
ATOM     26  O1  NON d   1      20.333 -17.931  -1.194  0.00  0.00    -0.271 OA
ATOM     27  N4  NON d   1      19.906 -20.070  -0.414  0.00  0.00    -0.237 N 
ATOM     28  H19 NON d   1      20.298 -21.007  -0.421  0.00  0.00     0.197 HD
BRANCH  27  29
ATOM     29  O5  NON d   1      18.579 -19.988  -0.894  0.00  0.00    -0.287 OA
ATOM     30  H20 NON d   1      18.654 -19.310  -1.592  0.00  0.00     0.244 HD
ENDBRANCH  27  29
ENDBRANCH  24  25
ENDBRANCH  23  24
ENDBRANCH  22  23
ENDBRANCH  21  22
ENDBRANCH  20  21
ENDBRANCH  19  20
ENDBRANCH   1  19
TORSDOF 11
ENDMDL
MODEL 3
REMARK VINA RESULT:    -8.193      1.680      2.283
REMARK INTER + INTRA:         -12.892
REMARK INTER:                 -11.474
REMARK INTRA:                  -1.418
REMARK CONF_INDEPENDENT:        3.281
REMARK UNBOUND:                -1.418
REMARK  11 active torsions:
REMARK  status: ('A' for Active; 'I' for Inactive)
REMARK    1  A    between atoms: C1_2  and  C2_3 
REMARK       I    between atoms: C1_2  and  N4_26 
REMARK    2  A    between atoms: C2_3  and  C3_4 
REMARK    3  A    between atoms: C3_4  and  C4_5 
REMARK    4  A    between atoms: C4_5  and  C5_6 
REMARK    5  A    between atoms: C5_6  and  C6_7 
REMARK    6  A    between atoms: C6_7  and  C7_8 
REMARK    7  A    between atoms: C7_8  and  C8_9 
REMARK       I    between atoms: C8_9  and  N1_11 
REMARK    8  A    between atoms: N1_11  and  C9_12 
REMARK    9  A    between atoms: C10_14  and  C11_15 
REMARK   10  A    between atoms: C15_19  and  N3_20 
REMARK   11  A    between atoms: N4_26  and  O5_27 
ROOT
ATOM      1  C8  NON d   1      25.543 -15.552  -1.164  0.00  0.00     0.223 C 
ATOM      2  O2  NON d   1      25.541 -14.561  -1.884  0.00  0.00    -0.273 OA
ATOM      3  N1  NON d   1      26.179 -15.690   0.054  0.00  0.00    -0.306 N 
ATOM      4  H13 NON d   1      26.133 -16.561   0.559  0.00  0.00     0.171 HD
ENDROOT
BRANCH   3   5
ATOM      5  C9  NON d   1      26.931 -14.700   0.623  0.00  0.00     0.173 A 
ATOM      6  N2  NON d   1      26.563 -13.678   1.349  0.00  0.00    -0.223 NA
ATOM      7  C10 NON d   1      27.674 -12.924   1.713  0.00  0.00     0.076 A 
ATOM      8  C17 NON d   1      28.873 -13.417   1.231  0.00  0.00     0.085 A 
ATOM      9  S1  NON d   1      28.603 -14.847   0.320  0.00  0.00    -0.061 SA
BRANCH   7  10
ATOM     10  C11 NON d   1      27.530 -11.723   2.544  0.00  0.00    -0.004 A 
ATOM     11  C12 NON d   1      28.108 -11.705   3.825  0.00  0.00     0.014 A 
ATOM     12  C13 NON d   1      28.008 -10.584   4.655  0.00  0.00     0.003 A 
ATOM     13  C14 NON d   1      27.322  -9.451   4.219  0.00  0.00     0.036 A 
ATOM     14  C15 NON d   1      26.739  -9.454   2.948  0.00  0.00     0.103 A 
ATOM     15  C16 NON d   1      26.839 -10.580   2.111  0.00  0.00     0.050 A 
BRANCH  14  16
ATOM     16  N3  NON d   1      26.016  -8.263   2.480  0.00  0.00    -0.116 N 
ATOM     17  O3  NON d   1      25.181  -8.407   1.574  0.00  0.00    -0.532 OA
ATOM     18  O4  NON d   1      26.280  -7.180   3.022  0.00  0.00    -0.532 OA
ENDBRANCH  14  16
ENDBRANCH   7  10
ENDBRANCH   3   5
BRANCH   1  19
ATOM     19  C7  NON d   1      24.810 -16.835  -1.543  0.00  0.00     0.103 C 
BRANCH  19  20
ATOM     20  C6  NON d   1      24.353 -17.682  -0.351  0.00  0.00     0.009 C 
BRANCH  20  21
ATOM     21  C5  NON d   1      23.391 -18.805  -0.754  0.00  0.00     0.000 C 
BRANCH  21  22
ATOM     22  C4  NON d   1      21.953 -18.607  -0.253  0.00  0.00     0.000 C 
BRANCH  22  23
ATOM     23  C3  NON d   1      20.840 -18.979  -1.248  0.00  0.00     0.009 C 
BRANCH  23  24
ATOM     24  C2  NON d   1      19.455 -19.095  -0.621  0.00  0.00     0.105 C 
BRANCH  24  25
ATOM     25  C1  NON d   1      19.246 -20.371   0.187  0.00  0.00     0.240 C 
ATOM     26  O1  NON d   1      20.062 -20.813   0.988  0.00  0.00    -0.271 OA
ATOM     27  N4  NON d   1      18.050 -20.984  -0.149  0.00  0.00    -0.237 N 
ATOM     28  H19 NON d   1      17.285 -20.410  -0.491  0.00  0.00     0.197 HD
BRANCH  27  29
ATOM     29  O5  NON d   1      17.655 -22.046   0.695  0.00  0.00    -0.287 OA
ATOM     30  H20 NON d   1      18.473 -22.228   1.194  0.00  0.00     0.244 HD
ENDBRANCH  27  29
ENDBRANCH  24  25
ENDBRANCH  23  24
ENDBRANCH  22  23
ENDBRANCH  21  22
ENDBRANCH  20  21
ENDBRANCH  19  20
ENDBRANCH   1  19
TORSDOF 11
ENDMDL
MODEL 4
REMARK VINA RESULT:    -8.146      1.505      2.064
REMARK INTER + INTRA:         -12.648
REMARK INTER:                 -11.428
REMARK INTRA:                  -1.220
REMARK CONF_INDEPENDENT:        3.281
REMARK UNBOUND:                -1.220
REMARK  11 active torsions:
REMARK  status: ('A' for Active; 'I' for Inactive)
REMARK    1  A    between atoms: C1_2  and  C2_3 
REMARK       I    between atoms: C1_2  and  N4_26 
REMARK    2  A    between atoms: C2_3  and  C3_4 
REMARK    3  A    between atoms: C3_4  and  C4_5 
REMARK    4  A    between atoms: C4_5  and  C5_6 
REMARK    5  A    between atoms: C5_6  and  C6_7 
REMARK    6  A    between atoms: C6_7  and  C7_8 
REMARK    7  A    between atoms: C7_8  and  C8_9 
REMARK       I    between atoms: C8_9  and  N1_11 
REMARK    8  A    between atoms: N1_11  and  C9_12 
REMARK    9  A    between atoms: C10_14  and  C11_15 
REMARK   10  A    between atoms: C15_19  and  N3_20 
REMARK   11  A    between atoms: N4_26  and  O5_27 
ROOT
ATOM      1  C8  NON d   1      27.063 -15.720   0.612  0.00  0.00     0.223 C 
ATOM      2  O2  NON d   1      26.201 -15.123  -0.021  0.00  0.00    -0.273 OA
ATOM      3  N1  NON d   1      27.914 -15.186   1.560  0.00  0.00    -0.306 N 
ATOM      4  H13 NON d   1      28.606 -15.764   2.011  0.00  0.00     0.171 HD
ENDROOT
BRANCH   3   5
ATOM      5  C9  NON d   1      27.909 -13.864   1.911  0.00  0.00     0.173 A 
ATOM      6  N2  NON d   1      27.571 -12.810   1.216  0.00  0.00    -0.223 NA
ATOM      7  C10 NON d   1      27.726 -11.661   1.982  0.00  0.00     0.076 A 
ATOM      8  C17 NON d   1      28.192 -11.895   3.263  0.00  0.00     0.085 A 
ATOM      9  S1  NON d   1      28.427 -13.577   3.510  0.00  0.00    -0.061 SA
BRANCH   7  10
ATOM     10  C11 NON d   1      27.401 -10.339   1.431  0.00  0.00    -0.004 A 
ATOM     11  C12 NON d   1      27.566 -10.114   0.053  0.00  0.00     0.014 A 
ATOM     12  C13 NON d   1      27.263  -8.877  -0.524  0.00  0.00     0.003 A 
ATOM     13  C14 NON d   1      26.789  -7.833   0.268  0.00  0.00     0.036 A 
ATOM     14  C15 NON d   1      26.622  -8.040   1.641  0.00  0.00     0.103 A 
ATOM     15  C16 NON d   1      26.925  -9.284   2.225  0.00  0.00     0.050 A 
BRANCH  14  16
ATOM     16  N3  NON d   1      26.121  -6.945   2.484  0.00  0.00    -0.116 N 
ATOM     17  O3  NON d   1      26.660  -6.765   3.586  0.00  0.00    -0.532 OA
ATOM     18  O4  NON d   1      25.187  -6.260   2.040  0.00  0.00    -0.532 OA
ENDBRANCH  14  16
ENDBRANCH   7  10
ENDBRANCH   3   5
BRANCH   1  19
ATOM     19  C7  NON d   1      27.331 -17.209   0.421  0.00  0.00     0.103 C 
BRANCH  19  20
ATOM     20  C6  NON d   1      26.080 -18.092   0.472  0.00  0.00     0.009 C 
BRANCH  20  21
ATOM     21  C5  NON d   1      25.150 -17.874  -0.726  0.00  0.00     0.000 C 
BRANCH  21  22
ATOM     22  C4  NON d   1      23.794 -17.252  -0.360  0.00  0.00     0.000 C 
BRANCH  22  23
ATOM     23  C3  NON d   1      22.554 -17.989  -0.893  0.00  0.00     0.009 C 
BRANCH  23  24
ATOM     24  C2  NON d   1      22.264 -19.312  -0.194  0.00  0.00     0.105 C 
BRANCH  24  25
ATOM     25  C1  NON d   1      20.800 -19.733  -0.246  0.00  0.00     0.240 C 
ATOM     26  O1  NON d   1      20.123 -19.725  -1.268  0.00  0.00    -0.271 OA
ATOM     27  N4  NON d   1      20.330 -20.062   1.014  0.00  0.00    -0.237 N 
ATOM     28  H19 NON d   1      20.986 -20.416   1.704  0.00  0.00     0.197 HD
BRANCH  27  29
ATOM     29  O5  NON d   1      19.058 -20.676   1.047  0.00  0.00    -0.287 OA
ATOM     30  H20 NON d   1      19.078 -21.234   0.247  0.00  0.00     0.244 HD
ENDBRANCH  27  29
ENDBRANCH  24  25
ENDBRANCH  23  24
ENDBRANCH  22  23
ENDBRANCH  21  22
ENDBRANCH  20  21
ENDBRANCH  19  20
ENDBRANCH   1  19
TORSDOF 11
ENDMDL
MODEL 5
REMARK VINA RESULT:    -7.911      3.161      3.568
REMARK INTER + INTRA:         -12.901
REMARK INTER:                 -11.192
REMARK INTRA:                  -1.709
REMARK CONF_INDEPENDENT:        3.281
REMARK UNBOUND:                -1.709
REMARK  11 active torsions:
REMARK  status: ('A' for Active; 'I' for Inactive)
REMARK    1  A    between atoms: C1_2  and  C2_3 
REMARK       I    between atoms: C1_2  and  N4_26 
REMARK    2  A    between atoms: C2_3  and  C3_4 
REMARK    3  A    between atoms: C3_4  and  C4_5 
REMARK    4  A    between atoms: C4_5  and  C5_6 
REMARK    5  A    between atoms: C5_6  and  C6_7 
REMARK    6  A    between atoms: C6_7  and  C7_8 
REMARK    7  A    between atoms: C7_8  and  C8_9 
REMARK       I    between atoms: C8_9  and  N1_11 
REMARK    8  A    between atoms: N1_11  and  C9_12 
REMARK    9  A    between atoms: C10_14  and  C11_15 
REMARK   10  A    between atoms: C15_19  and  N3_20 
REMARK   11  A    between atoms: N4_26  and  O5_27 
ROOT
ATOM      1  C8  NON d   1      27.446 -15.133   0.608  0.00  0.00     0.223 C 
ATOM      2  O2  NON d   1      26.832 -14.166   0.174  0.00  0.00    -0.273 OA
ATOM      3  N1  NON d   1      28.028 -15.254   1.855  0.00  0.00    -0.306 N 
ATOM      4  H13 NON d   1      28.530 -16.091   2.107  0.00  0.00     0.171 HD
ENDROOT
BRANCH   3   5
ATOM      5  C9  NON d   1      28.001 -14.260   2.793  0.00  0.00     0.173 A 
ATOM      6  N2  NON d   1      27.881 -12.967   2.645  0.00  0.00    -0.223 NA
ATOM      7  C10 NON d   1      27.908 -12.338   3.884  0.00  0.00     0.076 A 
ATOM      8  C17 NON d   1      28.055 -13.203   4.953  0.00  0.00     0.085 A 
ATOM      9  S1  NON d   1      28.149 -14.824   4.396  0.00  0.00    -0.061 SA
BRANCH   7  10
ATOM     10  C11 NON d   1      27.780 -10.879   3.992  0.00  0.00    -0.004 A 
ATOM     11  C12 NON d   1      28.569 -10.191   4.930  0.00  0.00     0.014 A 
ATOM     12  C13 NON d   1      28.493  -8.802   5.068  0.00  0.00     0.003 A 
ATOM     13  C14 NON d   1      27.620  -8.067   4.266  0.00  0.00     0.036 A 
ATOM     14  C15 NON d   1      26.827  -8.737   3.329  0.00  0.00     0.103 A 
ATOM     15  C16 NON d   1      26.901 -10.135   3.188  0.00  0.00     0.050 A 
BRANCH  14  16
ATOM     16  N3  NON d   1      25.905  -7.970   2.480  0.00  0.00    -0.116 N 
ATOM     17  O3  NON d   1      25.167  -8.597   1.707  0.00  0.00    -0.532 OA
ATOM     18  O4  NON d   1      25.916  -6.735   2.589  0.00  0.00    -0.532 OA
ENDBRANCH  14  16
ENDBRANCH   7  10
ENDBRANCH   3   5
BRANCH   1  19
ATOM     19  C7  NON d   1      27.669 -16.396  -0.219  0.00  0.00     0.103 C 
BRANCH  19  20
ATOM     20  C6  NON d   1      27.077 -17.669   0.392  0.00  0.00     0.009 C 
BRANCH  20  21
ATOM     21  C5  NON d   1      25.766 -18.096  -0.278  0.00  0.00     0.000 C 
BRANCH  21  22
ATOM     22  C4  NON d   1      24.799 -16.935  -0.555  0.00  0.00     0.000 C 
BRANCH  22  23
ATOM     23  C3  NON d   1      24.682 -16.498  -2.025  0.00  0.00     0.009 C 
BRANCH  23  24
ATOM     24  C2  NON d   1      25.227 -15.102  -2.307  0.00  0.00     0.105 C 
BRANCH  24  25
ATOM     25  C1  NON d   1      25.475 -14.821  -3.785  0.00  0.00     0.240 C 
ATOM     26  O1  NON d   1      24.777 -14.078  -4.465  0.00  0.00    -0.271 OA
ATOM     27  N4  NON d   1      26.547 -15.559  -4.260  0.00  0.00    -0.237 N 
ATOM     28  H19 NON d   1      27.283 -15.825  -3.613  0.00  0.00     0.197 HD
BRANCH  27  29
ATOM     29  O5  NON d   1      26.999 -15.209  -5.552  0.00  0.00    -0.287 OA
ATOM     30  H20 NON d   1      26.473 -14.410  -5.745  0.00  0.00     0.244 HD
ENDBRANCH  27  29
ENDBRANCH  24  25
ENDBRANCH  23  24
ENDBRANCH  22  23
ENDBRANCH  21  22
ENDBRANCH  20  21
ENDBRANCH  19  20
ENDBRANCH   1  19
TORSDOF 11
ENDMDL
MODEL 6
REMARK VINA RESULT:    -7.889      1.792      2.247
REMARK INTER + INTRA:         -12.734
REMARK INTER:                 -11.170
REMARK INTRA:                  -1.564
REMARK CONF_INDEPENDENT:        3.281
REMARK UNBOUND:                -1.564
REMARK  11 active torsions:
REMARK  status: ('A' for Active; 'I' for Inactive)
REMARK    1  A    between atoms: C1_2  and  C2_3 
REMARK       I    between atoms: C1_2  and  N4_26 
REMARK    2  A    between atoms: C2_3  and  C3_4 
REMARK    3  A    between atoms: C3_4  and  C4_5 
REMARK    4  A    between atoms: C4_5  and  C5_6 
REMARK    5  A    between atoms: C5_6  and  C6_7 
REMARK    6  A    between atoms: C6_7  and  C7_8 
REMARK    7  A    between atoms: C7_8  and  C8_9 
REMARK       I    between atoms: C8_9  and  N1_11 
REMARK    8  A    between atoms: N1_11  and  C9_12 
REMARK    9  A    between atoms: C10_14  and  C11_15 
REMARK   10  A    between atoms: C15_19  and  N3_20 
REMARK   11  A    between atoms: N4_26  and  O5_27 
ROOT
ATOM      1  C8  NON d   1      26.123 -14.062  -1.990  0.00  0.00     0.223 C 
ATOM      2  O2  NON d   1      26.083 -12.838  -2.027  0.00  0.00    -0.273 OA
ATOM      3  N1  NON d   1      26.622 -14.844  -0.967  0.00  0.00    -0.306 N 
ATOM      4  H13 NON d   1      26.626 -15.849  -1.046  0.00  0.00     0.171 HD
ENDROOT
BRANCH   3   5
ATOM      5  C9  NON d   1      27.170 -14.325   0.174  0.00  0.00     0.173 A 
ATOM      6  N2  NON d   1      26.918 -13.202   0.792  0.00  0.00    -0.223 NA
ATOM      7  C10 NON d   1      27.722 -13.085   1.920  0.00  0.00     0.076 A 
ATOM      8  C17 NON d   1      28.579 -14.153   2.116  0.00  0.00     0.085 A 
ATOM      9  S1  NON d   1      28.364 -15.320   0.876  0.00  0.00    -0.061 SA
BRANCH   7  10
ATOM     10  C11 NON d   1      27.624 -11.911   2.797  0.00  0.00    -0.004 A 
ATOM     11  C12 NON d   1      28.179 -11.974   4.087  0.00  0.00     0.014 A 
ATOM     12  C13 NON d   1      28.121 -10.882   4.959  0.00  0.00     0.003 A 
ATOM     13  C14 NON d   1      27.502  -9.699   4.557  0.00  0.00     0.036 A 
ATOM     14  C15 NON d   1      26.943  -9.622   3.278  0.00  0.00     0.103 A 
ATOM     15  C16 NON d   1      27.000 -10.718   2.398  0.00  0.00     0.050 A 
BRANCH  14  16
ATOM     16  N3  NON d   1      26.290  -8.378   2.846  0.00  0.00    -0.116 N 
ATOM     17  O3  NON d   1      26.656  -7.316   3.369  0.00  0.00    -0.532 OA
ATOM     18  O4  NON d   1      25.408  -8.464   1.978  0.00  0.00    -0.532 OA
ENDBRANCH  14  16
ENDBRANCH   7  10
ENDBRANCH   3   5
BRANCH   1  19
ATOM     19  C7  NON d   1      25.608 -14.929  -3.134  0.00  0.00     0.103 C 
BRANCH  19  20
ATOM     20  C6  NON d   1      25.312 -16.381  -2.748  0.00  0.00     0.009 C 
BRANCH  20  21
ATOM     21  C5  NON d   1      24.258 -16.499  -1.641  0.00  0.00     0.000 C 
BRANCH  21  22
ATOM     22  C4  NON d   1      24.788 -17.115  -0.337  0.00  0.00     0.000 C 
BRANCH  22  23
ATOM     23  C3  NON d   1      24.072 -18.390   0.139  0.00  0.00     0.009 C 
BRANCH  23  24
ATOM     24  C2  NON d   1      22.555 -18.260   0.225  0.00  0.00     0.105 C 
BRANCH  24  25
ATOM     25  C1  NON d   1      21.813 -18.878  -0.954  0.00  0.00     0.240 C 
ATOM     26  O1  NON d   1      22.356 -19.227  -1.996  0.00  0.00    -0.271 OA
ATOM     27  N4  NON d   1      20.450 -18.935  -0.712  0.00  0.00    -0.237 N 
ATOM     28  H19 NON d   1      20.126 -19.005   0.248  0.00  0.00     0.197 HD
BRANCH  27  29
ATOM     29  O5  NON d   1      19.700 -19.690  -1.641  0.00  0.00    -0.287 OA
ATOM     30  H20 NON d   1      20.242 -19.620  -2.449  0.00  0.00     0.244 HD
ENDBRANCH  27  29
ENDBRANCH  24  25
ENDBRANCH  23  24
ENDBRANCH  22  23
ENDBRANCH  21  22
ENDBRANCH  20  21
ENDBRANCH  19  20
ENDBRANCH   1  19
TORSDOF 11
ENDMDL
MODEL 7
REMARK VINA RESULT:    -6.488      6.300      9.055
REMARK INTER + INTRA:         -12.718
REMARK INTER:                  -9.769
REMARK INTRA:                  -2.949
REMARK CONF_INDEPENDENT:        3.281
REMARK UNBOUND:                -2.949
REMARK  11 active torsions:
REMARK  status: ('A' for Active; 'I' for Inactive)
REMARK    1  A    between atoms: C1_2  and  C2_3 
REMARK       I    between atoms: C1_2  and  N4_26 
REMARK    2  A    between atoms: C2_3  and  C3_4 
REMARK    3  A    between atoms: C3_4  and  C4_5 
REMARK    4  A    between atoms: C4_5  and  C5_6 
REMARK    5  A    between atoms: C5_6  and  C6_7 
REMARK    6  A    between atoms: C6_7  and  C7_8 
REMARK    7  A    between atoms: C7_8  and  C8_9 
REMARK       I    between atoms: C8_9  and  N1_11 
REMARK    8  A    between atoms: N1_11  and  C9_12 
REMARK    9  A    between atoms: C10_14  and  C11_15 
REMARK   10  A    between atoms: C15_19  and  N3_20 
REMARK   11  A    between atoms: N4_26  and  O5_27 
ROOT
ATOM      1  C8  NON d   1      28.431 -14.621  -5.734  0.00  0.00     0.223 C 
ATOM      2  O2  NON d   1      27.659 -15.183  -6.502  0.00  0.00    -0.273 OA
ATOM      3  N1  NON d   1      28.219 -14.351  -4.396  0.00  0.00    -0.306 N 
ATOM      4  H13 NON d   1      28.916 -13.863  -3.856  0.00  0.00     0.171 HD
ENDROOT
BRANCH   3   5
ATOM      5  C9  NON d   1      27.064 -14.677  -3.740  0.00  0.00     0.173 A 
ATOM      6  N2  NON d   1      26.803 -15.682  -2.947  0.00  0.00    -0.223 NA
ATOM      7  C10 NON d   1      25.486 -15.615  -2.506  0.00  0.00     0.076 A 
ATOM      8  C17 NON d   1      24.780 -14.533  -3.001  0.00  0.00     0.085 A 
ATOM      9  S1  NON d   1      25.784 -13.585  -4.020  0.00  0.00    -0.061 SA
BRANCH   7  10
ATOM     10  C11 NON d   1      24.946 -16.627  -1.590  0.00  0.00    -0.004 A 
ATOM     11  C12 NON d   1      25.800 -17.214  -0.640  0.00  0.00     0.014 A 
ATOM     12  C13 NON d   1      25.335 -18.177   0.261  0.00  0.00     0.003 A 
ATOM     13  C14 NON d   1      24.000 -18.576   0.230  0.00  0.00     0.036 A 
ATOM     14  C15 NON d   1      23.138 -18.003  -0.710  0.00  0.00     0.103 A 
ATOM     15  C16 NON d   1      23.603 -17.034  -1.618  0.00  0.00     0.050 A 
BRANCH  14  16
ATOM     16  N3  NON d   1      21.729 -18.418  -0.749  0.00  0.00    -0.116 N 
ATOM     17  O3  NON d   1      21.473 -19.625  -0.630  0.00  0.00    -0.532 OA
ATOM     18  O4  NON d   1      20.873 -17.532  -0.895  0.00  0.00    -0.532 OA
ENDBRANCH  14  16
ENDBRANCH   7  10
ENDBRANCH   3   5
BRANCH   1  19
ATOM     19  C7  NON d   1      29.798 -14.112  -6.180  0.00  0.00     0.103 C 
BRANCH  19  20
ATOM     20  C6  NON d   1      30.722 -15.190  -6.755  0.00  0.00     0.009 C 
BRANCH  20  21
ATOM     21  C5  NON d   1      31.407 -16.027  -5.669  0.00  0.00     0.000 C 
BRANCH  21  22
ATOM     22  C4  NON d   1      31.028 -17.515  -5.695  0.00  0.00     0.000 C 
BRANCH  22  23
ATOM     23  C3  NON d   1      30.376 -18.063  -4.414  0.00  0.00     0.009 C 
BRANCH  23  24
ATOM     24  C2  NON d   1      29.920 -16.986  -3.436  0.00  0.00     0.105 C 
BRANCH  24  25
ATOM     25  C1  NON d   1      29.974 -17.414  -1.974  0.00  0.00     0.240 C 
ATOM     26  O1  NON d   1      30.862 -18.115  -1.500  0.00  0.00    -0.271 OA
ATOM     27  N4  NON d   1      28.866 -16.959  -1.279  0.00  0.00    -0.237 N 
ATOM     28  H19 NON d   1      28.406 -16.110  -1.593  0.00  0.00     0.197 HD
BRANCH  27  29
ATOM     29  O5  NON d   1      28.926 -17.109   0.125  0.00  0.00    -0.287 OA
ATOM     30  H20 NON d   1      29.580 -17.825   0.228  0.00  0.00     0.244 HD
ENDBRANCH  27  29
ENDBRANCH  24  25
ENDBRANCH  23  24
ENDBRANCH  22  23
ENDBRANCH  21  22
ENDBRANCH  20  21
ENDBRANCH  19  20
ENDBRANCH   1  19
TORSDOF 11
ENDMDL
MODEL 8
REMARK VINA RESULT:    -6.220      3.310      4.098
REMARK INTER + INTRA:         -12.987
REMARK INTER:                  -9.501
REMARK INTRA:                  -3.486
REMARK CONF_INDEPENDENT:        3.281
REMARK UNBOUND:                -3.486
REMARK  11 active torsions:
REMARK  status: ('A' for Active; 'I' for Inactive)
REMARK    1  A    between atoms: C1_2  and  C2_3 
REMARK       I    between atoms: C1_2  and  N4_26 
REMARK    2  A    between atoms: C2_3  and  C3_4 
REMARK    3  A    between atoms: C3_4  and  C4_5 
REMARK    4  A    between atoms: C4_5  and  C5_6 
REMARK    5  A    between atoms: C5_6  and  C6_7 
REMARK    6  A    between atoms: C6_7  and  C7_8 
REMARK    7  A    between atoms: C7_8  and  C8_9 
REMARK       I    between atoms: C8_9  and  N1_11 
REMARK    8  A    between atoms: N1_11  and  C9_12 
REMARK    9  A    between atoms: C10_14  and  C11_15 
REMARK   10  A    between atoms: C15_19  and  N3_20 
REMARK   11  A    between atoms: N4_26  and  O5_27 
ROOT
ATOM      1  C8  NON d   1      27.734 -16.304  -0.114  0.00  0.00     0.223 C 
ATOM      2  O2  NON d   1      28.067 -15.616  -1.072  0.00  0.00    -0.273 OA
ATOM      3  N1  NON d   1      27.412 -15.859   1.153  0.00  0.00    -0.306 N 
ATOM      4  H13 NON d   1      27.168 -16.514   1.879  0.00  0.00     0.171 HD
ENDROOT
BRANCH   3   5
ATOM      5  C9  NON d   1      27.441 -14.540   1.514  0.00  0.00     0.173 A 
ATOM      6  N2  NON d   1      27.239 -13.467   0.796  0.00  0.00    -0.223 NA
ATOM      7  C10 NON d   1      27.373 -12.330   1.584  0.00  0.00     0.076 A 
ATOM      8  C17 NON d   1      27.684 -12.594   2.906  0.00  0.00     0.085 A 
ATOM      9  S1  NON d   1      27.798 -14.287   3.162  0.00  0.00    -0.061 SA
BRANCH   7  10
ATOM     10  C11 NON d   1      27.184 -10.991   1.013  0.00  0.00    -0.004 A 
ATOM     11  C12 NON d   1      27.534 -10.765  -0.329  0.00  0.00     0.014 A 
ATOM     12  C13 NON d   1      27.367  -9.511  -0.925  0.00  0.00     0.003 A 
ATOM     13  C14 NON d   1      26.843  -8.451  -0.186  0.00  0.00     0.036 A 
ATOM     14  C15 NON d   1      26.492  -8.659   1.151  0.00  0.00     0.103 A 
ATOM     15  C16 NON d   1      26.659  -9.920   1.753  0.00  0.00     0.050 A 
BRANCH  14  16
ATOM     16  N3  NON d   1      25.938  -7.547   1.936  0.00  0.00    -0.116 N 
ATOM     17  O3  NON d   1      26.280  -7.445   3.124  0.00  0.00    -0.532 OA
ATOM     18  O4  NON d   1      25.161  -6.770   1.363  0.00  0.00    -0.532 OA
ENDBRANCH  14  16
ENDBRANCH   7  10
ENDBRANCH   3   5
BRANCH   1  19
ATOM     19  C7  NON d   1      27.635 -17.824  -0.197  0.00  0.00     0.103 C 
BRANCH  19  20
ATOM     20  C6  NON d   1      26.444 -18.426   0.554  0.00  0.00     0.009 C 
BRANCH  20  21
ATOM     21  C5  NON d   1      25.162 -18.450  -0.287  0.00  0.00     0.000 C 
BRANCH  21  22
ATOM     22  C4  NON d   1      24.297 -17.189  -0.144  0.00  0.00     0.000 C 
BRANCH  22  23
ATOM     23  C3  NON d   1      24.045 -16.399  -1.440  0.00  0.00     0.009 C 
BRANCH  23  24
ATOM     24  C2  NON d   1      25.308 -16.076  -2.230  0.00  0.00     0.105 C 
BRANCH  24  25
ATOM     25  C1  NON d   1      25.343 -14.658  -2.789  0.00  0.00     0.240 C 
ATOM     26  O1  NON d   1      24.661 -14.281  -3.735  0.00  0.00    -0.271 OA
ATOM     27  N4  NON d   1      26.283 -13.884  -2.128  0.00  0.00    -0.237 N 
ATOM     28  H19 NON d   1      26.510 -14.107  -1.164  0.00  0.00     0.197 HD
BRANCH  27  29
ATOM     29  O5  NON d   1      26.240 -12.501  -2.415  0.00  0.00    -0.287 OA
ATOM     30  H20 NON d   1      25.986 -12.494  -3.358  0.00  0.00     0.244 HD
ENDBRANCH  27  29
ENDBRANCH  24  25
ENDBRANCH  23  24
ENDBRANCH  22  23
ENDBRANCH  21  22
ENDBRANCH  20  21
ENDBRANCH  19  20
ENDBRANCH   1  19
TORSDOF 11
ENDMDL
MODEL 9
REMARK VINA RESULT:    -6.028      5.007      8.754
REMARK INTER + INTRA:         -13.177
REMARK INTER:                  -9.309
REMARK INTRA:                  -3.868
REMARK CONF_INDEPENDENT:        3.281
REMARK UNBOUND:                -3.868
REMARK  11 active torsions:
REMARK  status: ('A' for Active; 'I' for Inactive)
REMARK    1  A    between atoms: C1_2  and  C2_3 
REMARK       I    between atoms: C1_2  and  N4_26 
REMARK    2  A    between atoms: C2_3  and  C3_4 
REMARK    3  A    between atoms: C3_4  and  C4_5 
REMARK    4  A    between atoms: C4_5  and  C5_6 
REMARK    5  A    between atoms: C5_6  and  C6_7 
REMARK    6  A    between atoms: C6_7  and  C7_8 
REMARK    7  A    between atoms: C7_8  and  C8_9 
REMARK       I    between atoms: C8_9  and  N1_11 
REMARK    8  A    between atoms: N1_11  and  C9_12 
REMARK    9  A    between atoms: C10_14  and  C11_15 
REMARK   10  A    between atoms: C15_19  and  N3_20 
REMARK   11  A    between atoms: N4_26  and  O5_27 
ROOT
ATOM      1  C8  NON d   1      25.721 -12.253  -4.500  0.00  0.00     0.223 C 
ATOM      2  O2  NON d   1      25.224 -13.260  -4.989  0.00  0.00    -0.273 OA
ATOM      3  N1  NON d   1      26.207 -12.109  -3.215  0.00  0.00    -0.306 N 
ATOM      4  H13 NON d   1      26.581 -11.225  -2.905  0.00  0.00     0.171 HD
ENDROOT
BRANCH   3   5
ATOM      5  C9  NON d   1      26.178 -13.113  -2.287  0.00  0.00     0.173 A 
ATOM      6  N2  NON d   1      25.506 -14.233  -2.281  0.00  0.00    -0.223 NA
ATOM      7  C10 NON d   1      25.785 -14.954  -1.125  0.00  0.00     0.076 A 
ATOM      8  C17 NON d   1      26.680 -14.331  -0.274  0.00  0.00     0.085 A 
ATOM      9  S1  NON d   1      27.184 -12.831  -0.939  0.00  0.00    -0.061 SA
BRANCH   7  10
ATOM     10  C11 NON d   1      25.160 -16.260  -0.883  0.00  0.00    -0.004 A 
ATOM     11  C12 NON d   1      25.949 -17.312  -0.385  0.00  0.00     0.014 A 
ATOM     12  C13 NON d   1      25.403 -18.574  -0.129  0.00  0.00     0.003 A 
ATOM     13  C14 NON d   1      24.050 -18.811  -0.367  0.00  0.00     0.036 A 
ATOM     14  C15 NON d   1      23.253 -17.775  -0.863  0.00  0.00     0.103 A 
ATOM     15  C16 NON d   1      23.799 -16.505  -1.122  0.00  0.00     0.050 A 
BRANCH  14  16
ATOM     16  N3  NON d   1      21.825 -18.017  -1.115  0.00  0.00    -0.116 N 
ATOM     17  O3  NON d   1      21.030 -17.092  -0.895  0.00  0.00    -0.532 OA
ATOM     18  O4  NON d   1      21.498 -19.136  -1.539  0.00  0.00    -0.532 OA
ENDBRANCH  14  16
ENDBRANCH   7  10
ENDBRANCH   3   5
BRANCH   1  19
ATOM     19  C7  NON d   1      25.869 -10.953  -5.284  0.00  0.00     0.103 C 
BRANCH  19  20
ATOM     20  C6  NON d   1      27.130 -10.871  -6.149  0.00  0.00     0.009 C 
BRANCH  20  21
ATOM     21  C5  NON d   1      28.119 -12.007  -5.867  0.00  0.00     0.000 C 
BRANCH  21  22
ATOM     22  C4  NON d   1      28.428 -12.885  -7.089  0.00  0.00     0.000 C 
BRANCH  22  23
ATOM     23  C3  NON d   1      28.536 -14.395  -6.818  0.00  0.00     0.009 C 
BRANCH  23  24
ATOM     24  C2  NON d   1      28.882 -14.748  -5.376  0.00  0.00     0.105 C 
BRANCH  24  25
ATOM     25  C1  NON d   1      27.697 -15.252  -4.560  0.00  0.00     0.240 C 
ATOM     26  O1  NON d   1      27.769 -15.573  -3.379  0.00  0.00    -0.271 OA
ATOM     27  N4  NON d   1      26.559 -15.353  -5.343  0.00  0.00    -0.237 N 
ATOM     28  H19 NON d   1      26.460 -14.738  -6.145  0.00  0.00     0.197 HD
BRANCH  27  29
ATOM     29  O5  NON d   1      25.358 -15.595  -4.639  0.00  0.00    -0.287 OA
ATOM     30  H20 NON d   1      25.574 -15.269  -3.745  0.00  0.00     0.244 HD
ENDBRANCH  27  29
ENDBRANCH  24  25
ENDBRANCH  23  24
ENDBRANCH  22  23
ENDBRANCH  21  22
ENDBRANCH  20  21
ENDBRANCH  19  20
ENDBRANCH   1  19
TORSDOF 11
ENDMDL
