MODEL 1
REMARK VINA RESULT:   -30.518      0.000      0.000
REMARK INTER + INTRA:         -33.266
REMARK INTER:                 -31.711
REMARK INTRA:                  -1.554
REMARK CONF_INDEPENDENT:        1.193
REMARK UNBOUND:                -1.554
REMARK  4 active torsions:
REMARK  status: ('A' for Active; 'I' for Inactive)
REMARK    1  A    between atoms: N1_1  and  C1_2 
REMARK    2  A    between atoms: C4_5  and  C5_6 
REMARK    3  A    between atoms: C12_13  and  N2_14 
REMARK       I    between atoms: N2_14  and  C13_15 
REMARK    4  A    between atoms: C13_15  and  C14_17 
ROOT
ATOM      1  C1  NON d   1      25.827 -16.978  -0.406  0.00  0.00     0.033 A 
ATOM      2  C2  NON d   1      27.123 -16.578  -0.721  0.00  0.00     0.026 A 
ATOM      3  C3  NON d   1      27.357 -15.695  -1.784  0.00  0.00     0.014 A 
ATOM      4  C4  NON d   1      26.312 -15.182  -2.577  0.00  0.00    -0.024 A 
ATOM      5  C11 NON d   1      25.015 -15.638  -2.255  0.00  0.00     0.043 A 
ATOM      6  C12 NON d   1      24.764 -16.550  -1.220  0.00  0.00     0.057 A 
ENDROOT
BRANCH   6   7
ATOM      7  N2  NON d   1      23.493 -17.124  -0.962  0.00  0.00    -0.321 N 
ATOM      8  C13 NON d   1      23.212 -18.438  -0.637  0.00  0.00     0.257 C 
ATOM      9  O1  NON d   1      24.035 -19.347  -0.573  0.00  0.00    -0.267 OA
ATOM     10  H11 NON d   1      22.767 -16.422  -0.920  0.00  0.00     0.169 HD
BRANCH   8  11
ATOM     11  C14 NON d   1      21.792 -18.789  -0.349  0.00  0.00     0.049 A 
ATOM     12  C15 NON d   1      21.400 -18.970   0.985  0.00  0.00     0.020 A 
ATOM     13  C16 NON d   1      20.088 -19.326   1.290  0.00  0.00     0.020 A 
ATOM     14  C17 NON d   1      19.196 -19.490   0.245  0.00  0.00     0.116 A 
ATOM     15  N3  NON d   1      19.530 -19.325  -1.054  0.00  0.00    -0.272 NA
ATOM     16  C18 NON d   1      20.818 -18.982  -1.319  0.00  0.00     0.133 A 
ENDBRANCH   8  11
ENDBRANCH   6   7
BRANCH   1  17
ATOM     17  N1  NON d   1      25.600 -17.866   0.673  0.00  0.00    -0.301 NA
ATOM     18  H1  NON d   1      24.622 -17.877   0.957  0.00  0.00     0.124 HD
ATOM     19  H2  NON d   1      25.890 -18.808   0.419  0.00  0.00     0.124 HD
ENDBRANCH   1  17
BRANCH   4  20
ATOM     20  C5  NON d   1      26.558 -14.231  -3.710  0.00  0.00    -0.026 A 
ATOM     21  C6  NON d   1      27.605 -14.416  -4.636  0.00  0.00     0.012 A 
ATOM     22  C7  NON d   1      27.827 -13.532  -5.703  0.00  0.00     0.001 A 
ATOM     23  C8  NON d   1      27.014 -12.419  -5.870  0.00  0.00     0.000 A 
ATOM     24  C9  NON d   1      25.977 -12.196  -4.976  0.00  0.00     0.001 A 
ATOM     25  C10 NON d   1      25.752 -13.090  -3.921  0.00  0.00     0.012 A 
ENDBRANCH   4  20
TORSDOF 4
ENDMDL
MODEL 2
REMARK VINA RESULT:   -28.658      1.839      3.763
REMARK INTER + INTRA:         -31.036
REMARK INTER:                 -29.852
REMARK INTRA:                  -1.185
REMARK CONF_INDEPENDENT:        1.193
REMARK UNBOUND:                -1.185
REMARK  4 active torsions:
REMARK  status: ('A' for Active; 'I' for Inactive)
REMARK    1  A    between atoms: N1_1  and  C1_2 
REMARK    2  A    between atoms: C4_5  and  C5_6 
REMARK    3  A    between atoms: C12_13  and  N2_14 
REMARK       I    between atoms: N2_14  and  C13_15 
REMARK    4  A    between atoms: C13_15  and  C14_17 
ROOT
ATOM      1  C1  NON d   1      24.630 -14.891  -2.394  0.00  0.00     0.033 A 
ATOM      2  C2  NON d   1      25.742 -14.071  -2.566  0.00  0.00     0.026 A 
ATOM      3  C3  NON d   1      27.001 -14.471  -2.097  0.00  0.00     0.014 A 
ATOM      4  C4  NON d   1      27.200 -15.697  -1.434  0.00  0.00    -0.024 A 
ATOM      5  C11 NON d   1      26.044 -16.487  -1.242  0.00  0.00     0.043 A 
ATOM      6  C12 NON d   1      24.771 -16.088  -1.670  0.00  0.00     0.057 A 
ENDROOT
BRANCH   6   7
ATOM      7  N2  NON d   1      23.578 -16.798  -1.375  0.00  0.00    -0.321 N 
ATOM      8  C13 NON d   1      23.463 -18.053  -0.807  0.00  0.00     0.257 C 
ATOM      9  O1  NON d   1      24.401 -18.789  -0.511  0.00  0.00    -0.267 OA
ATOM     10  H11 NON d   1      22.758 -16.226  -1.519  0.00  0.00     0.169 HD
BRANCH   8  11
ATOM     11  C14 NON d   1      22.089 -18.564  -0.537  0.00  0.00     0.049 A 
ATOM     12  C15 NON d   1      21.715 -18.824   0.789  0.00  0.00     0.020 A 
ATOM     13  C16 NON d   1      20.449 -19.329   1.076  0.00  0.00     0.020 A 
ATOM     14  C17 NON d   1      19.584 -19.560   0.021  0.00  0.00     0.116 A 
ATOM     15  N3  NON d   1      19.902 -19.325  -1.270  0.00  0.00    -0.272 NA
ATOM     16  C18 NON d   1      21.145 -18.836  -1.518  0.00  0.00     0.133 A 
ENDBRANCH   8  11
ENDBRANCH   6   7
BRANCH   1  17
ATOM     17  N1  NON d   1      23.364 -14.482  -2.875  0.00  0.00    -0.301 NA
ATOM     18  H1  NON d   1      22.660 -14.478  -2.140  0.00  0.00     0.124 HD
ATOM     19  H2  NON d   1      23.429 -13.554  -3.288  0.00  0.00     0.124 HD
ENDBRANCH   1  17
BRANCH   4  20
ATOM     20  C5  NON d   1      28.547 -16.132  -0.938  0.00  0.00    -0.026 A 
ATOM     21  C6  NON d   1      29.233 -17.235  -1.489  0.00  0.00     0.012 A 
ATOM     22  C7  NON d   1      30.498 -17.634  -1.032  0.00  0.00     0.001 A 
ATOM     23  C8  NON d   1      31.115 -16.950   0.007  0.00  0.00     0.000 A 
ATOM     24  C9  NON d   1      30.470 -15.865   0.582  0.00  0.00     0.001 A 
ATOM     25  C10 NON d   1      29.212 -15.462   0.112  0.00  0.00     0.012 A 
ENDBRANCH   4  20
TORSDOF 4
ENDMDL
MODEL 3
REMARK VINA RESULT:   -28.134      2.573      4.061
REMARK INTER + INTRA:         -30.642
REMARK INTER:                 -29.328
REMARK INTRA:                  -1.314
REMARK CONF_INDEPENDENT:        1.193
REMARK UNBOUND:                -1.314
REMARK  4 active torsions:
REMARK  status: ('A' for Active; 'I' for Inactive)
REMARK    1  A    between atoms: N1_1  and  C1_2 
REMARK    2  A    between atoms: C4_5  and  C5_6 
REMARK    3  A    between atoms: C12_13  and  N2_14 
REMARK       I    between atoms: N2_14  and  C13_15 
REMARK    4  A    between atoms: C13_15  and  C14_17 
ROOT
ATOM      1  C1  NON d   1      25.370 -16.477  -2.017  0.00  0.00     0.033 A 
ATOM      2  C2  NON d   1      26.528 -15.754  -2.292  0.00  0.00     0.026 A 
ATOM      3  C3  NON d   1      27.123 -14.960  -1.301  0.00  0.00     0.014 A 
ATOM      4  C4  NON d   1      26.586 -14.851  -0.003  0.00  0.00    -0.024 A 
ATOM      5  C11 NON d   1      25.391 -15.567   0.229  0.00  0.00     0.043 A 
ATOM      6  C12 NON d   1      24.760 -16.336  -0.758  0.00  0.00     0.057 A 
ENDROOT
BRANCH   6   7
ATOM      7  N2  NON d   1      23.495 -16.956  -0.591  0.00  0.00    -0.321 N 
ATOM      8  C13 NON d   1      23.211 -18.309  -0.600  0.00  0.00     0.257 C 
ATOM      9  O1  NON d   1      24.024 -19.205  -0.813  0.00  0.00    -0.267 OA
ATOM     10  H11 NON d   1      22.782 -16.286  -0.334  0.00  0.00     0.169 HD
BRANCH   8  11
ATOM     11  C14 NON d   1      21.802 -18.720  -0.340  0.00  0.00     0.049 A 
ATOM     12  C15 NON d   1      21.401 -18.951   0.983  0.00  0.00     0.020 A 
ATOM     13  C16 NON d   1      20.100 -19.364   1.262  0.00  0.00     0.020 A 
ATOM     14  C17 NON d   1      19.228 -19.533   0.201  0.00  0.00     0.116 A 
ATOM     15  N3  NON d   1      19.571 -19.321  -1.088  0.00  0.00    -0.272 NA
ATOM     16  C18 NON d   1      20.848 -18.923  -1.327  0.00  0.00     0.133 A 
ENDBRANCH   8  11
ENDBRANCH   6   7
BRANCH   1  17
ATOM     17  N1  NON d   1      24.780 -17.281  -3.021  0.00  0.00    -0.301 NA
ATOM     18  H1  NON d   1      25.354 -17.325  -3.860  0.00  0.00     0.124 HD
ATOM     19  H2  NON d   1      24.621 -18.223  -2.669  0.00  0.00     0.124 HD
ENDBRANCH   1  17
BRANCH   4  20
ATOM     20  C5  NON d   1      27.224 -14.009   1.061  0.00  0.00    -0.026 A 
ATOM     21  C6  NON d   1      26.677 -12.777   1.476  0.00  0.00     0.012 A 
ATOM     22  C7  NON d   1      27.268 -11.995   2.479  0.00  0.00     0.001 A 
ATOM     23  C8  NON d   1      28.440 -12.415   3.095  0.00  0.00     0.000 A 
ATOM     24  C9  NON d   1      29.015 -13.617   2.710  0.00  0.00     0.001 A 
ATOM     25  C10 NON d   1      28.413 -14.400   1.716  0.00  0.00     0.012 A 
ENDBRANCH   4  20
TORSDOF 4
ENDMDL
MODEL 4
REMARK VINA RESULT:   -27.855      2.002      2.259
REMARK INTER + INTRA:         -30.263
REMARK INTER:                 -29.048
REMARK INTRA:                  -1.215
REMARK CONF_INDEPENDENT:        1.193
REMARK UNBOUND:                -1.215
REMARK  4 active torsions:
REMARK  status: ('A' for Active; 'I' for Inactive)
REMARK    1  A    between atoms: N1_1  and  C1_2 
REMARK    2  A    between atoms: C4_5  and  C5_6 
REMARK    3  A    between atoms: C12_13  and  N2_14 
REMARK       I    between atoms: N2_14  and  C13_15 
REMARK    4  A    between atoms: C13_15  and  C14_17 
ROOT
ATOM      1  C1  NON d   1      26.834 -17.307   0.337  0.00  0.00     0.033 A 
ATOM      2  C2  NON d   1      28.104 -16.774   0.137  0.00  0.00     0.026 A 
ATOM      3  C3  NON d   1      28.261 -15.491  -0.406  0.00  0.00     0.014 A 
ATOM      4  C4  NON d   1      27.160 -14.693  -0.776  0.00  0.00    -0.024 A 
ATOM      5  C11 NON d   1      25.887 -15.280  -0.595  0.00  0.00     0.043 A 
ATOM      6  C12 NON d   1      25.712 -16.575  -0.089  0.00  0.00     0.057 A 
ENDROOT
BRANCH   6   7
ATOM      7  N2  NON d   1      24.457 -17.235  -0.022  0.00  0.00    -0.321 N 
ATOM      8  C13 NON d   1      23.361 -17.047  -0.843  0.00  0.00     0.257 C 
ATOM      9  O1  NON d   1      23.283 -16.221  -1.748  0.00  0.00    -0.267 OA
ATOM     10  H11 NON d   1      24.467 -17.987   0.653  0.00  0.00     0.169 HD
BRANCH   8  11
ATOM     11  C14 NON d   1      22.169 -17.911  -0.609  0.00  0.00     0.049 A 
ATOM     12  C15 NON d   1      22.268 -18.960   0.315  0.00  0.00     0.020 A 
ATOM     13  C16 NON d   1      21.183 -19.804   0.540  0.00  0.00     0.020 A 
ATOM     14  C17 NON d   1      20.019 -19.573  -0.171  0.00  0.00     0.116 A 
ATOM     15  N3  NON d   1      19.879 -18.575  -1.070  0.00  0.00    -0.272 NA
ATOM     16  C18 NON d   1      20.956 -17.771  -1.269  0.00  0.00     0.133 A 
ENDBRANCH   8  11
ENDBRANCH   6   7
BRANCH   1  17
ATOM     17  N1  NON d   1      26.685 -18.601   0.892  0.00  0.00    -0.301 NA
ATOM     18  H1  NON d   1      26.116 -19.205   0.301  0.00  0.00     0.124 HD
ATOM     19  H2  NON d   1      27.598 -19.028   1.035  0.00  0.00     0.124 HD
ENDBRANCH   1  17
BRANCH   4  20
ATOM     20  C5  NON d   1      27.323 -13.318  -1.349  0.00  0.00    -0.026 A 
ATOM     21  C6  NON d   1      28.403 -12.479  -1.001  0.00  0.00     0.012 A 
ATOM     22  C7  NON d   1      28.561 -11.197  -1.547  0.00  0.00     0.001 A 
ATOM     23  C8  NON d   1      27.631 -10.702  -2.452  0.00  0.00     0.000 A 
ATOM     24  C9  NON d   1      26.551 -11.491  -2.815  0.00  0.00     0.001 A 
ATOM     25  C10 NON d   1      26.405 -12.777  -2.277  0.00  0.00     0.012 A 
ENDBRANCH   4  20
TORSDOF 4
ENDMDL
