MODEL 1
REMARK VINA RESULT:    -9.029      0.000      0.000
REMARK INTER + INTRA:         -11.959
REMARK INTER:                 -10.520
REMARK INTRA:                  -1.439
REMARK CONF_INDEPENDENT:        1.492
REMARK UNBOUND:                -1.439
REMARK  5 active torsions:
REMARK  status: ('A' for Active; 'I' for Inactive)
REMARK    1  A    between atoms: C1_2  and  C2_3 
REMARK       I    between atoms: C1_2  and  N2_21 
REMARK    2  A    between atoms: C3_4  and  C4_5 
REMARK    3  A    between atoms: N1_12  and  C11_13 
REMARK    4  A    between atoms: C11_13  and  C12_14 
REMARK    5  A    between atoms: N2_21  and  O2_22 
ROOT
ATOM      1  C4  NON d   1      22.155 -18.646  -0.544  0.00  0.00    -0.035 A 
ATOM      2  C5  NON d   1      22.084 -17.294  -0.890  0.00  0.00     0.013 A 
ATOM      3  C6  NON d   1      23.213 -16.467  -0.897  0.00  0.00     0.031 A 
ATOM      4  C7  NON d   1      24.443 -17.023  -0.515  0.00  0.00     0.044 A 
ATOM      5  C8  NON d   1      24.556 -18.366  -0.156  0.00  0.00    -0.007 A 
ATOM      6  C9  NON d   1      25.905 -18.575   0.229  0.00  0.00     0.031 C 
ATOM      7  C10 NON d   1      26.559 -17.363   0.159  0.00  0.00     0.092 C 
ATOM      8  N1  NON d   1      25.709 -16.447  -0.398  0.00  0.00    -0.352 N 
ATOM      9  C18 NON d   1      23.406 -19.188  -0.193  0.00  0.00     0.025 A 
ENDROOT
BRANCH   1  10
ATOM     10  C3  NON d   1      20.890 -19.411  -0.496  0.00  0.00     0.017 C 
ATOM     11  C2  NON d   1      20.344 -19.987   0.588  0.00  0.00     0.077 C 
BRANCH  11  12
ATOM     12  C1  NON d   1      19.019 -20.657   0.593  0.00  0.00     0.264 C 
ATOM     13  O1  NON d   1      18.687 -21.388   1.521  0.00  0.00    -0.266 OA
ATOM     14  N2  NON d   1      18.217 -20.456  -0.498  0.00  0.00    -0.234 N 
ATOM     15  H15 NON d   1      18.516 -20.034  -1.370  0.00  0.00     0.197 HD
BRANCH  14  16
ATOM     16  O2  NON d   1      16.996 -21.164  -0.520  0.00  0.00    -0.287 OA
ATOM     17  H16 NON d   1      17.186 -21.923   0.075  0.00  0.00     0.244 HD
ENDBRANCH  14  16
ENDBRANCH  11  12
ENDBRANCH   1  10
BRANCH   8  18
ATOM     18  C11 NON d   1      25.931 -15.038  -0.761  0.00  0.00     0.167 C 
BRANCH  18  19
ATOM     19  C12 NON d   1      25.868 -14.544  -2.189  0.00  0.00    -0.040 A 
ATOM     20  C13 NON d   1      25.894 -15.537  -3.193  0.00  0.00     0.009 A 
ATOM     21  C14 NON d   1      25.918 -15.208  -4.549  0.00  0.00     0.001 A 
ATOM     22  C15 NON d   1      25.904 -13.874  -4.933  0.00  0.00     0.000 A 
ATOM     23  C16 NON d   1      25.910 -12.876  -3.961  0.00  0.00     0.001 A 
ATOM     24  C17 NON d   1      25.928 -13.209  -2.601  0.00  0.00     0.009 A 
ENDBRANCH  18  19
ENDBRANCH   8  18
TORSDOF 5
ENDMDL
MODEL 2
REMARK VINA RESULT:    -8.674      1.259      1.975
REMARK INTER + INTRA:         -11.595
REMARK INTER:                 -10.166
REMARK INTRA:                  -1.429
REMARK CONF_INDEPENDENT:        1.492
REMARK UNBOUND:                -1.429
REMARK  5 active torsions:
REMARK  status: ('A' for Active; 'I' for Inactive)
REMARK    1  A    between atoms: C1_2  and  C2_3 
REMARK       I    between atoms: C1_2  and  N2_21 
REMARK    2  A    between atoms: C3_4  and  C4_5 
REMARK    3  A    between atoms: N1_12  and  C11_13 
REMARK    4  A    between atoms: C11_13  and  C12_14 
REMARK    5  A    between atoms: N2_21  and  O2_22 
ROOT
ATOM      1  C4  NON d   1      23.600 -17.957  -0.292  0.00  0.00    -0.035 A 
ATOM      2  C5  NON d   1      23.653 -16.703  -0.907  0.00  0.00     0.013 A 
ATOM      3  C6  NON d   1      24.863 -16.045  -1.151  0.00  0.00     0.031 A 
ATOM      4  C7  NON d   1      26.050 -16.665  -0.734  0.00  0.00     0.044 A 
ATOM      5  C8  NON d   1      26.041 -17.912  -0.110  0.00  0.00    -0.007 A 
ATOM      6  C9  NON d   1      27.385 -18.210   0.231  0.00  0.00     0.031 C 
ATOM      7  C10 NON d   1      28.163 -17.130  -0.128  0.00  0.00     0.092 C 
ATOM      8  N1  NON d   1      27.378 -16.242  -0.813  0.00  0.00    -0.352 N 
ATOM      9  C18 NON d   1      24.806 -18.572   0.092  0.00  0.00     0.025 A 
ENDROOT
BRANCH   1  10
ATOM     10  C3  NON d   1      22.265 -18.530  -0.012  0.00  0.00     0.017 C 
ATOM     11  C2  NON d   1      21.474 -19.175  -0.886  0.00  0.00     0.077 C 
BRANCH  11  12
ATOM     12  C1  NON d   1      20.185 -19.817  -0.520  0.00  0.00     0.264 C 
ATOM     13  O1  NON d   1      19.197 -19.700  -1.239  0.00  0.00    -0.266 OA
ATOM     14  N2  NON d   1      20.146 -20.499   0.666  0.00  0.00    -0.234 N 
ATOM     15  H15 NON d   1      20.860 -20.459   1.385  0.00  0.00     0.197 HD
BRANCH  14  16
ATOM     16  O2  NON d   1      18.894 -21.034   1.043  0.00  0.00    -0.287 OA
ATOM     17  H16 NON d   1      18.304 -20.700   0.332  0.00  0.00     0.244 HD
ENDBRANCH  14  16
ENDBRANCH  11  12
ENDBRANCH   1  10
BRANCH   8  18
ATOM     18  C11 NON d   1      27.727 -14.975  -1.474  0.00  0.00     0.167 C 
BRANCH  18  19
ATOM     19  C12 NON d   1      26.951 -14.428  -2.651  0.00  0.00    -0.040 A 
ATOM     20  C13 NON d   1      26.327 -13.175  -2.459  0.00  0.00     0.009 A 
ATOM     21  C14 NON d   1      25.520 -12.599  -3.441  0.00  0.00     0.001 A 
ATOM     22  C15 NON d   1      25.327 -13.262  -4.646  0.00  0.00     0.000 A 
ATOM     23  C16 NON d   1      25.904 -14.512  -4.847  0.00  0.00     0.001 A 
ATOM     24  C17 NON d   1      26.680 -15.106  -3.843  0.00  0.00     0.009 A 
ENDBRANCH  18  19
ENDBRANCH   8  18
TORSDOF 5
ENDMDL
MODEL 3
REMARK VINA RESULT:    -8.497      1.684      2.173
REMARK INTER + INTRA:         -11.376
REMARK INTER:                  -9.988
REMARK INTRA:                  -1.388
REMARK CONF_INDEPENDENT:        1.492
REMARK UNBOUND:                -1.388
REMARK  5 active torsions:
REMARK  status: ('A' for Active; 'I' for Inactive)
REMARK    1  A    between atoms: C1_2  and  C2_3 
REMARK       I    between atoms: C1_2  and  N2_21 
REMARK    2  A    between atoms: C3_4  and  C4_5 
REMARK    3  A    between atoms: N1_12  and  C11_13 
REMARK    4  A    between atoms: C11_13  and  C12_14 
REMARK    5  A    between atoms: N2_21  and  O2_22 
ROOT
ATOM      1  C4  NON d   1      23.623 -17.873  -0.340  0.00  0.00    -0.035 A 
ATOM      2  C5  NON d   1      23.599 -16.670  -1.051  0.00  0.00     0.013 A 
ATOM      3  C6  NON d   1      24.765 -15.950  -1.335  0.00  0.00     0.031 A 
ATOM      4  C7  NON d   1      25.986 -16.453  -0.861  0.00  0.00     0.044 A 
ATOM      5  C8  NON d   1      26.052 -17.646  -0.142  0.00  0.00    -0.007 A 
ATOM      6  C9  NON d   1      27.409 -17.822   0.234  0.00  0.00     0.031 C 
ATOM      7  C10 NON d   1      28.116 -16.722  -0.201  0.00  0.00     0.092 C 
ATOM      8  N1  NON d   1      27.283 -15.946  -0.960  0.00  0.00    -0.352 N 
ATOM      9  C18 NON d   1      24.863 -18.372   0.100  0.00  0.00     0.025 A 
ENDROOT
BRANCH   1  10
ATOM     10  C3  NON d   1      22.327 -18.513  -0.029  0.00  0.00     0.017 C 
ATOM     11  C2  NON d   1      21.476 -19.066  -0.910  0.00  0.00     0.077 C 
BRANCH  11  12
ATOM     12  C1  NON d   1      20.234 -19.785  -0.526  0.00  0.00     0.264 C 
ATOM     13  O1  NON d   1      19.218 -19.694  -1.208  0.00  0.00    -0.266 OA
ATOM     14  N2  NON d   1      20.269 -20.506   0.636  0.00  0.00    -0.234 N 
ATOM     15  H15 NON d   1      21.005 -20.455   1.332  0.00  0.00     0.197 HD
BRANCH  14  16
ATOM     16  O2  NON d   1      19.059 -21.117   1.034  0.00  0.00    -0.287 OA
ATOM     17  H16 NON d   1      18.387 -20.519   0.640  0.00  0.00     0.244 HD
ENDBRANCH  14  16
ENDBRANCH  11  12
ENDBRANCH   1  10
BRANCH   8  18
ATOM     18  C11 NON d   1      27.553 -14.712  -1.715  0.00  0.00     0.167 C 
BRANCH  18  19
ATOM     19  C12 NON d   1      27.719 -14.695  -3.218  0.00  0.00    -0.040 A 
ATOM     20  C13 NON d   1      26.529 -14.769  -3.977  0.00  0.00     0.009 A 
ATOM     21  C14 NON d   1      26.551 -14.838  -5.370  0.00  0.00     0.001 A 
ATOM     22  C15 NON d   1      27.768 -14.824  -6.039  0.00  0.00     0.000 A 
ATOM     23  C16 NON d   1      28.955 -14.783  -5.313  0.00  0.00     0.001 A 
ATOM     24  C17 NON d   1      28.931 -14.756  -3.912  0.00  0.00     0.009 A 
ENDBRANCH  18  19
ENDBRANCH   8  18
TORSDOF 5
ENDMDL
MODEL 4
REMARK VINA RESULT:    -8.291      2.161      3.389
REMARK INTER + INTRA:         -11.026
REMARK INTER:                  -9.782
REMARK INTRA:                  -1.244
REMARK CONF_INDEPENDENT:        1.492
REMARK UNBOUND:                -1.244
REMARK  5 active torsions:
REMARK  status: ('A' for Active; 'I' for Inactive)
REMARK    1  A    between atoms: C1_2  and  C2_3 
REMARK       I    between atoms: C1_2  and  N2_21 
REMARK    2  A    between atoms: C3_4  and  C4_5 
REMARK    3  A    between atoms: N1_12  and  C11_13 
REMARK    4  A    between atoms: C11_13  and  C12_14 
REMARK    5  A    between atoms: N2_21  and  O2_22 
ROOT
ATOM      1  C4  NON d   1      22.586 -18.546  -0.626  0.00  0.00    -0.035 A 
ATOM      2  C5  NON d   1      22.500 -17.155  -0.738  0.00  0.00     0.013 A 
ATOM      3  C6  NON d   1      23.616 -16.326  -0.580  0.00  0.00     0.031 A 
ATOM      4  C7  NON d   1      24.847 -16.925  -0.274  0.00  0.00     0.044 A 
ATOM      5  C8  NON d   1      24.974 -18.307  -0.147  0.00  0.00    -0.007 A 
ATOM      6  C9  NON d   1      26.319 -18.563   0.225  0.00  0.00     0.031 C 
ATOM      7  C10 NON d   1      26.955 -17.349   0.376  0.00  0.00     0.092 C 
ATOM      8  N1  NON d   1      26.102 -16.361  -0.033  0.00  0.00    -0.352 N 
ATOM      9  C18 NON d   1      23.837 -19.125  -0.347  0.00  0.00     0.025 A 
ENDROOT
BRANCH   1  10
ATOM     10  C3  NON d   1      21.332 -19.323  -0.736  0.00  0.00     0.017 C 
ATOM     11  C2  NON d   1      20.504 -19.651   0.270  0.00  0.00     0.077 C 
BRANCH  11  12
ATOM     12  C1  NON d   1      19.205 -20.348   0.082  0.00  0.00     0.264 C 
ATOM     13  O1  NON d   1      18.476 -20.073  -0.866  0.00  0.00    -0.266 OA
ATOM     14  N2  NON d   1      18.851 -21.267   1.031  0.00  0.00    -0.234 N 
ATOM     15  H15 NON d   1      19.311 -21.387   1.927  0.00  0.00     0.197 HD
BRANCH  14  16
ATOM     16  O2  NON d   1      17.578 -21.863   0.886  0.00  0.00    -0.287 OA
ATOM     17  H16 NON d   1      17.425 -21.790  -0.081  0.00  0.00     0.244 HD
ENDBRANCH  14  16
ENDBRANCH  11  12
ENDBRANCH   1  10
BRANCH   8  18
ATOM     18  C11 NON d   1      26.309 -14.909  -0.146  0.00  0.00     0.167 C 
BRANCH  18  19
ATOM     19  C12 NON d   1      26.861 -14.073   0.987  0.00  0.00    -0.040 A 
ATOM     20  C13 NON d   1      27.797 -14.709   1.832  0.00  0.00     0.009 A 
ATOM     21  C14 NON d   1      28.322 -14.071   2.956  0.00  0.00     0.001 A 
ATOM     22  C15 NON d   1      27.929 -12.773   3.256  0.00  0.00     0.000 A 
ATOM     23  C16 NON d   1      26.983 -12.136   2.457  0.00  0.00     0.001 A 
ATOM     24  C17 NON d   1      26.427 -12.795   1.353  0.00  0.00     0.009 A 
ENDBRANCH  18  19
ENDBRANCH   8  18
TORSDOF 5
ENDMDL
MODEL 5
REMARK VINA RESULT:    -8.186      2.833      4.518
REMARK INTER + INTRA:         -11.048
REMARK INTER:                  -9.677
REMARK INTRA:                  -1.371
REMARK CONF_INDEPENDENT:        1.492
REMARK UNBOUND:                -1.371
REMARK  5 active torsions:
REMARK  status: ('A' for Active; 'I' for Inactive)
REMARK    1  A    between atoms: C1_2  and  C2_3 
REMARK       I    between atoms: C1_2  and  N2_21 
REMARK    2  A    between atoms: C3_4  and  C4_5 
REMARK    3  A    between atoms: N1_12  and  C11_13 
REMARK    4  A    between atoms: C11_13  and  C12_14 
REMARK    5  A    between atoms: N2_21  and  O2_22 
ROOT
ATOM      1  C4  NON d   1      24.041 -17.786  -0.817  0.00  0.00    -0.035 A 
ATOM      2  C5  NON d   1      25.024 -18.134   0.114  0.00  0.00     0.013 A 
ATOM      3  C6  NON d   1      26.212 -17.406   0.248  0.00  0.00     0.031 A 
ATOM      4  C7  NON d   1      26.418 -16.312  -0.605  0.00  0.00     0.044 A 
ATOM      5  C8  NON d   1      25.466 -15.936  -1.551  0.00  0.00    -0.007 A 
ATOM      6  C9  NON d   1      26.016 -14.847  -2.275  0.00  0.00     0.031 C 
ATOM      7  C10 NON d   1      27.293 -14.627  -1.806  0.00  0.00     0.092 C 
ATOM      8  N1  NON d   1      27.499 -15.436  -0.721  0.00  0.00    -0.352 N 
ATOM      9  C18 NON d   1      24.258 -16.666  -1.641  0.00  0.00     0.025 A 
ENDROOT
BRANCH   1  10
ATOM     10  C3  NON d   1      22.858 -18.666  -0.929  0.00  0.00     0.017 C 
ATOM     11  C2  NON d   1      21.572 -18.297  -0.807  0.00  0.00     0.077 C 
BRANCH  11  12
ATOM     12  C1  NON d   1      20.421 -19.210  -1.030  0.00  0.00     0.264 C 
ATOM     13  O1  NON d   1      20.281 -19.795  -2.100  0.00  0.00    -0.266 OA
ATOM     14  N2  NON d   1      19.516 -19.328  -0.011  0.00  0.00    -0.234 N 
ATOM     15  H15 NON d   1      19.473 -18.725   0.803  0.00  0.00     0.197 HD
BRANCH  14  16
ATOM     16  O2  NON d   1      18.385 -20.134  -0.266  0.00  0.00    -0.287 OA
ATOM     17  H16 NON d   1      18.280 -20.043  -1.238  0.00  0.00     0.244 HD
ENDBRANCH  14  16
ENDBRANCH  11  12
ENDBRANCH   1  10
BRANCH   8  18
ATOM     18  C11 NON d   1      28.654 -15.540   0.185  0.00  0.00     0.167 C 
BRANCH  18  19
ATOM     19  C12 NON d   1      28.716 -14.819   1.513  0.00  0.00    -0.040 A 
ATOM     20  C13 NON d   1      27.485 -14.356   2.028  0.00  0.00     0.009 A 
ATOM     21  C14 NON d   1      27.417 -13.611   3.206  0.00  0.00     0.001 A 
ATOM     22  C15 NON d   1      28.583 -13.320   3.903  0.00  0.00     0.000 A 
ATOM     23  C16 NON d   1      29.811 -13.738   3.399  0.00  0.00     0.001 A 
ATOM     24  C17 NON d   1      29.880 -14.450   2.194  0.00  0.00     0.009 A 
ENDBRANCH  18  19
ENDBRANCH   8  18
TORSDOF 5
ENDMDL
MODEL 6
REMARK VINA RESULT:    -7.946      2.738      3.989
REMARK INTER + INTRA:         -10.827
REMARK INTER:                  -9.437
REMARK INTRA:                  -1.389
REMARK CONF_INDEPENDENT:        1.492
REMARK UNBOUND:                -1.389
REMARK  5 active torsions:
REMARK  status: ('A' for Active; 'I' for Inactive)
REMARK    1  A    between atoms: C1_2  and  C2_3 
REMARK       I    between atoms: C1_2  and  N2_21 
REMARK    2  A    between atoms: C3_4  and  C4_5 
REMARK    3  A    between atoms: N1_12  and  C11_13 
REMARK    4  A    between atoms: C11_13  and  C12_14 
REMARK    5  A    between atoms: N2_21  and  O2_22 
ROOT
ATOM      1  C4  NON d   1      23.650 -17.805  -0.339  0.00  0.00    -0.035 A 
ATOM      2  C5  NON d   1      24.829 -18.227   0.281  0.00  0.00     0.013 A 
ATOM      3  C6  NON d   1      26.067 -17.637   0.004  0.00  0.00     0.031 A 
ATOM      4  C7  NON d   1      26.112 -16.609  -0.949  0.00  0.00     0.044 A 
ATOM      5  C8  NON d   1      24.959 -16.163  -1.596  0.00  0.00    -0.007 A 
ATOM      6  C9  NON d   1      25.368 -15.175  -2.527  0.00  0.00     0.031 C 
ATOM      7  C10 NON d   1      26.743 -15.086  -2.476  0.00  0.00     0.092 C 
ATOM      8  N1  NON d   1      27.187 -15.869  -1.445  0.00  0.00    -0.352 N 
ATOM      9  C18 NON d   1      23.716 -16.752  -1.270  0.00  0.00     0.025 A 
ENDROOT
BRANCH   1  10
ATOM     10  C3  NON d   1      22.407 -18.547  -0.030  0.00  0.00     0.017 C 
ATOM     11  C2  NON d   1      21.429 -18.863  -0.895  0.00  0.00     0.077 C 
BRANCH  11  12
ATOM     12  C1  NON d   1      20.250 -19.698  -0.546  0.00  0.00     0.264 C 
ATOM     13  O1  NON d   1      19.249 -19.700  -1.256  0.00  0.00    -0.266 OA
ATOM     14  N2  NON d   1      20.322 -20.418   0.615  0.00  0.00    -0.234 N 
ATOM     15  H15 NON d   1      21.030 -20.300   1.332  0.00  0.00     0.197 HD
BRANCH  14  16
ATOM     16  O2  NON d   1      19.165 -21.142   0.978  0.00  0.00    -0.287 OA
ATOM     17  H16 NON d   1      18.544 -20.918   0.251  0.00  0.00     0.244 HD
ENDBRANCH  14  16
ENDBRANCH  11  12
ENDBRANCH   1  10
BRANCH   8  18
ATOM     18  C11 NON d   1      28.546 -16.069  -0.917  0.00  0.00     0.167 C 
BRANCH  18  19
ATOM     19  C12 NON d   1      29.554 -16.979  -1.582  0.00  0.00    -0.040 A 
ATOM     20  C13 NON d   1      29.652 -16.878  -2.988  0.00  0.00     0.009 A 
ATOM     21  C14 NON d   1      30.489 -17.716  -3.726  0.00  0.00     0.001 A 
ATOM     22  C15 NON d   1      31.258 -18.669  -3.072  0.00  0.00     0.000 A 
ATOM     23  C16 NON d   1      31.155 -18.810  -1.690  0.00  0.00     0.001 A 
ATOM     24  C17 NON d   1      30.283 -17.995  -0.956  0.00  0.00     0.009 A 
ENDBRANCH  18  19
ENDBRANCH   8  18
TORSDOF 5
ENDMDL
MODEL 7
REMARK VINA RESULT:    -6.870      2.705      3.856
REMARK INTER + INTRA:          -9.779
REMARK INTER:                  -8.361
REMARK INTRA:                  -1.417
REMARK CONF_INDEPENDENT:        1.492
REMARK UNBOUND:                -1.417
REMARK  5 active torsions:
REMARK  status: ('A' for Active; 'I' for Inactive)
REMARK    1  A    between atoms: C1_2  and  C2_3 
REMARK       I    between atoms: C1_2  and  N2_21 
REMARK    2  A    between atoms: C3_4  and  C4_5 
REMARK    3  A    between atoms: N1_12  and  C11_13 
REMARK    4  A    between atoms: C11_13  and  C12_14 
REMARK    5  A    between atoms: N2_21  and  O2_22 
ROOT
ATOM      1  C4  NON d   1      24.562 -17.478  -0.865  0.00  0.00    -0.035 A 
ATOM      2  C5  NON d   1      24.438 -16.149  -1.280  0.00  0.00     0.013 A 
ATOM      3  C6  NON d   1      25.510 -15.251  -1.227  0.00  0.00     0.031 A 
ATOM      4  C7  NON d   1      26.732 -15.708  -0.713  0.00  0.00     0.044 A 
ATOM      5  C8  NON d   1      26.896 -17.024  -0.283  0.00  0.00    -0.007 A 
ATOM      6  C9  NON d   1      28.215 -17.127   0.228  0.00  0.00     0.031 C 
ATOM      7  C10 NON d   1      28.796 -15.878   0.158  0.00  0.00     0.092 C 
ATOM      8  N1  NON d   1      27.944 -15.044  -0.513  0.00  0.00    -0.352 N 
ATOM      9  C18 NON d   1      25.807 -17.921  -0.381  0.00  0.00     0.025 A 
ENDROOT
BRANCH   1  10
ATOM     10  C3  NON d   1      23.348 -18.323  -0.892  0.00  0.00     0.017 C 
ATOM     11  C2  NON d   1      22.111 -17.957  -0.517  0.00  0.00     0.077 C 
BRANCH  11  12
ATOM     12  C1  NON d   1      20.911 -18.821  -0.662  0.00  0.00     0.264 C 
ATOM     13  O1  NON d   1      19.917 -18.420  -1.261  0.00  0.00    -0.266 OA
ATOM     14  N2  NON d   1      20.954 -20.049  -0.062  0.00  0.00    -0.234 N 
ATOM     15  H15 NON d   1      21.657 -20.348   0.605  0.00  0.00     0.197 HD
BRANCH  14  16
ATOM     16  O2  NON d   1      19.777 -20.827  -0.137  0.00  0.00    -0.287 OA
ATOM     17  H16 NON d   1      19.097 -20.153  -0.352  0.00  0.00     0.244 HD
ENDBRANCH  14  16
ENDBRANCH  11  12
ENDBRANCH   1  10
BRANCH   8  18
ATOM     18  C11 NON d   1      28.110 -13.640  -0.922  0.00  0.00     0.167 C 
BRANCH  18  19
ATOM     19  C12 NON d   1      27.755 -12.480  -0.019  0.00  0.00    -0.040 A 
ATOM     20  C13 NON d   1      27.102 -12.809   1.190  0.00  0.00     0.009 A 
ATOM     21  C14 NON d   1      26.655 -11.825   2.073  0.00  0.00     0.001 A 
ATOM     22  C15 NON d   1      26.861 -10.485   1.770  0.00  0.00     0.000 A 
ATOM     23  C16 NON d   1      27.473 -10.135   0.570  0.00  0.00     0.001 A 
ATOM     24  C17 NON d   1      27.884 -11.124  -0.333  0.00  0.00     0.009 A 
ENDBRANCH  18  19
ENDBRANCH   8  18
TORSDOF 5
ENDMDL
MODEL 8
REMARK VINA RESULT:    -6.589      9.122      9.982
REMARK INTER + INTRA:          -9.458
REMARK INTER:                  -8.081
REMARK INTRA:                  -1.377
REMARK CONF_INDEPENDENT:        1.492
REMARK UNBOUND:                -1.377
REMARK  5 active torsions:
REMARK  status: ('A' for Active; 'I' for Inactive)
REMARK    1  A    between atoms: C1_2  and  C2_3 
REMARK       I    between atoms: C1_2  and  N2_21 
REMARK    2  A    between atoms: C3_4  and  C4_5 
REMARK    3  A    between atoms: N1_12  and  C11_13 
REMARK    4  A    between atoms: C11_13  and  C12_14 
REMARK    5  A    between atoms: N2_21  and  O2_22 
ROOT
ATOM      1  C4  NON d   1      31.381 -21.606   0.828  0.00  0.00    -0.035 A 
ATOM      2  C5  NON d   1      32.138 -20.947  -0.145  0.00  0.00     0.013 A 
ATOM      3  C6  NON d   1      32.044 -21.269  -1.504  0.00  0.00     0.031 A 
ATOM      4  C7  NON d   1      31.178 -22.307  -1.880  0.00  0.00     0.044 A 
ATOM      5  C8  NON d   1      30.411 -22.993  -0.940  0.00  0.00    -0.007 A 
ATOM      6  C9  NON d   1      29.708 -24.004  -1.644  0.00  0.00     0.031 C 
ATOM      7  C10 NON d   1      30.103 -23.955  -2.964  0.00  0.00     0.092 C 
ATOM      8  N1  NON d   1      30.906 -22.859  -3.133  0.00  0.00    -0.352 N 
ATOM      9  C18 NON d   1      30.498 -22.623   0.422  0.00  0.00     0.025 A 
ENDROOT
BRANCH   1  10
ATOM     10  C3  NON d   1      31.612 -21.239   2.242  0.00  0.00     0.017 C 
ATOM     11  C2  NON d   1      30.802 -21.507   3.280  0.00  0.00     0.077 C 
BRANCH  11  12
ATOM     12  C1  NON d   1      31.137 -21.201   4.695  0.00  0.00     0.264 C 
ATOM     13  O1  NON d   1      32.063 -20.446   4.972  0.00  0.00    -0.266 OA
ATOM     14  N2  NON d   1      30.398 -21.832   5.658  0.00  0.00    -0.234 N 
ATOM     15  H15 NON d   1      29.766 -22.608   5.494  0.00  0.00     0.197 HD
BRANCH  14  16
ATOM     16  O2  NON d   1      30.780 -21.598   6.998  0.00  0.00    -0.287 OA
ATOM     17  H16 NON d   1      31.716 -21.316   6.900  0.00  0.00     0.244 HD
ENDBRANCH  14  16
ENDBRANCH  11  12
ENDBRANCH   1  10
BRANCH   8  18
ATOM     18  C11 NON d   1      31.526 -22.310  -4.349  0.00  0.00     0.167 C 
BRANCH  18  19
ATOM     19  C12 NON d   1      31.093 -20.999  -4.965  0.00  0.00    -0.040 A 
ATOM     20  C13 NON d   1      31.143 -20.926  -6.375  0.00  0.00     0.009 A 
ATOM     21  C14 NON d   1      30.842 -19.748  -7.060  0.00  0.00     0.001 A 
ATOM     22  C15 NON d   1      30.473 -18.615  -6.347  0.00  0.00     0.000 A 
ATOM     23  C16 NON d   1      30.447 -18.652  -4.956  0.00  0.00     0.001 A 
ATOM     24  C17 NON d   1      30.789 -19.825  -4.270  0.00  0.00     0.009 A 
ENDBRANCH  18  19
ENDBRANCH   8  18
TORSDOF 5
ENDMDL
MODEL 9
REMARK VINA RESULT:    -6.587      7.263      9.716
REMARK INTER + INTRA:          -9.353
REMARK INTER:                  -8.078
REMARK INTRA:                  -1.274
REMARK CONF_INDEPENDENT:        1.492
REMARK UNBOUND:                -1.274
REMARK  5 active torsions:
REMARK  status: ('A' for Active; 'I' for Inactive)
REMARK    1  A    between atoms: C1_2  and  C2_3 
REMARK       I    between atoms: C1_2  and  N2_21 
REMARK    2  A    between atoms: C3_4  and  C4_5 
REMARK    3  A    between atoms: N1_12  and  C11_13 
REMARK    4  A    between atoms: C11_13  and  C12_14 
REMARK    5  A    between atoms: N2_21  and  O2_22 
ROOT
ATOM      1  C4  NON d   1      28.029 -12.816   5.295  0.00  0.00    -0.035 A 
ATOM      2  C5  NON d   1      28.174 -14.198   5.146  0.00  0.00     0.013 A 
ATOM      3  C6  NON d   1      28.076 -14.825   3.899  0.00  0.00     0.031 A 
ATOM      4  C7  NON d   1      27.796 -14.029   2.777  0.00  0.00     0.044 A 
ATOM      5  C8  NON d   1      27.638 -12.648   2.885  0.00  0.00    -0.007 A 
ATOM      6  C9  NON d   1      27.307 -12.172   1.591  0.00  0.00     0.031 C 
ATOM      7  C10 NON d   1      27.209 -13.261   0.750  0.00  0.00     0.092 C 
ATOM      8  N1  NON d   1      27.614 -14.373   1.437  0.00  0.00    -0.352 N 
ATOM      9  C18 NON d   1      27.778 -12.035   4.152  0.00  0.00     0.025 A 
ENDROOT
BRANCH   1  10
ATOM     10  C3  NON d   1      28.076 -12.264   6.667  0.00  0.00     0.017 C 
ATOM     11  C2  NON d   1      28.546 -12.884   7.763  0.00  0.00     0.077 C 
BRANCH  11  12
ATOM     12  C1  NON d   1      28.659 -12.239   9.096  0.00  0.00     0.264 C 
ATOM     13  O1  NON d   1      29.422 -11.295   9.275  0.00  0.00    -0.266 OA
ATOM     14  N2  NON d   1      27.913 -12.775  10.110  0.00  0.00    -0.234 N 
ATOM     15  H15 NON d   1      27.428 -13.665  10.069  0.00  0.00     0.197 HD
BRANCH  14  16
ATOM     16  O2  NON d   1      28.092 -12.207  11.391  0.00  0.00    -0.287 OA
ATOM     17  H16 NON d   1      28.546 -11.362  11.180  0.00  0.00     0.244 HD
ENDBRANCH  14  16
ENDBRANCH  11  12
ENDBRANCH   1  10
BRANCH   8  18
ATOM     18  C11 NON d   1      27.771 -15.766   0.988  0.00  0.00     0.167 C 
BRANCH  18  19
ATOM     19  C12 NON d   1      26.660 -16.534   0.308  0.00  0.00    -0.040 A 
ATOM     20  C13 NON d   1      25.864 -15.804  -0.602  0.00  0.00     0.009 A 
ATOM     21  C14 NON d   1      24.762 -16.378  -1.237  0.00  0.00     0.001 A 
ATOM     22  C15 NON d   1      24.436 -17.704  -0.981  0.00  0.00     0.000 A 
ATOM     23  C16 NON d   1      25.185 -18.435  -0.063  0.00  0.00     0.001 A 
ATOM     24  C17 NON d   1      26.266 -17.843   0.603  0.00  0.00     0.009 A 
ENDBRANCH  18  19
ENDBRANCH   8  18
TORSDOF 5
ENDMDL
