MODEL 1
REMARK VINA RESULT:    -9.728      0.000      0.000
REMARK INTER + INTRA:         -17.674
REMARK INTER:                 -14.501
REMARK INTRA:                  -3.173
REMARK CONF_INDEPENDENT:        4.773
REMARK UNBOUND:                -3.173
REMARK  16 active torsions:
REMARK  status: ('A' for Active; 'I' for Inactive)
REMARK    1  A    between atoms: O1_2  and  C2_3 
REMARK    2  A    between atoms: C6_7  and  C7_8 
REMARK    3  A    between atoms: C7_8  and  O2_9 
REMARK    4  A    between atoms: O2_9  and  C8_10 
REMARK    5  A    between atoms: C8_10  and  C9_11 
REMARK    6  A    between atoms: C8_10  and  C15_20 
REMARK    7  A    between atoms: C9_11  and  C10_12 
REMARK    8  A    between atoms: C10_12  and  C11_13 
REMARK    9  A    between atoms: C11_13  and  C12_14 
REMARK   10  A    between atoms: C12_14  and  C13_15 
REMARK   11  A    between atoms: C13_15  and  C14_16 
REMARK       I    between atoms: C14_16  and  N1_18 
REMARK   12  A    between atoms: N1_18  and  O4_19 
REMARK       I    between atoms: C15_20  and  N2_22 
REMARK   13  A    between atoms: N2_22  and  C16_23 
REMARK   14  A    between atoms: N2_22  and  C24_32 
REMARK   15  A    between atoms: C16_23  and  C17_24 
REMARK   16  A    between atoms: C21_28  and  O6_29 
ROOT
ATOM      1  C8  NON d   1      25.685 -14.892  -2.967  0.00  0.00     0.214 C 
ENDROOT
BRANCH   1   2
ATOM      2  O2  NON d   1      24.850 -14.186  -4.140  0.00  0.00    -0.372 OA
BRANCH   2   3
ATOM      3  C7  NON d   1      25.500 -12.660  -4.772  0.00  0.00     0.207 C 
BRANCH   3   4
ATOM      4  C6  NON d   1      27.131 -12.325  -6.136  0.00  0.00    -0.032 C 
ATOM      5  C5  NON d   1      28.507 -13.202  -6.226  0.00  0.00     0.009 C 
ATOM      6  C4  NON d   1      29.481 -13.383  -7.217  0.00  0.00     0.003 C 
ATOM      7  C3  NON d   1      29.283 -12.736  -8.371  0.00  0.00     0.037 C 
ATOM      8  C2  NON d   1      28.193 -11.885  -8.436  0.00  0.00     0.068 C 
ATOM      9  C30 NON d   1      27.264 -11.546  -7.371  0.00  0.00     0.046 C 
BRANCH   8  10
ATOM     10  O1  NON d   1      27.946 -11.654  -9.757  0.00  0.00    -0.356 OA
ATOM     11  C1  NON d   1      26.573 -10.981  -9.939  0.00  0.00     0.210 C 
ENDBRANCH   8  10
ENDBRANCH   3   4
ENDBRANCH   2   3
ENDBRANCH   1   2
BRANCH   1  12
ATOM     12  C9  NON d   1      25.159 -16.398  -2.577  0.00  0.00     0.041 C 
BRANCH  12  13
ATOM     13  C10 NON d   1      24.356 -16.607  -1.266  0.00  0.00     0.003 C 
BRANCH  13  14
ATOM     14  C11 NON d   1      24.215 -18.086  -0.847  0.00  0.00     0.001 C 
BRANCH  14  15
ATOM     15  C12 NON d   1      22.935 -18.805  -1.314  0.00  0.00     0.009 C 
BRANCH  15  16
ATOM     16  C13 NON d   1      21.842 -18.949  -0.253  0.00  0.00     0.105 C 
BRANCH  16  17
ATOM     17  C14 NON d   1      20.532 -19.476  -0.835  0.00  0.00     0.240 C 
ATOM     18  O3  NON d   1      20.368 -19.698  -2.031  0.00  0.00    -0.271 OA
ATOM     19  N1  NON d   1      19.573 -19.673   0.138  0.00  0.00    -0.237 N 
ATOM     20  H20 NON d   1      19.652 -19.290   1.073  0.00  0.00     0.197 HD
BRANCH  19  21
ATOM     21  O4  NON d   1      18.314 -20.136  -0.298  0.00  0.00    -0.287 OA
ATOM     22  H21 NON d   1      18.334 -20.017  -1.262  0.00  0.00     0.244 HD
ENDBRANCH  19  21
ENDBRANCH  16  17
ENDBRANCH  15  16
ENDBRANCH  14  15
ENDBRANCH  13  14
ENDBRANCH  12  13
ENDBRANCH   1  12
BRANCH   1  23
ATOM     23  C15 NON d   1      26.834 -15.278  -3.917  0.00  0.00     0.253 C 
ATOM     24  O5  NON d   1      26.630 -15.579  -5.106  0.00  0.00    -0.270 OA
ATOM     25  N2  NON d   1      28.103 -15.477  -3.447  0.00  0.00    -0.312 N 
BRANCH  25  26
ATOM     26  C16 NON d   1      29.260 -15.697  -4.391  0.00  0.00     0.171 C 
BRANCH  26  27
ATOM     27  C17 NON d   1      29.980 -17.003  -4.806  0.00  0.00    -0.037 C 
ATOM     28  C18 NON d   1      30.372 -18.004  -3.940  0.00  0.00     0.009 C 
ATOM     29  C19 NON d   1      31.306 -18.994  -4.251  0.00  0.00     0.003 C 
ATOM     30  C20 NON d   1      31.708 -19.180  -5.549  0.00  0.00     0.037 C 
ATOM     31  C21 NON d   1      31.163 -18.364  -6.529  0.00  0.00     0.068 C 
ATOM     32  C23 NON d   1      30.371 -17.243  -6.151  0.00  0.00     0.045 C 
BRANCH  31  33
ATOM     33  O6  NON d   1      31.365 -18.594  -7.868  0.00  0.00    -0.356 OA
ATOM     34  C22 NON d   1      30.787 -19.810  -8.369  0.00  0.00     0.210 C 
ENDBRANCH  31  33
ENDBRANCH  26  27
ENDBRANCH  25  26
BRANCH  25  35
ATOM     35  C24 NON d   1      28.114 -15.154  -2.119  0.00  0.00     0.037 C 
ATOM     36  C25 NON d   1      27.770 -16.486  -0.822  0.00  0.00     0.030 C 
ATOM     37  C26 NON d   1      27.665 -15.985   0.923  0.00  0.00     0.002 C 
ATOM     38  C27 NON d   1      27.650 -14.234   1.316  0.00  0.00     0.000 C 
ATOM     39  C28 NON d   1      27.775 -12.975   0.065  0.00  0.00     0.002 C 
ATOM     40  C29 NON d   1      28.001 -13.421  -1.654  0.00  0.00     0.030 C 
ENDBRANCH  25  35
ENDBRANCH   1  23
TORSDOF 16
ENDMDL
MODEL 2
REMARK VINA RESULT:    -9.693      2.149      3.374
REMARK INTER + INTRA:         -17.351
REMARK INTER:                 -14.466
REMARK INTRA:                  -2.885
REMARK CONF_INDEPENDENT:        4.773
REMARK UNBOUND:                -2.885
REMARK  16 active torsions:
REMARK  status: ('A' for Active; 'I' for Inactive)
REMARK    1  A    between atoms: O1_2  and  C2_3 
REMARK    2  A    between atoms: C6_7  and  C7_8 
REMARK    3  A    between atoms: C7_8  and  O2_9 
REMARK    4  A    between atoms: O2_9  and  C8_10 
REMARK    5  A    between atoms: C8_10  and  C9_11 
REMARK    6  A    between atoms: C8_10  and  C15_20 
REMARK    7  A    between atoms: C9_11  and  C10_12 
REMARK    8  A    between atoms: C10_12  and  C11_13 
REMARK    9  A    between atoms: C11_13  and  C12_14 
REMARK   10  A    between atoms: C12_14  and  C13_15 
REMARK   11  A    between atoms: C13_15  and  C14_16 
REMARK       I    between atoms: C14_16  and  N1_18 
REMARK   12  A    between atoms: N1_18  and  O4_19 
REMARK       I    between atoms: C15_20  and  N2_22 
REMARK   13  A    between atoms: N2_22  and  C16_23 
REMARK   14  A    between atoms: N2_22  and  C24_32 
REMARK   15  A    between atoms: C16_23  and  C17_24 
REMARK   16  A    between atoms: C21_28  and  O6_29 
ROOT
ATOM      1  C8  NON d   1      25.641 -14.814  -3.048  0.00  0.00     0.214 C 
ENDROOT
BRANCH   1   2
ATOM      2  O2  NON d   1      24.833 -14.187  -4.283  0.00  0.00    -0.372 OA
BRANCH   2   3
ATOM      3  C7  NON d   1      25.527 -12.736  -5.033  0.00  0.00     0.207 C 
BRANCH   3   4
ATOM      4  C6  NON d   1      26.053 -10.850  -4.142  0.00  0.00    -0.032 C 
ATOM      5  C5  NON d   1      25.442  -9.389  -4.547  0.00  0.00     0.009 C 
ATOM      6  C4  NON d   1      25.369  -8.151  -3.895  0.00  0.00     0.003 C 
ATOM      7  C3  NON d   1      25.877  -8.099  -2.659  0.00  0.00     0.037 C 
ATOM      8  C2  NON d   1      26.504  -9.240  -2.188  0.00  0.00     0.068 C 
ATOM      9  C30 NON d   1      26.746 -10.482  -2.903  0.00  0.00     0.046 C 
BRANCH   8  10
ATOM     10  O1  NON d   1      26.583  -9.120  -0.832  0.00  0.00    -0.356 OA
ATOM     11  C1  NON d   1      25.816  -7.873  -0.355  0.00  0.00     0.210 C 
ENDBRANCH   8  10
ENDBRANCH   3   4
ENDBRANCH   2   3
ENDBRANCH   1   2
BRANCH   1  12
ATOM     12  C9  NON d   1      25.152 -16.320  -2.617  0.00  0.00     0.041 C 
BRANCH  12  13
ATOM     13  C10 NON d   1      24.440 -16.528  -1.254  0.00  0.00     0.003 C 
BRANCH  13  14
ATOM     14  C11 NON d   1      24.797 -17.858  -0.556  0.00  0.00     0.001 C 
BRANCH  14  15
ATOM     15  C12 NON d   1      23.609 -18.713  -0.077  0.00  0.00     0.009 C 
BRANCH  15  16
ATOM     16  C13 NON d   1      22.494 -18.917  -1.105  0.00  0.00     0.105 C 
BRANCH  16  17
ATOM     17  C14 NON d   1      21.105 -18.701  -0.507  0.00  0.00     0.240 C 
ATOM     18  O3  NON d   1      20.333 -17.829  -0.896  0.00  0.00    -0.271 OA
ATOM     19  N1  NON d   1      20.829 -19.599   0.504  0.00  0.00    -0.237 N 
ATOM     20  H20 NON d   1      21.544 -20.162   0.949  0.00  0.00     0.197 HD
BRANCH  19  21
ATOM     21  O4  NON d   1      19.577 -19.469   1.142  0.00  0.00    -0.287 OA
ATOM     22  H21 NON d   1      19.298 -18.559   0.943  0.00  0.00     0.244 HD
ENDBRANCH  19  21
ENDBRANCH  16  17
ENDBRANCH  15  16
ENDBRANCH  14  15
ENDBRANCH  13  14
ENDBRANCH  12  13
ENDBRANCH   1  12
BRANCH   1  23
ATOM     23  C15 NON d   1      26.842 -15.196  -3.933  0.00  0.00     0.253 C 
ATOM     24  O5  NON d   1      26.699 -15.566  -5.110  0.00  0.00    -0.270 OA
ATOM     25  N2  NON d   1      28.099 -15.314  -3.404  0.00  0.00    -0.312 N 
BRANCH  25  26
ATOM     26  C16 NON d   1      29.302 -15.530  -4.291  0.00  0.00     0.171 C 
BRANCH  26  27
ATOM     27  C17 NON d   1      29.918 -16.839  -4.842  0.00  0.00    -0.037 C 
ATOM     28  C18 NON d   1      30.312 -17.916  -4.074  0.00  0.00     0.009 C 
ATOM     29  C19 NON d   1      31.167 -18.928  -4.516  0.00  0.00     0.003 C 
ATOM     30  C20 NON d   1      31.469 -19.043  -5.849  0.00  0.00     0.037 C 
ATOM     31  C21 NON d   1      30.905 -18.135  -6.731  0.00  0.00     0.068 C 
ATOM     32  C23 NON d   1      30.203 -17.004  -6.224  0.00  0.00     0.045 C 
BRANCH  31  33
ATOM     33  O6  NON d   1      31.001 -18.281  -8.093  0.00  0.00    -0.356 OA
ATOM     34  C22 NON d   1      30.782 -19.615  -8.578  0.00  0.00     0.210 C 
ENDBRANCH  31  33
ENDBRANCH  26  27
ENDBRANCH  25  26
BRANCH  25  35
ATOM     35  C24 NON d   1      28.043 -14.925  -2.096  0.00  0.00     0.037 C 
ATOM     36  C25 NON d   1      27.647 -16.193  -0.751  0.00  0.00     0.030 C 
ATOM     37  C26 NON d   1      27.454 -15.605   0.959  0.00  0.00     0.002 C 
ATOM     38  C27 NON d   1      27.406 -13.837   1.261  0.00  0.00     0.000 C 
ATOM     39  C28 NON d   1      27.582 -12.641  -0.045  0.00  0.00     0.002 C 
ATOM     40  C29 NON d   1      27.895 -13.171  -1.726  0.00  0.00     0.030 C 
ENDBRANCH  25  35
ENDBRANCH   1  23
TORSDOF 16
ENDMDL
MODEL 3
REMARK VINA RESULT:    -9.669      2.517      7.913
REMARK INTER + INTRA:         -17.474
REMARK INTER:                 -14.442
REMARK INTRA:                  -3.032
REMARK CONF_INDEPENDENT:        4.773
REMARK UNBOUND:                -3.032
REMARK  16 active torsions:
REMARK  status: ('A' for Active; 'I' for Inactive)
REMARK    1  A    between atoms: O1_2  and  C2_3 
REMARK    2  A    between atoms: C6_7  and  C7_8 
REMARK    3  A    between atoms: C7_8  and  O2_9 
REMARK    4  A    between atoms: O2_9  and  C8_10 
REMARK    5  A    between atoms: C8_10  and  C9_11 
REMARK    6  A    between atoms: C8_10  and  C15_20 
REMARK    7  A    between atoms: C9_11  and  C10_12 
REMARK    8  A    between atoms: C10_12  and  C11_13 
REMARK    9  A    between atoms: C11_13  and  C12_14 
REMARK   10  A    between atoms: C12_14  and  C13_15 
REMARK   11  A    between atoms: C13_15  and  C14_16 
REMARK       I    between atoms: C14_16  and  N1_18 
REMARK   12  A    between atoms: N1_18  and  O4_19 
REMARK       I    between atoms: C15_20  and  N2_22 
REMARK   13  A    between atoms: N2_22  and  C16_23 
REMARK   14  A    between atoms: N2_22  and  C24_32 
REMARK   15  A    between atoms: C16_23  and  C17_24 
REMARK   16  A    between atoms: C21_28  and  O6_29 
ROOT
ATOM      1  C8  NON d   1      27.511 -14.157  -4.472  0.00  0.00     0.214 C 
ENDROOT
BRANCH   1   2
ATOM      2  O2  NON d   1      27.668 -15.470  -5.378  0.00  0.00    -0.372 OA
BRANCH   2   3
ATOM      3  C7  NON d   1      29.275 -15.775  -6.067  0.00  0.00     0.207 C 
BRANCH   3   4
ATOM      4  C6  NON d   1      30.422 -17.595  -6.120  0.00  0.00    -0.032 C 
ATOM      5  C5  NON d   1      30.404 -18.778  -4.992  0.00  0.00     0.009 C 
ATOM      6  C4  NON d   1      30.765 -20.132  -4.998  0.00  0.00     0.003 C 
ATOM      7  C3  NON d   1      31.210 -20.624  -6.159  0.00  0.00     0.037 C 
ATOM      8  C2  NON d   1      31.357 -19.730  -7.206  0.00  0.00     0.068 C 
ATOM      9  C30 NON d   1      31.153 -18.291  -7.183  0.00  0.00     0.046 C 
BRANCH   8  10
ATOM     10  O1  NON d   1      31.422 -20.466  -8.352  0.00  0.00    -0.356 OA
ATOM     11  C1  NON d   1      30.780 -19.699  -9.524  0.00  0.00     0.210 C 
ENDBRANCH   8  10
ENDBRANCH   3   4
ENDBRANCH   2   3
ENDBRANCH   1   2
BRANCH   1  12
ATOM     12  C9  NON d   1      27.128 -12.800  -5.313  0.00  0.00     0.041 C 
BRANCH  12  13
ATOM     13  C10 NON d   1      25.905 -11.952  -4.872  0.00  0.00     0.003 C 
BRANCH  13  14
ATOM     14  C11 NON d   1      25.983 -11.449  -3.415  0.00  0.00     0.001 C 
BRANCH  14  15
ATOM     15  C12 NON d   1      25.880  -9.925  -3.217  0.00  0.00     0.009 C 
BRANCH  15  16
ATOM     16  C13 NON d   1      26.202  -9.082  -4.452  0.00  0.00     0.105 C 
BRANCH  16  17
ATOM     17  C14 NON d   1      24.979  -8.858  -5.339  0.00  0.00     0.240 C 
ATOM     18  O3  NON d   1      24.948  -9.155  -6.530  0.00  0.00    -0.271 OA
ATOM     19  N1  NON d   1      23.928  -8.296  -4.643  0.00  0.00    -0.237 N 
ATOM     20  H20 NON d   1      24.039  -7.868  -3.732  0.00  0.00     0.197 HD
BRANCH  19  21
ATOM     21  O4  NON d   1      22.755  -8.024  -5.378  0.00  0.00    -0.287 OA
ATOM     22  H21 NON d   1      22.899  -8.461  -6.234  0.00  0.00     0.244 HD
ENDBRANCH  19  21
ENDBRANCH  16  17
ENDBRANCH  15  16
ENDBRANCH  14  15
ENDBRANCH  13  14
ENDBRANCH  12  13
ENDBRANCH   1  12
BRANCH   1  23
ATOM     23  C15 NON d   1      26.099 -14.557  -4.007  0.00  0.00     0.253 C 
ATOM     24  O5  NON d   1      25.131 -14.575  -4.787  0.00  0.00    -0.270 OA
ATOM     25  N2  NON d   1      25.817 -14.738  -2.680  0.00  0.00    -0.312 N 
BRANCH  25  26
ATOM     26  C16 NON d   1      24.482 -15.285  -2.233  0.00  0.00     0.171 C 
BRANCH  26  27
ATOM     27  C17 NON d   1      24.147 -16.500  -1.335  0.00  0.00    -0.037 C 
ATOM     28  C18 NON d   1      25.077 -17.286  -0.684  0.00  0.00     0.009 C 
ATOM     29  C19 NON d   1      24.812 -18.558  -0.172  0.00  0.00     0.003 C 
ATOM     30  C20 NON d   1      23.519 -19.003  -0.062  0.00  0.00     0.037 C 
ATOM     31  C21 NON d   1      22.498 -18.159  -0.470  0.00  0.00     0.068 C 
ATOM     32  C23 NON d   1      22.814 -16.958  -1.167  0.00  0.00     0.045 C 
BRANCH  31  33
ATOM     33  O6  NON d   1      21.175 -18.442  -0.230  0.00  0.00    -0.356 OA
ATOM     34  C22 NON d   1      20.560 -19.322  -1.183  0.00  0.00     0.210 C 
ENDBRANCH  31  33
ENDBRANCH  26  27
ENDBRANCH  25  26
BRANCH  25  35
ATOM     35  C24 NON d   1      26.986 -14.622  -1.983  0.00  0.00     0.037 C 
ATOM     36  C25 NON d   1      28.158 -16.100  -1.855  0.00  0.00     0.030 C 
ATOM     37  C26 NON d   1      29.638 -15.940  -0.810  0.00  0.00     0.002 C 
ATOM     38  C27 NON d   1      29.800 -14.491   0.237  0.00  0.00     0.000 C 
ATOM     39  C28 NON d   1      28.586 -13.190   0.258  0.00  0.00     0.002 C 
ATOM     40  C29 NON d   1      27.174 -13.245  -0.841  0.00  0.00     0.030 C 
ENDBRANCH  25  35
ENDBRANCH   1  23
TORSDOF 16
ENDMDL
MODEL 4
REMARK VINA RESULT:    -9.537      2.825      7.940
REMARK INTER + INTRA:         -17.414
REMARK INTER:                 -14.310
REMARK INTRA:                  -3.105
REMARK CONF_INDEPENDENT:        4.773
REMARK UNBOUND:                -3.105
REMARK  16 active torsions:
REMARK  status: ('A' for Active; 'I' for Inactive)
REMARK    1  A    between atoms: O1_2  and  C2_3 
REMARK    2  A    between atoms: C6_7  and  C7_8 
REMARK    3  A    between atoms: C7_8  and  O2_9 
REMARK    4  A    between atoms: O2_9  and  C8_10 
REMARK    5  A    between atoms: C8_10  and  C9_11 
REMARK    6  A    between atoms: C8_10  and  C15_20 
REMARK    7  A    between atoms: C9_11  and  C10_12 
REMARK    8  A    between atoms: C10_12  and  C11_13 
REMARK    9  A    between atoms: C11_13  and  C12_14 
REMARK   10  A    between atoms: C12_14  and  C13_15 
REMARK   11  A    between atoms: C13_15  and  C14_16 
REMARK       I    between atoms: C14_16  and  N1_18 
REMARK   12  A    between atoms: N1_18  and  O4_19 
REMARK       I    between atoms: C15_20  and  N2_22 
REMARK   13  A    between atoms: N2_22  and  C16_23 
REMARK   14  A    between atoms: N2_22  and  C24_32 
REMARK   15  A    between atoms: C16_23  and  C17_24 
REMARK   16  A    between atoms: C21_28  and  O6_29 
ROOT
ATOM      1  C8  NON d   1      27.362 -14.027  -4.307  0.00  0.00     0.214 C 
ENDROOT
BRANCH   1   2
ATOM      2  O2  NON d   1      27.454 -15.200  -5.396  0.00  0.00    -0.372 OA
BRANCH   2   3
ATOM      3  C7  NON d   1      29.054 -15.512  -6.096  0.00  0.00     0.207 C 
BRANCH   3   4
ATOM      4  C6  NON d   1      30.282 -17.275  -5.978  0.00  0.00    -0.032 C 
ATOM      5  C5  NON d   1      30.364 -18.310  -4.715  0.00  0.00     0.009 C 
ATOM      6  C4  NON d   1      30.788 -19.638  -4.573  0.00  0.00     0.003 C 
ATOM      7  C3  NON d   1      31.210 -20.250  -5.684  0.00  0.00     0.037 C 
ATOM      8  C2  NON d   1      31.274 -19.487  -6.838  0.00  0.00     0.068 C 
ATOM      9  C30 NON d   1      31.005 -18.065  -6.980  0.00  0.00     0.046 C 
BRANCH   8  10
ATOM     10  O1  NON d   1      31.330 -20.355  -7.888  0.00  0.00    -0.356 OA
ATOM     11  C1  NON d   1      30.781 -19.692  -9.165  0.00  0.00     0.210 C 
ENDBRANCH   8  10
ENDBRANCH   3   4
ENDBRANCH   2   3
ENDBRANCH   1   2
BRANCH   1  12
ATOM     12  C9  NON d   1      26.992 -12.554  -4.931  0.00  0.00     0.041 C 
BRANCH  12  13
ATOM     13  C10 NON d   1      25.747 -11.794  -4.401  0.00  0.00     0.003 C 
BRANCH  13  14
ATOM     14  C11 NON d   1      26.071 -10.727  -3.334  0.00  0.00     0.001 C 
BRANCH  14  15
ATOM     15  C12 NON d   1      25.573  -9.300  -3.630  0.00  0.00     0.009 C 
BRANCH  15  16
ATOM     16  C13 NON d   1      26.218  -8.195  -2.789  0.00  0.00     0.105 C 
BRANCH  16  17
ATOM     17  C14 NON d   1      26.062  -8.439  -1.290  0.00  0.00     0.240 C 
ATOM     18  O3  NON d   1      26.745  -9.246  -0.665  0.00  0.00    -0.271 OA
ATOM     19  N1  NON d   1      25.079  -7.647  -0.733  0.00  0.00    -0.237 N 
ATOM     20  H20 NON d   1      24.393  -7.151  -1.290  0.00  0.00     0.197 HD
BRANCH  19  21
ATOM     21  O4  NON d   1      24.837  -7.813   0.647  0.00  0.00    -0.287 OA
ATOM     22  H21 NON d   1      25.592  -8.336   0.963  0.00  0.00     0.244 HD
ENDBRANCH  19  21
ENDBRANCH  16  17
ENDBRANCH  15  16
ENDBRANCH  14  15
ENDBRANCH  13  14
ENDBRANCH  12  13
ENDBRANCH   1  12
BRANCH   1  23
ATOM     23  C15 NON d   1      25.953 -14.456  -3.856  0.00  0.00     0.253 C 
ATOM     24  O5  NON d   1      24.993 -14.490  -4.645  0.00  0.00    -0.270 OA
ATOM     25  N2  NON d   1      25.663 -14.647  -2.532  0.00  0.00    -0.312 N 
BRANCH  25  26
ATOM     26  C16 NON d   1      24.335 -15.221  -2.099  0.00  0.00     0.171 C 
BRANCH  26  27
ATOM     27  C17 NON d   1      24.014 -16.488  -1.269  0.00  0.00    -0.037 C 
ATOM     28  C18 NON d   1      24.953 -17.301  -0.667  0.00  0.00     0.009 C 
ATOM     29  C19 NON d   1      24.700 -18.602  -0.225  0.00  0.00     0.003 C 
ATOM     30  C20 NON d   1      23.411 -19.062  -0.136  0.00  0.00     0.037 C 
ATOM     31  C21 NON d   1      22.381 -18.206  -0.492  0.00  0.00     0.068 C 
ATOM     32  C23 NON d   1      22.684 -16.965  -1.122  0.00  0.00     0.045 C 
BRANCH  31  33
ATOM     33  O6  NON d   1      21.062 -18.512  -0.263  0.00  0.00    -0.356 OA
ATOM     34  C22 NON d   1      20.444 -19.327  -1.270  0.00  0.00     0.210 C 
ENDBRANCH  31  33
ENDBRANCH  26  27
ENDBRANCH  25  26
BRANCH  25  35
ATOM     35  C24 NON d   1      26.823 -14.510  -1.824  0.00  0.00     0.037 C 
ATOM     36  C25 NON d   1      27.933 -16.013  -1.533  0.00  0.00     0.030 C 
ATOM     37  C26 NON d   1      29.398 -15.812  -0.476  0.00  0.00     0.002 C 
ATOM     38  C27 NON d   1      29.599 -14.279   0.434  0.00  0.00     0.000 C 
ATOM     39  C28 NON d   1      28.439 -12.935   0.307  0.00  0.00     0.002 C 
ATOM     40  C29 NON d   1      27.046 -13.040  -0.812  0.00  0.00     0.030 C 
ENDBRANCH  25  35
ENDBRANCH   1  23
TORSDOF 16
ENDMDL
MODEL 5
REMARK VINA RESULT:    -9.409      0.975      1.654
REMARK INTER + INTRA:         -17.659
REMARK INTER:                 -14.182
REMARK INTRA:                  -3.477
REMARK CONF_INDEPENDENT:        4.773
REMARK UNBOUND:                -3.477
REMARK  16 active torsions:
REMARK  status: ('A' for Active; 'I' for Inactive)
REMARK    1  A    between atoms: O1_2  and  C2_3 
REMARK    2  A    between atoms: C6_7  and  C7_8 
REMARK    3  A    between atoms: C7_8  and  O2_9 
REMARK    4  A    between atoms: O2_9  and  C8_10 
REMARK    5  A    between atoms: C8_10  and  C9_11 
REMARK    6  A    between atoms: C8_10  and  C15_20 
REMARK    7  A    between atoms: C9_11  and  C10_12 
REMARK    8  A    between atoms: C10_12  and  C11_13 
REMARK    9  A    between atoms: C11_13  and  C12_14 
REMARK   10  A    between atoms: C12_14  and  C13_15 
REMARK   11  A    between atoms: C13_15  and  C14_16 
REMARK       I    between atoms: C14_16  and  N1_18 
REMARK   12  A    between atoms: N1_18  and  O4_19 
REMARK       I    between atoms: C15_20  and  N2_22 
REMARK   13  A    between atoms: N2_22  and  C16_23 
REMARK   14  A    between atoms: N2_22  and  C24_32 
REMARK   15  A    between atoms: C16_23  and  C17_24 
REMARK   16  A    between atoms: C21_28  and  O6_29 
ROOT
ATOM      1  C8  NON d   1      25.556 -14.930  -2.873  0.00  0.00     0.214 C 
ENDROOT
BRANCH   1   2
ATOM      2  O2  NON d   1      24.828 -14.345  -4.176  0.00  0.00    -0.372 OA
BRANCH   2   3
ATOM      3  C7  NON d   1      25.411 -12.780  -4.778  0.00  0.00     0.207 C 
BRANCH   3   4
ATOM      4  C6  NON d   1      27.030 -12.347  -6.127  0.00  0.00    -0.032 C 
ATOM      5  C5  NON d   1      28.273 -13.344  -6.492  0.00  0.00     0.009 C 
ATOM      6  C4  NON d   1      29.183 -13.412  -7.555  0.00  0.00     0.003 C 
ATOM      7  C3  NON d   1      29.039 -12.500  -8.522  0.00  0.00     0.037 C 
ATOM      8  C2  NON d   1      28.072 -11.528  -8.331  0.00  0.00     0.068 C 
ATOM      9  C30 NON d   1      27.228 -11.329  -7.164  0.00  0.00     0.046 C 
BRANCH   8  10
ATOM     10  O1  NON d   1      27.818 -10.973  -9.551  0.00  0.00    -0.356 OA
ATOM     11  C1  NON d   1      26.461 -11.459 -10.093  0.00  0.00     0.210 C 
ENDBRANCH   8  10
ENDBRANCH   3   4
ENDBRANCH   2   3
ENDBRANCH   1   2
BRANCH   1  12
ATOM     12  C9  NON d   1      25.156 -16.482  -2.516  0.00  0.00     0.041 C 
BRANCH  12  13
ATOM     13  C10 NON d   1      24.236 -16.769  -1.299  0.00  0.00     0.003 C 
BRANCH  13  14
ATOM     14  C11 NON d   1      24.471 -18.149  -0.649  0.00  0.00     0.001 C 
BRANCH  14  15
ATOM     15  C12 NON d   1      23.273 -19.117  -0.659  0.00  0.00     0.009 C 
BRANCH  15  16
ATOM     16  C13 NON d   1      21.895 -18.451  -0.691  0.00  0.00     0.105 C 
BRANCH  16  17
ATOM     17  C14 NON d   1      20.757 -19.469  -0.662  0.00  0.00     0.240 C 
ATOM     18  O3  NON d   1      20.038 -19.702  -1.629  0.00  0.00    -0.271 OA
ATOM     19  N1  NON d   1      20.644 -20.088   0.567  0.00  0.00    -0.237 N 
ATOM     20  H20 NON d   1      21.098 -19.738   1.402  0.00  0.00     0.197 HD
BRANCH  19  21
ATOM     21  O4  NON d   1      19.604 -21.031   0.708  0.00  0.00    -0.287 OA
ATOM     22  H21 NON d   1      19.290 -21.182  -0.199  0.00  0.00     0.244 HD
ENDBRANCH  19  21
ENDBRANCH  16  17
ENDBRANCH  15  16
ENDBRANCH  14  15
ENDBRANCH  13  14
ENDBRANCH  12  13
ENDBRANCH   1  12
BRANCH   1  23
ATOM     23  C15 NON d   1      26.870 -15.191  -3.634  0.00  0.00     0.253 C 
ATOM     24  O5  NON d   1      26.878 -15.575  -4.816  0.00  0.00    -0.270 OA
ATOM     25  N2  NON d   1      28.075 -15.182  -2.987  0.00  0.00    -0.312 N 
BRANCH  25  26
ATOM     26  C16 NON d   1      29.373 -15.277  -3.752  0.00  0.00     0.171 C 
BRANCH  26  27
ATOM     27  C17 NON d   1      29.917 -16.402  -4.666  0.00  0.00    -0.037 C 
ATOM     28  C18 NON d   1      30.260 -16.249  -5.994  0.00  0.00     0.009 C 
ATOM     29  C19 NON d   1      30.415 -17.306  -6.894  0.00  0.00     0.003 C 
ATOM     30  C20 NON d   1      30.482 -18.597  -6.437  0.00  0.00     0.037 C 
ATOM     31  C21 NON d   1      30.394 -18.816  -5.071  0.00  0.00     0.068 C 
ATOM     32  C23 NON d   1      30.040 -17.741  -4.208  0.00  0.00     0.045 C 
BRANCH  31  33
ATOM     33  O6  NON d   1      30.634 -20.047  -4.510  0.00  0.00    -0.356 OA
ATOM     34  C22 NON d   1      31.282 -20.992  -5.375  0.00  0.00     0.210 C 
ENDBRANCH  31  33
ENDBRANCH  26  27
ENDBRANCH  25  26
BRANCH  25  35
ATOM     35  C24 NON d   1      27.854 -14.798  -1.695  0.00  0.00     0.037 C 
ATOM     36  C25 NON d   1      28.050 -12.982  -1.204  0.00  0.00     0.030 C 
ATOM     37  C26 NON d   1      27.874 -12.538   0.550  0.00  0.00     0.002 C 
ATOM     38  C27 NON d   1      27.765 -13.855   1.765  0.00  0.00     0.000 C 
ATOM     39  C28 NON d   1      27.781 -15.575   1.309  0.00  0.00     0.002 C 
ATOM     40  C29 NON d   1      27.831 -16.060  -0.413  0.00  0.00     0.030 C 
ENDBRANCH  25  35
ENDBRANCH   1  23
TORSDOF 16
ENDMDL
MODEL 6
REMARK VINA RESULT:    -9.241      2.782      6.688
REMARK INTER + INTRA:         -17.374
REMARK INTER:                 -14.014
REMARK INTRA:                  -3.361
REMARK CONF_INDEPENDENT:        4.773
REMARK UNBOUND:                -3.361
REMARK  16 active torsions:
REMARK  status: ('A' for Active; 'I' for Inactive)
REMARK    1  A    between atoms: O1_2  and  C2_3 
REMARK    2  A    between atoms: C6_7  and  C7_8 
REMARK    3  A    between atoms: C7_8  and  O2_9 
REMARK    4  A    between atoms: O2_9  and  C8_10 
REMARK    5  A    between atoms: C8_10  and  C9_11 
REMARK    6  A    between atoms: C8_10  and  C15_20 
REMARK    7  A    between atoms: C9_11  and  C10_12 
REMARK    8  A    between atoms: C10_12  and  C11_13 
REMARK    9  A    between atoms: C11_13  and  C12_14 
REMARK   10  A    between atoms: C12_14  and  C13_15 
REMARK   11  A    between atoms: C13_15  and  C14_16 
REMARK       I    between atoms: C14_16  and  N1_18 
REMARK   12  A    between atoms: N1_18  and  O4_19 
REMARK       I    between atoms: C15_20  and  N2_22 
REMARK   13  A    between atoms: N2_22  and  C16_23 
REMARK   14  A    between atoms: N2_22  and  C24_32 
REMARK   15  A    between atoms: C16_23  and  C17_24 
REMARK   16  A    between atoms: C21_28  and  O6_29 
ROOT
ATOM      1  C8  NON d   1      27.025 -16.761  -1.398  0.00  0.00     0.214 C 
ENDROOT
BRANCH   1   2
ATOM      2  O2  NON d   1      28.224 -17.634  -0.789  0.00  0.00    -0.372 OA
BRANCH   2   3
ATOM      3  C7  NON d   1      29.819 -17.428  -1.539  0.00  0.00     0.207 C 
BRANCH   3   4
ATOM      4  C6  NON d   1      30.327 -17.035  -3.593  0.00  0.00    -0.032 C 
ATOM      5  C5  NON d   1      30.903 -18.124  -4.668  0.00  0.00     0.009 C 
ATOM      6  C4  NON d   1      30.952 -18.175  -6.068  0.00  0.00     0.003 C 
ATOM      7  C3  NON d   1      30.405 -17.143  -6.720  0.00  0.00     0.037 C 
ATOM      8  C2  NON d   1      29.934 -16.092  -5.953  0.00  0.00     0.068 C 
ATOM      9  C30 NON d   1      30.022 -15.933  -4.511  0.00  0.00     0.046 C 
BRANCH   8  10
ATOM     10  O1  NON d   1      29.088 -15.370  -6.743  0.00  0.00    -0.356 OA
ATOM     11  C1  NON d   1      29.709 -14.003  -7.088  0.00  0.00     0.210 C 
ENDBRANCH   8  10
ENDBRANCH   3   4
ENDBRANCH   2   3
ENDBRANCH   1   2
BRANCH   1  12
ATOM     12  C9  NON d   1      25.546 -17.462  -1.268  0.00  0.00     0.041 C 
BRANCH  12  13
ATOM     13  C10 NON d   1      24.535 -16.918  -0.225  0.00  0.00     0.003 C 
BRANCH  13  14
ATOM     14  C11 NON d   1      23.059 -17.037  -0.661  0.00  0.00     0.001 C 
BRANCH  14  15
ATOM     15  C12 NON d   1      22.568 -18.454  -1.014  0.00  0.00     0.009 C 
BRANCH  15  16
ATOM     16  C13 NON d   1      21.525 -19.041  -0.061  0.00  0.00     0.105 C 
BRANCH  16  17
ATOM     17  C14 NON d   1      20.306 -19.589  -0.799  0.00  0.00     0.240 C 
ATOM     18  O3  NON d   1      20.252 -19.700  -2.020  0.00  0.00    -0.271 OA
ATOM     19  N1  NON d   1      19.291 -19.945   0.066  0.00  0.00    -0.237 N 
ATOM     20  H20 NON d   1      19.269 -19.654   1.036  0.00  0.00     0.197 HD
BRANCH  19  21
ATOM     21  O4  NON d   1      18.106 -20.442  -0.517  0.00  0.00    -0.287 OA
ATOM     22  H21 NON d   1      18.196 -20.233  -1.462  0.00  0.00     0.244 HD
ENDBRANCH  19  21
ENDBRANCH  16  17
ENDBRANCH  15  16
ENDBRANCH  14  15
ENDBRANCH  13  14
ENDBRANCH  12  13
ENDBRANCH   1  12
BRANCH   1  23
ATOM     23  C15 NON d   1      26.965 -15.846  -0.160  0.00  0.00     0.253 C 
ATOM     24  O5  NON d   1      26.990 -16.303   0.995  0.00  0.00    -0.270 OA
ATOM     25  N2  NON d   1      26.703 -14.509  -0.282  0.00  0.00    -0.312 N 
BRANCH  25  26
ATOM     26  C16 NON d   1      26.802 -13.582   0.905  0.00  0.00     0.171 C 
BRANCH  26  27
ATOM     27  C17 NON d   1      27.694 -13.663   2.168  0.00  0.00    -0.037 C 
ATOM     28  C18 NON d   1      29.019 -14.048   2.180  0.00  0.00     0.009 C 
ATOM     29  C19 NON d   1      29.713 -14.450   3.324  0.00  0.00     0.003 C 
ATOM     30  C20 NON d   1      29.174 -14.238   4.567  0.00  0.00     0.037 C 
ATOM     31  C21 NON d   1      27.936 -13.620   4.650  0.00  0.00     0.068 C 
ATOM     32  C23 NON d   1      27.175 -13.407   3.465  0.00  0.00     0.045 C 
BRANCH  31  33
ATOM     33  O6  NON d   1      27.404 -13.204   5.846  0.00  0.00    -0.356 OA
ATOM     34  C22 NON d   1      27.788 -11.882   6.254  0.00  0.00     0.210 C 
ENDBRANCH  31  33
ENDBRANCH  26  27
ENDBRANCH  25  26
BRANCH  25  35
ATOM     35  C24 NON d   1      26.652 -14.211  -1.615  0.00  0.00     0.037 C 
ATOM     36  C25 NON d   1      28.049 -13.218  -2.414  0.00  0.00     0.030 C 
ATOM     37  C26 NON d   1      27.875 -12.735  -4.158  0.00  0.00     0.002 C 
ATOM     38  C27 NON d   1      26.300 -13.004  -4.973  0.00  0.00     0.000 C 
ATOM     39  C28 NON d   1      24.917 -13.764  -4.150  0.00  0.00     0.002 C 
ATOM     40  C29 NON d   1      25.078 -14.366  -2.471  0.00  0.00     0.030 C 
ENDBRANCH  25  35
ENDBRANCH   1  23
TORSDOF 16
ENDMDL
MODEL 7
REMARK VINA RESULT:    -8.924      1.307      1.795
REMARK INTER + INTRA:         -17.568
REMARK INTER:                 -13.697
REMARK INTRA:                  -3.871
REMARK CONF_INDEPENDENT:        4.773
REMARK UNBOUND:                -3.871
REMARK  16 active torsions:
REMARK  status: ('A' for Active; 'I' for Inactive)
REMARK    1  A    between atoms: O1_2  and  C2_3 
REMARK    2  A    between atoms: C6_7  and  C7_8 
REMARK    3  A    between atoms: C7_8  and  O2_9 
REMARK    4  A    between atoms: O2_9  and  C8_10 
REMARK    5  A    between atoms: C8_10  and  C9_11 
REMARK    6  A    between atoms: C8_10  and  C15_20 
REMARK    7  A    between atoms: C9_11  and  C10_12 
REMARK    8  A    between atoms: C10_12  and  C11_13 
REMARK    9  A    between atoms: C11_13  and  C12_14 
REMARK   10  A    between atoms: C12_14  and  C13_15 
REMARK   11  A    between atoms: C13_15  and  C14_16 
REMARK       I    between atoms: C14_16  and  N1_18 
REMARK   12  A    between atoms: N1_18  and  O4_19 
REMARK       I    between atoms: C15_20  and  N2_22 
REMARK   13  A    between atoms: N2_22  and  C16_23 
REMARK   14  A    between atoms: N2_22  and  C24_32 
REMARK   15  A    between atoms: C16_23  and  C17_24 
REMARK   16  A    between atoms: C21_28  and  O6_29 
ROOT
ATOM      1  C8  NON d   1      25.567 -15.010  -2.746  0.00  0.00     0.214 C 
ENDROOT
BRANCH   1   2
ATOM      2  O2  NON d   1      24.695 -14.386  -3.938  0.00  0.00    -0.372 OA
BRANCH   2   3
ATOM      3  C7  NON d   1      25.255 -12.843  -4.611  0.00  0.00     0.207 C 
BRANCH   3   4
ATOM      4  C6  NON d   1      27.165 -12.329  -5.460  0.00  0.00    -0.032 C 
ATOM      5  C5  NON d   1      28.475 -11.802  -4.636  0.00  0.00     0.009 C 
ATOM      6  C4  NON d   1      29.847 -11.762  -4.915  0.00  0.00     0.003 C 
ATOM      7  C3  NON d   1      30.230 -12.272  -6.091  0.00  0.00     0.037 C 
ATOM      8  C2  NON d   1      29.230 -12.698  -6.948  0.00  0.00     0.068 C 
ATOM      9  C30 NON d   1      27.792 -12.596  -6.758  0.00  0.00     0.046 C 
BRANCH   8  10
ATOM     10  O1  NON d   1      29.814 -13.519  -7.866  0.00  0.00    -0.356 OA
ATOM     11  C1  NON d   1      31.152 -12.924  -8.347  0.00  0.00     0.210 C 
ENDBRANCH   8  10
ENDBRANCH   3   4
ENDBRANCH   2   3
ENDBRANCH   1   2
BRANCH   1  12
ATOM     12  C9  NON d   1      25.238 -16.585  -2.422  0.00  0.00     0.041 C 
BRANCH  12  13
ATOM     13  C10 NON d   1      24.839 -16.998  -0.980  0.00  0.00     0.003 C 
BRANCH  13  14
ATOM     14  C11 NON d   1      24.009 -18.297  -0.907  0.00  0.00     0.001 C 
BRANCH  14  15
ATOM     15  C12 NON d   1      22.487 -18.140  -1.083  0.00  0.00     0.009 C 
BRANCH  15  16
ATOM     16  C13 NON d   1      21.629 -18.975  -0.130  0.00  0.00     0.105 C 
BRANCH  16  17
ATOM     17  C14 NON d   1      20.386 -19.542  -0.812  0.00  0.00     0.240 C 
ATOM     18  O3  NON d   1      20.298 -19.701  -2.026  0.00  0.00    -0.271 OA
ATOM     19  N1  NON d   1      19.392 -19.854   0.094  0.00  0.00    -0.237 N 
ATOM     20  H20 NON d   1      19.399 -19.524   1.052  0.00  0.00     0.197 HD
BRANCH  19  21
ATOM     21  O4  NON d   1      18.188 -20.363  -0.436  0.00  0.00    -0.287 OA
ATOM     22  H21 NON d   1      18.223 -20.132  -1.379  0.00  0.00     0.244 HD
ENDBRANCH  19  21
ENDBRANCH  16  17
ENDBRANCH  15  16
ENDBRANCH  14  15
ENDBRANCH  13  14
ENDBRANCH  12  13
ENDBRANCH   1  12
BRANCH   1  23
ATOM     23  C15 NON d   1      26.798 -15.205  -3.652  0.00  0.00     0.253 C 
ATOM     24  O5  NON d   1      26.697 -15.623  -4.817  0.00  0.00    -0.270 OA
ATOM     25  N2  NON d   1      28.067 -15.093  -3.152  0.00  0.00    -0.312 N 
BRANCH  25  26
ATOM     26  C16 NON d   1      29.271 -15.123  -4.063  0.00  0.00     0.171 C 
BRANCH  26  27
ATOM     27  C17 NON d   1      29.900 -16.296  -4.852  0.00  0.00    -0.037 C 
ATOM     28  C18 NON d   1      30.305 -16.239  -6.171  0.00  0.00     0.009 C 
ATOM     29  C19 NON d   1      30.543 -17.359  -6.971  0.00  0.00     0.003 C 
ATOM     30  C20 NON d   1      30.632 -18.605  -6.405  0.00  0.00     0.037 C 
ATOM     31  C21 NON d   1      30.483 -18.715  -5.032  0.00  0.00     0.068 C 
ATOM     32  C23 NON d   1      30.047 -17.587  -4.279  0.00  0.00     0.045 C 
BRANCH  31  33
ATOM     33  O6  NON d   1      30.737 -19.885  -4.359  0.00  0.00    -0.356 OA
ATOM     34  C22 NON d   1      31.101 -20.997  -5.191  0.00  0.00     0.210 C 
ENDBRANCH  31  33
ENDBRANCH  26  27
ENDBRANCH  25  26
BRANCH  25  35
ATOM     35  C24 NON d   1      27.972 -14.684  -1.852  0.00  0.00     0.037 C 
ATOM     36  C25 NON d   1      27.895 -15.966  -0.464  0.00  0.00     0.030 C 
ATOM     37  C26 NON d   1      27.637 -15.381   1.238  0.00  0.00     0.002 C 
ATOM     38  C27 NON d   1      27.227 -13.654   1.502  0.00  0.00     0.000 C 
ATOM     39  C28 NON d   1      27.105 -12.488   0.163  0.00  0.00     0.002 C 
ATOM     40  C29 NON d   1      27.469 -12.990  -1.516  0.00  0.00     0.030 C 
ENDBRANCH  25  35
ENDBRANCH   1  23
TORSDOF 16
ENDMDL
MODEL 8
REMARK VINA RESULT:    -7.698      3.346      7.648
REMARK INTER + INTRA:         -17.820
REMARK INTER:                 -12.470
REMARK INTRA:                  -5.350
REMARK CONF_INDEPENDENT:        4.773
REMARK UNBOUND:                -5.350
REMARK  16 active torsions:
REMARK  status: ('A' for Active; 'I' for Inactive)
REMARK    1  A    between atoms: O1_2  and  C2_3 
REMARK    2  A    between atoms: C6_7  and  C7_8 
REMARK    3  A    between atoms: C7_8  and  O2_9 
REMARK    4  A    between atoms: O2_9  and  C8_10 
REMARK    5  A    between atoms: C8_10  and  C9_11 
REMARK    6  A    between atoms: C8_10  and  C15_20 
REMARK    7  A    between atoms: C9_11  and  C10_12 
REMARK    8  A    between atoms: C10_12  and  C11_13 
REMARK    9  A    between atoms: C11_13  and  C12_14 
REMARK   10  A    between atoms: C12_14  and  C13_15 
REMARK   11  A    between atoms: C13_15  and  C14_16 
REMARK       I    between atoms: C14_16  and  N1_18 
REMARK   12  A    between atoms: N1_18  and  O4_19 
REMARK       I    between atoms: C15_20  and  N2_22 
REMARK   13  A    between atoms: N2_22  and  C16_23 
REMARK   14  A    between atoms: N2_22  and  C24_32 
REMARK   15  A    between atoms: C16_23  and  C17_24 
REMARK   16  A    between atoms: C21_28  and  O6_29 
ROOT
ATOM      1  C8  NON d   1      29.390 -14.929   0.063  0.00  0.00     0.214 C 
ENDROOT
BRANCH   1   2
ATOM      2  O2  NON d   1      28.752 -13.582   0.653  0.00  0.00    -0.372 OA
BRANCH   2   3
ATOM      3  C7  NON d   1      28.350 -12.311  -0.519  0.00  0.00     0.207 C 
BRANCH   3   4
ATOM      4  C6  NON d   1      26.884 -12.313  -2.095  0.00  0.00    -0.032 C 
ATOM      5  C5  NON d   1      26.935 -11.412  -3.458  0.00  0.00     0.009 C 
ATOM      6  C4  NON d   1      26.320 -11.514  -4.713  0.00  0.00     0.003 C 
ATOM      7  C3  NON d   1      25.521 -12.571  -4.900  0.00  0.00     0.037 C 
ATOM      8  C2  NON d   1      25.310 -13.400  -3.813  0.00  0.00     0.068 C 
ATOM      9  C30 NON d   1      25.796 -13.228  -2.453  0.00  0.00     0.046 C 
BRANCH   8  10
ATOM     10  O1  NON d   1      24.827 -14.579  -4.299  0.00  0.00    -0.356 OA
ATOM     11  C1  NON d   1      25.981 -15.559  -4.584  0.00  0.00     0.210 C 
ENDBRANCH   8  10
ENDBRANCH   3   4
ENDBRANCH   2   3
ENDBRANCH   1   2
BRANCH   1  12
ATOM     12  C9  NON d   1      30.568 -15.585   1.000  0.00  0.00     0.041 C 
BRANCH  12  13
ATOM     13  C10 NON d   1      31.259 -14.707   2.078  0.00  0.00     0.003 C 
BRANCH  13  14
ATOM     14  C11 NON d   1      30.276 -14.002   3.036  0.00  0.00     0.001 C 
BRANCH  14  15
ATOM     15  C12 NON d   1      29.968 -14.737   4.354  0.00  0.00     0.009 C 
BRANCH  15  16
ATOM     16  C13 NON d   1      28.487 -14.817   4.728  0.00  0.00     0.105 C 
BRANCH  16  17
ATOM     17  C14 NON d   1      27.756 -13.496   4.499  0.00  0.00     0.240 C 
ATOM     18  O3  NON d   1      27.422 -12.745   5.411  0.00  0.00    -0.271 OA
ATOM     19  N1  NON d   1      27.530 -13.252   3.160  0.00  0.00    -0.237 N 
ATOM     20  H20 NON d   1      27.619 -13.968   2.449  0.00  0.00     0.197 HD
BRANCH  19  21
ATOM     21  O4  NON d   1      26.837 -12.065   2.840  0.00  0.00    -0.287 OA
ATOM     22  H21 NON d   1      26.675 -11.641   3.700  0.00  0.00     0.244 HD
ENDBRANCH  19  21
ENDBRANCH  16  17
ENDBRANCH  15  16
ENDBRANCH  14  15
ENDBRANCH  13  14
ENDBRANCH  12  13
ENDBRANCH   1  12
BRANCH   1  23
ATOM     23  C15 NON d   1      28.202 -15.786   0.538  0.00  0.00     0.253 C 
ATOM     24  O5  NON d   1      27.608 -15.552   1.604  0.00  0.00    -0.270 OA
ATOM     25  N2  NON d   1      27.865 -16.946  -0.106  0.00  0.00    -0.312 N 
BRANCH  25  26
ATOM     26  C16 NON d   1      26.610 -17.703   0.254  0.00  0.00     0.171 C 
BRANCH  26  27
ATOM     27  C17 NON d   1      25.168 -17.572  -0.295  0.00  0.00    -0.037 C 
ATOM     28  C18 NON d   1      24.638 -16.434  -0.870  0.00  0.00     0.009 C 
ATOM     29  C19 NON d   1      23.272 -16.203  -1.043  0.00  0.00     0.003 C 
ATOM     30  C20 NON d   1      22.372 -17.224  -0.877  0.00  0.00     0.037 C 
ATOM     31  C21 NON d   1      22.857 -18.478  -0.537  0.00  0.00     0.068 C 
ATOM     32  C23 NON d   1      24.227 -18.628  -0.176  0.00  0.00     0.045 C 
BRANCH  31  33
ATOM     33  O6  NON d   1      22.057 -19.595  -0.529  0.00  0.00    -0.356 OA
ATOM     34  C22 NON d   1      20.649 -19.332  -0.448  0.00  0.00     0.210 C 
ENDBRANCH  31  33
ENDBRANCH  26  27
ENDBRANCH  25  26
BRANCH  25  35
ATOM     35  C24 NON d   1      28.661 -17.059  -1.210  0.00  0.00     0.037 C 
ATOM     36  C25 NON d   1      30.322 -17.955  -1.088  0.00  0.00     0.030 C 
ATOM     37  C26 NON d   1      31.405 -17.968  -2.548  0.00  0.00     0.002 C 
ATOM     38  C27 NON d   1      30.972 -16.936  -3.951  0.00  0.00     0.000 C 
ATOM     39  C28 NON d   1      29.500 -15.936  -3.980  0.00  0.00     0.002 C 
ATOM     40  C29 NON d   1      28.342 -15.983  -2.616  0.00  0.00     0.030 C 
ENDBRANCH  25  35
ENDBRANCH   1  23
TORSDOF 16
ENDMDL
