MODEL 1
REMARK VINA RESULT:   -27.500      0.000      0.000
REMARK INTER + INTRA:         -32.271
REMARK INTER:                 -30.781
REMARK INTRA:                  -1.490
REMARK CONF_INDEPENDENT:        3.281
REMARK UNBOUND:                -1.490
REMARK  11 active torsions:
REMARK  status: ('A' for Active; 'I' for Inactive)
REMARK    1  A    between atoms: N1_1  and  C1_2 
REMARK    2  A    between atoms: C5_6  and  C6_7 
REMARK    3  A    between atoms: C8_9  and  C9_10 
REMARK       I    between atoms: C9_10  and  N2_12 
REMARK    4  A    between atoms: N2_12  and  C10_13 
REMARK    5  A    between atoms: C10_13  and  C11_14 
REMARK    6  A    between atoms: C11_14  and  C12_15 
REMARK    7  A    between atoms: C12_15  and  C13_16 
REMARK    8  A    between atoms: C13_16  and  C14_17 
REMARK    9  A    between atoms: C14_17  and  C15_18 
REMARK   10  A    between atoms: C15_18  and  C16_19 
REMARK       I    between atoms: C16_19  and  N3_21 
REMARK   11  A    between atoms: N3_21  and  O3_22 
ROOT
ATOM      1  C9  NON d   1      26.851 -13.769  -1.469  0.00  0.00     0.272 C 
ATOM      2  O1  NON d   1      27.890 -14.060  -2.057  0.00  0.00    -0.266 OA
ATOM      3  N2  NON d   1      26.756 -12.646  -0.662  0.00  0.00    -0.356 N 
ATOM      4  H7  NON d   1      25.879 -12.469  -0.185  0.00  0.00     0.162 HD
ENDROOT
BRANCH   1   5
ATOM      5  C8  NON d   1      25.649 -14.596  -1.605  0.00  0.00     0.154 A 
ATOM      6  C7  NON d   1      25.420 -15.809  -0.911  0.00  0.00     0.080 A 
ATOM      7  C6  NON d   1      24.193 -16.255  -1.333  0.00  0.00     0.114 A 
ATOM      8  O4  NON d   1      23.702 -15.354  -2.236  0.00  0.00    -0.212 OA
ATOM      9  N4  NON d   1      24.613 -14.310  -2.414  0.00  0.00    -0.122 NA
BRANCH   7  10
ATOM     10  C5  NON d   1      23.387 -17.432  -1.014  0.00  0.00     0.002 A 
ATOM     11  C4  NON d   1      24.017 -18.585  -0.511  0.00  0.00     0.014 A 
ATOM     12  C3  NON d   1      23.278 -19.712  -0.151  0.00  0.00     0.003 A 
ATOM     13  C2  NON d   1      21.895 -19.712  -0.307  0.00  0.00     0.023 A 
ATOM     14  C1  NON d   1      21.245 -18.608  -0.863  0.00  0.00     0.006 A 
ATOM     15  C17 NON d   1      21.991 -17.459  -1.165  0.00  0.00     0.037 A 
BRANCH  14  16
ATOM     16  N1  NON d   1      19.843 -18.576  -0.896  0.00  0.00    -0.303 NA
ATOM     17  H1  NON d   1      19.419 -19.433  -1.239  0.00  0.00     0.124 HD
ATOM     18  H2  NON d   1      19.466 -17.750  -1.350  0.00  0.00     0.124 HD
ENDBRANCH  14  16
ENDBRANCH   7  10
ENDBRANCH   1   5
BRANCH   3  19
ATOM     19  C10 NON d   1      27.911 -11.789  -0.507  0.00  0.00     0.123 C 
BRANCH  19  20
ATOM     20  C11 NON d   1      28.583 -11.815   0.863  0.00  0.00     0.020 C 
BRANCH  20  21
ATOM     21  C12 NON d   1      27.620 -11.890   2.054  0.00  0.00     0.002 C 
BRANCH  21  22
ATOM     22  C13 NON d   1      27.697 -13.211   2.815  0.00  0.00     0.001 C 
BRANCH  22  23
ATOM     23  C14 NON d   1      29.091 -13.503   3.390  0.00  0.00     0.009 C 
BRANCH  23  24
ATOM     24  C15 NON d   1      29.361 -12.905   4.775  0.00  0.00     0.105 C 
BRANCH  24  25
ATOM     25  C16 NON d   1      29.383 -13.878   5.944  0.00  0.00     0.240 C 
ATOM     26  O2  NON d   1      28.485 -14.674   6.192  0.00  0.00    -0.271 OA
ATOM     27  N3  NON d   1      30.520 -13.696   6.720  0.00  0.00    -0.237 N 
ATOM     28  H20 NON d   1      31.348 -13.274   6.312  0.00  0.00     0.197 HD
BRANCH  27  29
ATOM     29  O3  NON d   1      30.776 -14.695   7.685  0.00  0.00    -0.287 OA
ATOM     30  H21 NON d   1      29.919 -15.158   7.735  0.00  0.00     0.244 HD
ENDBRANCH  27  29
ENDBRANCH  24  25
ENDBRANCH  23  24
ENDBRANCH  22  23
ENDBRANCH  21  22
ENDBRANCH  20  21
ENDBRANCH  19  20
ENDBRANCH   3  19
TORSDOF 11
ENDMDL
MODEL 2
REMARK VINA RESULT:   -27.307      3.935      5.997
REMARK INTER + INTRA:         -34.026
REMARK INTER:                 -30.588
REMARK INTRA:                  -3.438
REMARK CONF_INDEPENDENT:        3.281
REMARK UNBOUND:                -3.438
REMARK  11 active torsions:
REMARK  status: ('A' for Active; 'I' for Inactive)
REMARK    1  A    between atoms: N1_1  and  C1_2 
REMARK    2  A    between atoms: C5_6  and  C6_7 
REMARK    3  A    between atoms: C8_9  and  C9_10 
REMARK       I    between atoms: C9_10  and  N2_12 
REMARK    4  A    between atoms: N2_12  and  C10_13 
REMARK    5  A    between atoms: C10_13  and  C11_14 
REMARK    6  A    between atoms: C11_14  and  C12_15 
REMARK    7  A    between atoms: C12_15  and  C13_16 
REMARK    8  A    between atoms: C13_16  and  C14_17 
REMARK    9  A    between atoms: C14_17  and  C15_18 
REMARK   10  A    between atoms: C15_18  and  C16_19 
REMARK       I    between atoms: C16_19  and  N3_21 
REMARK   11  A    between atoms: N3_21  and  O3_22 
ROOT
ATOM      1  C9  NON d   1      26.741 -13.582  -1.112  0.00  0.00     0.272 C 
ATOM      2  O1  NON d   1      26.645 -12.789  -0.179  0.00  0.00    -0.266 OA
ATOM      3  N2  NON d   1      27.873 -13.641  -1.911  0.00  0.00    -0.356 N 
ATOM      4  H7  NON d   1      27.886 -14.301  -2.680  0.00  0.00     0.162 HD
ENDROOT
BRANCH   1   5
ATOM      5  C8  NON d   1      25.659 -14.522  -1.420  0.00  0.00     0.154 A 
ATOM      6  C7  NON d   1      25.302 -15.632  -0.617  0.00  0.00     0.080 A 
ATOM      7  C6  NON d   1      24.258 -16.242  -1.266  0.00  0.00     0.114 A 
ATOM      8  O4  NON d   1      23.996 -15.534  -2.406  0.00  0.00    -0.212 OA
ATOM      9  N4  NON d   1      24.874 -14.453  -2.510  0.00  0.00    -0.122 NA
BRANCH   7  10
ATOM     10  C5  NON d   1      23.447 -17.424  -0.978  0.00  0.00     0.002 A 
ATOM     11  C4  NON d   1      24.067 -18.580  -0.470  0.00  0.00     0.014 A 
ATOM     12  C3  NON d   1      23.322 -19.711  -0.138  0.00  0.00     0.003 A 
ATOM     13  C2  NON d   1      21.942 -19.712  -0.329  0.00  0.00     0.023 A 
ATOM     14  C1  NON d   1      21.304 -18.605  -0.890  0.00  0.00     0.006 A 
ATOM     15  C17 NON d   1      22.055 -17.452  -1.163  0.00  0.00     0.037 A 
BRANCH  14  16
ATOM     16  N1  NON d   1      19.904 -18.575  -0.957  0.00  0.00    -0.303 NA
ATOM     17  H1  NON d   1      19.520 -17.655  -1.157  0.00  0.00     0.124 HD
ATOM     18  H2  NON d   1      19.449 -19.020  -0.167  0.00  0.00     0.124 HD
ENDBRANCH  14  16
ENDBRANCH   7  10
ENDBRANCH   1   5
BRANCH   3  19
ATOM     19  C10 NON d   1      28.974 -12.744  -1.638  0.00  0.00     0.123 C 
BRANCH  19  20
ATOM     20  C11 NON d   1      28.733 -11.272  -1.961  0.00  0.00     0.020 C 
BRANCH  20  21
ATOM     21  C12 NON d   1      28.254 -10.994  -3.392  0.00  0.00     0.002 C 
BRANCH  21  22
ATOM     22  C13 NON d   1      26.839 -11.494  -3.666  0.00  0.00     0.001 C 
BRANCH  22  23
ATOM     23  C14 NON d   1      26.667 -12.100  -5.068  0.00  0.00     0.009 C 
BRANCH  23  24
ATOM     24  C15 NON d   1      27.710 -13.154  -5.452  0.00  0.00     0.105 C 
BRANCH  24  25
ATOM     25  C16 NON d   1      27.279 -14.609  -5.345  0.00  0.00     0.240 C 
ATOM     26  O2  NON d   1      28.011 -15.562  -5.585  0.00  0.00    -0.271 OA
ATOM     27  N3  NON d   1      25.936 -14.706  -5.006  0.00  0.00    -0.237 N 
ATOM     28  H20 NON d   1      25.481 -13.938  -4.522  0.00  0.00     0.197 HD
BRANCH  27  29
ATOM     29  O3  NON d   1      25.483 -15.992  -4.637  0.00  0.00    -0.287 OA
ATOM     30  H21 NON d   1      25.453 -15.929  -3.665  0.00  0.00     0.244 HD
ENDBRANCH  27  29
ENDBRANCH  24  25
ENDBRANCH  23  24
ENDBRANCH  22  23
ENDBRANCH  21  22
ENDBRANCH  20  21
ENDBRANCH  19  20
ENDBRANCH   3  19
TORSDOF 11
ENDMDL
MODEL 3
REMARK VINA RESULT:   -26.803      3.844      5.880
REMARK INTER + INTRA:         -33.521
REMARK INTER:                 -30.084
REMARK INTRA:                  -3.437
REMARK CONF_INDEPENDENT:        3.281
REMARK UNBOUND:                -3.437
REMARK  11 active torsions:
REMARK  status: ('A' for Active; 'I' for Inactive)
REMARK    1  A    between atoms: N1_1  and  C1_2 
REMARK    2  A    between atoms: C5_6  and  C6_7 
REMARK    3  A    between atoms: C8_9  and  C9_10 
REMARK       I    between atoms: C9_10  and  N2_12 
REMARK    4  A    between atoms: N2_12  and  C10_13 
REMARK    5  A    between atoms: C10_13  and  C11_14 
REMARK    6  A    between atoms: C11_14  and  C12_15 
REMARK    7  A    between atoms: C12_15  and  C13_16 
REMARK    8  A    between atoms: C13_16  and  C14_17 
REMARK    9  A    between atoms: C14_17  and  C15_18 
REMARK   10  A    between atoms: C15_18  and  C16_19 
REMARK       I    between atoms: C16_19  and  N3_21 
REMARK   11  A    between atoms: N3_21  and  O3_22 
ROOT
ATOM      1  C9  NON d   1      26.854 -13.768  -1.442  0.00  0.00     0.272 C 
ATOM      2  O1  NON d   1      26.941 -12.670  -1.987  0.00  0.00    -0.266 OA
ATOM      3  N2  NON d   1      27.868 -14.270  -0.641  0.00  0.00    -0.356 N 
ATOM      4  H7  NON d   1      27.749 -15.192  -0.235  0.00  0.00     0.162 HD
ENDROOT
BRANCH   1   5
ATOM      5  C8  NON d   1      25.659 -14.600  -1.603  0.00  0.00     0.154 A 
ATOM      6  C7  NON d   1      25.409 -15.801  -0.896  0.00  0.00     0.080 A 
ATOM      7  C6  NON d   1      24.197 -16.257  -1.350  0.00  0.00     0.114 A 
ATOM      8  O4  NON d   1      23.735 -15.373  -2.285  0.00  0.00    -0.212 OA
ATOM      9  N4  NON d   1      24.650 -14.331  -2.451  0.00  0.00    -0.122 NA
BRANCH   7  10
ATOM     10  C5  NON d   1      23.384 -17.431  -1.038  0.00  0.00     0.002 A 
ATOM     11  C4  NON d   1      24.000 -18.576  -0.501  0.00  0.00     0.014 A 
ATOM     12  C3  NON d   1      23.252 -19.698  -0.146  0.00  0.00     0.003 A 
ATOM     13  C2  NON d   1      21.873 -19.701  -0.342  0.00  0.00     0.023 A 
ATOM     14  C1  NON d   1      21.238 -18.606  -0.930  0.00  0.00     0.006 A 
ATOM     15  C17 NON d   1      21.992 -17.461  -1.227  0.00  0.00     0.037 A 
BRANCH  14  16
ATOM     16  N1  NON d   1      19.838 -18.575  -1.003  0.00  0.00    -0.303 NA
ATOM     17  H1  NON d   1      19.429 -17.697  -0.697  0.00  0.00     0.124 HD
ATOM     18  H2  NON d   1      19.391 -19.379  -0.576  0.00  0.00     0.124 HD
ENDBRANCH  14  16
ENDBRANCH   7  10
ENDBRANCH   1   5
BRANCH   3  19
ATOM     19  C10 NON d   1      29.062 -13.480  -0.438  0.00  0.00     0.123 C 
BRANCH  19  20
ATOM     20  C11 NON d   1      30.385 -14.239  -0.507  0.00  0.00     0.020 C 
BRANCH  20  21
ATOM     21  C12 NON d   1      30.533 -15.172  -1.715  0.00  0.00     0.002 C 
BRANCH  21  22
ATOM     22  C13 NON d   1      29.389 -15.052  -2.718  0.00  0.00     0.001 C 
BRANCH  22  23
ATOM     23  C14 NON d   1      29.830 -14.499  -4.082  0.00  0.00     0.009 C 
BRANCH  23  24
ATOM     24  C15 NON d   1      28.727 -13.802  -4.886  0.00  0.00     0.105 C 
BRANCH  24  25
ATOM     25  C16 NON d   1      27.573 -14.675  -5.357  0.00  0.00     0.240 C 
ATOM     26  O2  NON d   1      27.641 -15.454  -6.300  0.00  0.00    -0.271 OA
ATOM     27  N3  NON d   1      26.425 -14.421  -4.619  0.00  0.00    -0.237 N 
ATOM     28  H20 NON d   1      26.501 -14.028  -3.686  0.00  0.00     0.197 HD
BRANCH  27  29
ATOM     29  O3  NON d   1      25.363 -15.335  -4.794  0.00  0.00    -0.287 OA
ATOM     30  H21 NON d   1      24.782 -15.124  -4.039  0.00  0.00     0.244 HD
ENDBRANCH  27  29
ENDBRANCH  24  25
ENDBRANCH  23  24
ENDBRANCH  22  23
ENDBRANCH  21  22
ENDBRANCH  20  21
ENDBRANCH  19  20
ENDBRANCH   3  19
TORSDOF 11
ENDMDL
MODEL 4
REMARK VINA RESULT:   -26.673      4.172      6.409
REMARK INTER + INTRA:         -32.873
REMARK INTER:                 -29.954
REMARK INTRA:                  -2.918
REMARK CONF_INDEPENDENT:        3.281
REMARK UNBOUND:                -2.918
REMARK  11 active torsions:
REMARK  status: ('A' for Active; 'I' for Inactive)
REMARK    1  A    between atoms: N1_1  and  C1_2 
REMARK    2  A    between atoms: C5_6  and  C6_7 
REMARK    3  A    between atoms: C8_9  and  C9_10 
REMARK       I    between atoms: C9_10  and  N2_12 
REMARK    4  A    between atoms: N2_12  and  C10_13 
REMARK    5  A    between atoms: C10_13  and  C11_14 
REMARK    6  A    between atoms: C11_14  and  C12_15 
REMARK    7  A    between atoms: C12_15  and  C13_16 
REMARK    8  A    between atoms: C13_16  and  C14_17 
REMARK    9  A    between atoms: C14_17  and  C15_18 
REMARK   10  A    between atoms: C15_18  and  C16_19 
REMARK       I    between atoms: C16_19  and  N3_21 
REMARK   11  A    between atoms: N3_21  and  O3_22 
ROOT
ATOM      1  C9  NON d   1      26.682 -13.481  -1.510  0.00  0.00     0.272 C 
ATOM      2  O1  NON d   1      26.774 -12.745  -0.530  0.00  0.00    -0.266 OA
ATOM      3  N2  NON d   1      27.650 -13.505  -2.502  0.00  0.00    -0.356 N 
ATOM      4  H7  NON d   1      27.509 -14.116  -3.298  0.00  0.00     0.162 HD
ENDROOT
BRANCH   1   5
ATOM      5  C8  NON d   1      25.540 -14.385  -1.672  0.00  0.00     0.154 A 
ATOM      6  C7  NON d   1      25.329 -15.563  -0.915  0.00  0.00     0.080 A 
ATOM      7  C6  NON d   1      24.162 -16.108  -1.388  0.00  0.00     0.114 A 
ATOM      8  O4  NON d   1      23.688 -15.296  -2.382  0.00  0.00    -0.212 OA
ATOM      9  N4  NON d   1      24.551 -14.213  -2.567  0.00  0.00    -0.122 NA
BRANCH   7  10
ATOM     10  C5  NON d   1      23.401 -17.308  -1.047  0.00  0.00     0.002 A 
ATOM     11  C4  NON d   1      24.075 -18.427  -0.524  0.00  0.00     0.014 A 
ATOM     12  C3  NON d   1      23.379 -19.574  -0.142  0.00  0.00     0.003 A 
ATOM     13  C2  NON d   1      21.996 -19.629  -0.296  0.00  0.00     0.023 A 
ATOM     14  C1  NON d   1      21.305 -18.561  -0.871  0.00  0.00     0.006 A 
ATOM     15  C17 NON d   1      22.007 -17.390  -1.195  0.00  0.00     0.037 A 
BRANCH  14  16
ATOM     16  N1  NON d   1      19.903 -18.581  -0.902  0.00  0.00    -0.303 NA
ATOM     17  H1  NON d   1      19.496 -17.932  -1.569  0.00  0.00     0.124 HD
ATOM     18  H2  NON d   1      19.474 -18.512   0.015  0.00  0.00     0.124 HD
ENDBRANCH  14  16
ENDBRANCH   7  10
ENDBRANCH   1   5
BRANCH   3  19
ATOM     19  C10 NON d   1      28.805 -12.642  -2.380  0.00  0.00     0.123 C 
BRANCH  19  20
ATOM     20  C11 NON d   1      29.953 -12.923  -3.345  0.00  0.00     0.020 C 
BRANCH  20  21
ATOM     21  C12 NON d   1      29.841 -12.221  -4.705  0.00  0.00     0.002 C 
BRANCH  21  22
ATOM     22  C13 NON d   1      30.628 -12.916  -5.813  0.00  0.00     0.001 C 
BRANCH  22  23
ATOM     23  C14 NON d   1      29.788 -13.208  -7.066  0.00  0.00     0.009 C 
BRANCH  23  24
ATOM     24  C15 NON d   1      28.291 -13.413  -6.811  0.00  0.00     0.105 C 
BRANCH  24  25
ATOM     25  C16 NON d   1      27.907 -14.571  -5.903  0.00  0.00     0.240 C 
ATOM     26  O2  NON d   1      28.592 -15.574  -5.743  0.00  0.00    -0.271 OA
ATOM     27  N3  NON d   1      26.656 -14.365  -5.338  0.00  0.00    -0.237 N 
ATOM     28  H20 NON d   1      26.292 -13.422  -5.246  0.00  0.00     0.197 HD
BRANCH  27  29
ATOM     29  O3  NON d   1      26.298 -15.245  -4.292  0.00  0.00    -0.287 OA
ATOM     30  H21 NON d   1      25.373 -14.992  -4.117  0.00  0.00     0.244 HD
ENDBRANCH  27  29
ENDBRANCH  24  25
ENDBRANCH  23  24
ENDBRANCH  22  23
ENDBRANCH  21  22
ENDBRANCH  20  21
ENDBRANCH  19  20
ENDBRANCH   3  19
TORSDOF 11
ENDMDL
MODEL 5
REMARK VINA RESULT:   -26.671      2.526      2.785
REMARK INTER + INTRA:         -32.041
REMARK INTER:                 -29.952
REMARK INTRA:                  -2.088
REMARK CONF_INDEPENDENT:        3.281
REMARK UNBOUND:                -2.088
REMARK  11 active torsions:
REMARK  status: ('A' for Active; 'I' for Inactive)
REMARK    1  A    between atoms: N1_1  and  C1_2 
REMARK    2  A    between atoms: C5_6  and  C6_7 
REMARK    3  A    between atoms: C8_9  and  C9_10 
REMARK       I    between atoms: C9_10  and  N2_12 
REMARK    4  A    between atoms: N2_12  and  C10_13 
REMARK    5  A    between atoms: C10_13  and  C11_14 
REMARK    6  A    between atoms: C11_14  and  C12_15 
REMARK    7  A    between atoms: C12_15  and  C13_16 
REMARK    8  A    between atoms: C13_16  and  C14_17 
REMARK    9  A    between atoms: C14_17  and  C15_18 
REMARK   10  A    between atoms: C15_18  and  C16_19 
REMARK       I    between atoms: C16_19  and  N3_21 
REMARK   11  A    between atoms: N3_21  and  O3_22 
ROOT
ATOM      1  C9  NON d   1      26.981 -13.964  -1.978  0.00  0.00     0.272 C 
ATOM      2  O1  NON d   1      27.896 -14.326  -2.715  0.00  0.00    -0.266 OA
ATOM      3  N2  NON d   1      27.087 -12.839  -1.176  0.00  0.00    -0.356 N 
ATOM      4  H7  NON d   1      26.307 -12.602  -0.573  0.00  0.00     0.162 HD
ENDROOT
BRANCH   1   5
ATOM      5  C8  NON d   1      25.717 -14.705  -1.923  0.00  0.00     0.154 A 
ATOM      6  C7  NON d   1      25.549 -15.969  -1.306  0.00  0.00     0.080 A 
ATOM      7  C6  NON d   1      24.230 -16.301  -1.489  0.00  0.00     0.114 A 
ATOM      8  O4  NON d   1      23.629 -15.285  -2.180  0.00  0.00    -0.212 OA
ATOM      9  N4  NON d   1      24.559 -14.281  -2.458  0.00  0.00    -0.122 NA
BRANCH   7  10
ATOM     10  C5  NON d   1      23.423 -17.458  -1.108  0.00  0.00     0.002 A 
ATOM     11  C4  NON d   1      24.053 -18.592  -0.564  0.00  0.00     0.014 A 
ATOM     12  C3  NON d   1      23.314 -19.698  -0.145  0.00  0.00     0.003 A 
ATOM     13  C2  NON d   1      21.928 -19.696  -0.284  0.00  0.00     0.023 A 
ATOM     14  C1  NON d   1      21.277 -18.614  -0.879  0.00  0.00     0.006 A 
ATOM     15  C17 NON d   1      22.025 -17.484  -1.240  0.00  0.00     0.037 A 
BRANCH  14  16
ATOM     16  N1  NON d   1      19.875 -18.575  -0.895  0.00  0.00    -0.303 NA
ATOM     17  H1  NON d   1      19.490 -17.813  -1.446  0.00  0.00     0.124 HD
ATOM     18  H2  NON d   1      19.456 -18.635   0.027  0.00  0.00     0.124 HD
ENDBRANCH  14  16
ENDBRANCH   7  10
ENDBRANCH   1   5
BRANCH   3  19
ATOM     19  C10 NON d   1      28.309 -12.065  -1.207  0.00  0.00     0.123 C 
BRANCH  19  20
ATOM     20  C11 NON d   1      28.814 -11.561   0.143  0.00  0.00     0.020 C 
BRANCH  20  21
ATOM     21  C12 NON d   1      27.718 -11.106   1.115  0.00  0.00     0.002 C 
BRANCH  21  22
ATOM     22  C13 NON d   1      26.969 -12.263   1.769  0.00  0.00     0.001 C 
BRANCH  22  23
ATOM     23  C14 NON d   1      27.749 -12.925   2.915  0.00  0.00     0.009 C 
BRANCH  23  24
ATOM     24  C15 NON d   1      28.104 -14.399   2.691  0.00  0.00     0.105 C 
BRANCH  24  25
ATOM     25  C16 NON d   1      28.398 -14.819   1.259  0.00  0.00     0.240 C 
ATOM     26  O2  NON d   1      29.026 -14.136   0.458  0.00  0.00    -0.271 OA
ATOM     27  N3  NON d   1      27.808 -16.042   0.969  0.00  0.00    -0.237 N 
ATOM     28  H20 NON d   1      27.589 -16.688   1.720  0.00  0.00     0.197 HD
BRANCH  27  29
ATOM     29  O3  NON d   1      28.211 -16.651  -0.240  0.00  0.00    -0.287 OA
ATOM     30  H21 NON d   1      28.478 -15.884  -0.778  0.00  0.00     0.244 HD
ENDBRANCH  27  29
ENDBRANCH  24  25
ENDBRANCH  23  24
ENDBRANCH  22  23
ENDBRANCH  21  22
ENDBRANCH  20  21
ENDBRANCH  19  20
ENDBRANCH   3  19
TORSDOF 11
ENDMDL
MODEL 6
REMARK VINA RESULT:   -26.398      3.539      4.196
REMARK INTER + INTRA:         -32.872
REMARK INTER:                 -29.680
REMARK INTRA:                  -3.193
REMARK CONF_INDEPENDENT:        3.281
REMARK UNBOUND:                -3.193
REMARK  11 active torsions:
REMARK  status: ('A' for Active; 'I' for Inactive)
REMARK    1  A    between atoms: N1_1  and  C1_2 
REMARK    2  A    between atoms: C5_6  and  C6_7 
REMARK    3  A    between atoms: C8_9  and  C9_10 
REMARK       I    between atoms: C9_10  and  N2_12 
REMARK    4  A    between atoms: N2_12  and  C10_13 
REMARK    5  A    between atoms: C10_13  and  C11_14 
REMARK    6  A    between atoms: C11_14  and  C12_15 
REMARK    7  A    between atoms: C12_15  and  C13_16 
REMARK    8  A    between atoms: C13_16  and  C14_17 
REMARK    9  A    between atoms: C14_17  and  C15_18 
REMARK   10  A    between atoms: C15_18  and  C16_19 
REMARK       I    between atoms: C16_19  and  N3_21 
REMARK   11  A    between atoms: N3_21  and  O3_22 
ROOT
ATOM      1  C9  NON d   1      26.848 -13.847  -2.074  0.00  0.00     0.272 C 
ATOM      2  O1  NON d   1      26.885 -12.741  -2.608  0.00  0.00    -0.266 OA
ATOM      3  N2  NON d   1      27.972 -14.421  -1.500  0.00  0.00    -0.356 N 
ATOM      4  H7  NON d   1      27.886 -15.346  -1.094  0.00  0.00     0.162 HD
ENDROOT
BRANCH   1   5
ATOM      5  C8  NON d   1      25.601 -14.613  -2.007  0.00  0.00     0.154 A 
ATOM      6  C7  NON d   1      25.458 -15.868  -1.365  0.00  0.00     0.080 A 
ATOM      7  C6  NON d   1      24.147 -16.232  -1.545  0.00  0.00     0.114 A 
ATOM      8  O4  NON d   1      23.527 -15.244  -2.259  0.00  0.00    -0.212 OA
ATOM      9  N4  NON d   1      24.436 -14.225  -2.555  0.00  0.00    -0.122 NA
BRANCH   7  10
ATOM     10  C5  NON d   1      23.363 -17.398  -1.143  0.00  0.00     0.002 A 
ATOM     11  C4  NON d   1      24.017 -18.511  -0.585  0.00  0.00     0.014 A 
ATOM     12  C3  NON d   1      23.300 -19.624  -0.146  0.00  0.00     0.003 A 
ATOM     13  C2  NON d   1      21.915 -19.651  -0.278  0.00  0.00     0.023 A 
ATOM     14  C1  NON d   1      21.240 -18.590  -0.885  0.00  0.00     0.006 A 
ATOM     15  C17 NON d   1      21.965 -17.452  -1.267  0.00  0.00     0.037 A 
BRANCH  14  16
ATOM     16  N1  NON d   1      19.838 -18.578  -0.895  0.00  0.00    -0.303 NA
ATOM     17  H1  NON d   1      19.423 -19.333  -1.433  0.00  0.00     0.124 HD
ATOM     18  H2  NON d   1      19.440 -17.674  -1.128  0.00  0.00     0.124 HD
ENDBRANCH  14  16
ENDBRANCH   7  10
ENDBRANCH   1   5
BRANCH   3  19
ATOM     19  C10 NON d   1      29.224 -13.697  -1.527  0.00  0.00     0.123 C 
BRANCH  19  20
ATOM     20  C11 NON d   1      29.983 -13.725  -2.851  0.00  0.00     0.020 C 
BRANCH  20  21
ATOM     21  C12 NON d   1      31.124 -14.749  -2.921  0.00  0.00     0.002 C 
BRANCH  21  22
ATOM     22  C13 NON d   1      31.325 -15.523  -1.622  0.00  0.00     0.001 C 
BRANCH  22  23
ATOM     23  C14 NON d   1      31.407 -17.044  -1.824  0.00  0.00     0.009 C 
BRANCH  23  24
ATOM     24  C15 NON d   1      30.365 -17.858  -1.048  0.00  0.00     0.105 C 
BRANCH  24  25
ATOM     25  C16 NON d   1      29.085 -17.133  -0.660  0.00  0.00     0.240 C 
ATOM     26  O2  NON d   1      28.017 -17.267  -1.244  0.00  0.00    -0.271 OA
ATOM     27  N3  NON d   1      29.310 -16.259   0.395  0.00  0.00    -0.237 N 
ATOM     28  H20 NON d   1      30.090 -16.417   1.024  0.00  0.00     0.197 HD
BRANCH  27  29
ATOM     29  O3  NON d   1      28.156 -15.716   1.003  0.00  0.00    -0.287 OA
ATOM     30  H21 NON d   1      27.440 -16.220   0.574  0.00  0.00     0.244 HD
ENDBRANCH  27  29
ENDBRANCH  24  25
ENDBRANCH  23  24
ENDBRANCH  22  23
ENDBRANCH  21  22
ENDBRANCH  20  21
ENDBRANCH  19  20
ENDBRANCH   3  19
TORSDOF 11
ENDMDL
MODEL 7
REMARK VINA RESULT:   -26.384      4.931      7.156
REMARK INTER + INTRA:         -32.066
REMARK INTER:                 -29.665
REMARK INTRA:                  -2.401
REMARK CONF_INDEPENDENT:        3.281
REMARK UNBOUND:                -2.401
REMARK  11 active torsions:
REMARK  status: ('A' for Active; 'I' for Inactive)
REMARK    1  A    between atoms: N1_1  and  C1_2 
REMARK    2  A    between atoms: C5_6  and  C6_7 
REMARK    3  A    between atoms: C8_9  and  C9_10 
REMARK       I    between atoms: C9_10  and  N2_12 
REMARK    4  A    between atoms: N2_12  and  C10_13 
REMARK    5  A    between atoms: C10_13  and  C11_14 
REMARK    6  A    between atoms: C11_14  and  C12_15 
REMARK    7  A    between atoms: C12_15  and  C13_16 
REMARK    8  A    between atoms: C13_16  and  C14_17 
REMARK    9  A    between atoms: C14_17  and  C15_18 
REMARK   10  A    between atoms: C15_18  and  C16_19 
REMARK       I    between atoms: C16_19  and  N3_21 
REMARK   11  A    between atoms: N3_21  and  O3_22 
ROOT
ATOM      1  C9  NON d   1      25.541 -13.393  -2.994  0.00  0.00     0.272 C 
ATOM      2  O1  NON d   1      24.674 -12.871  -3.690  0.00  0.00    -0.266 OA
ATOM      3  N2  NON d   1      26.757 -12.773  -2.749  0.00  0.00    -0.356 N 
ATOM      4  H7  NON d   1      27.442 -13.262  -2.185  0.00  0.00     0.162 HD
ENDROOT
BRANCH   1   5
ATOM      5  C8  NON d   1      25.325 -14.703  -2.373  0.00  0.00     0.154 A 
ATOM      6  C7  NON d   1      24.066 -15.342  -2.255  0.00  0.00     0.080 A 
ATOM      7  C6  NON d   1      24.310 -16.530  -1.612  0.00  0.00     0.114 A 
ATOM      8  O4  NON d   1      25.651 -16.606  -1.355  0.00  0.00    -0.212 OA
ATOM      9  N4  NON d   1      26.294 -15.460  -1.829  0.00  0.00    -0.122 NA
BRANCH   7  10
ATOM     10  C5  NON d   1      23.454 -17.635  -1.184  0.00  0.00     0.002 A 
ATOM     11  C4  NON d   1      24.037 -18.778  -0.607  0.00  0.00     0.014 A 
ATOM     12  C3  NON d   1      23.251 -19.833  -0.144  0.00  0.00     0.003 A 
ATOM     13  C2  NON d   1      21.866 -19.771  -0.268  0.00  0.00     0.023 A 
ATOM     14  C1  NON d   1      21.259 -18.680  -0.892  0.00  0.00     0.006 A 
ATOM     15  C17 NON d   1      22.054 -17.598  -1.300  0.00  0.00     0.037 A 
BRANCH  14  16
ATOM     16  N1  NON d   1      19.860 -18.575  -0.895  0.00  0.00    -0.303 NA
ATOM     17  H1  NON d   1      19.496 -17.934  -1.594  0.00  0.00     0.124 HD
ATOM     18  H2  NON d   1      19.463 -18.410   0.024  0.00  0.00     0.124 HD
ENDBRANCH  14  16
ENDBRANCH   7  10
ENDBRANCH   1   5
BRANCH   3  19
ATOM     19  C10 NON d   1      27.013 -11.472  -3.327  0.00  0.00     0.123 C 
BRANCH  19  20
ATOM     20  C11 NON d   1      25.904 -10.436  -3.157  0.00  0.00     0.020 C 
BRANCH  20  21
ATOM     21  C12 NON d   1      26.387  -8.984  -3.055  0.00  0.00     0.002 C 
BRANCH  21  22
ATOM     22  C13 NON d   1      25.852  -8.087  -4.168  0.00  0.00     0.001 C 
BRANCH  22  23
ATOM     23  C14 NON d   1      24.502  -8.555  -4.733  0.00  0.00     0.009 C 
BRANCH  23  24
ATOM     24  C15 NON d   1      24.535  -9.019  -6.193  0.00  0.00     0.105 C 
BRANCH  24  25
ATOM     25  C16 NON d   1      25.746  -9.834  -6.621  0.00  0.00     0.240 C 
ATOM     26  O2  NON d   1      26.720  -9.365  -7.199  0.00  0.00    -0.271 OA
ATOM     27  N3  NON d   1      25.567 -11.180  -6.329  0.00  0.00    -0.237 N 
ATOM     28  H20 NON d   1      24.923 -11.456  -5.595  0.00  0.00     0.197 HD
BRANCH  27  29
ATOM     29  O3  NON d   1      26.714 -11.996  -6.452  0.00  0.00    -0.287 OA
ATOM     30  H21 NON d   1      27.433 -11.338  -6.475  0.00  0.00     0.244 HD
ENDBRANCH  27  29
ENDBRANCH  24  25
ENDBRANCH  23  24
ENDBRANCH  22  23
ENDBRANCH  21  22
ENDBRANCH  20  21
ENDBRANCH  19  20
ENDBRANCH   3  19
TORSDOF 11
ENDMDL
MODEL 8
REMARK VINA RESULT:   -26.185      4.454      5.275
REMARK INTER + INTRA:         -33.003
REMARK INTER:                 -29.466
REMARK INTRA:                  -3.537
REMARK CONF_INDEPENDENT:        3.281
REMARK UNBOUND:                -3.537
REMARK  11 active torsions:
REMARK  status: ('A' for Active; 'I' for Inactive)
REMARK    1  A    between atoms: N1_1  and  C1_2 
REMARK    2  A    between atoms: C5_6  and  C6_7 
REMARK    3  A    between atoms: C8_9  and  C9_10 
REMARK       I    between atoms: C9_10  and  N2_12 
REMARK    4  A    between atoms: N2_12  and  C10_13 
REMARK    5  A    between atoms: C10_13  and  C11_14 
REMARK    6  A    between atoms: C11_14  and  C12_15 
REMARK    7  A    between atoms: C12_15  and  C13_16 
REMARK    8  A    between atoms: C13_16  and  C14_17 
REMARK    9  A    between atoms: C14_17  and  C15_18 
REMARK   10  A    between atoms: C15_18  and  C16_19 
REMARK       I    between atoms: C16_19  and  N3_21 
REMARK   11  A    between atoms: N3_21  and  O3_22 
ROOT
ATOM      1  C9  NON d   1      25.572 -13.306  -2.987  0.00  0.00     0.272 C 
ATOM      2  O1  NON d   1      24.687 -12.746  -3.630  0.00  0.00    -0.266 OA
ATOM      3  N2  NON d   1      26.876 -12.834  -2.970  0.00  0.00    -0.356 N 
ATOM      4  H7  NON d   1      27.567 -13.350  -2.438  0.00  0.00     0.162 HD
ENDROOT
BRANCH   1   5
ATOM      5  C8  NON d   1      25.286 -14.502  -2.191  0.00  0.00     0.154 A 
ATOM      6  C7  NON d   1      24.160 -15.342  -2.372  0.00  0.00     0.080 A 
ATOM      7  C6  NON d   1      24.273 -16.328  -1.424  0.00  0.00     0.114 A 
ATOM      8  O4  NON d   1      25.414 -16.097  -0.706  0.00  0.00    -0.212 OA
ATOM      9  N4  NON d   1      26.053 -14.950  -1.181  0.00  0.00    -0.122 NA
BRANCH   7  10
ATOM     10  C5  NON d   1      23.451 -17.484  -1.073  0.00  0.00     0.002 A 
ATOM     11  C4  NON d   1      24.063 -18.631  -0.536  0.00  0.00     0.014 A 
ATOM     12  C3  NON d   1      23.308 -19.736  -0.145  0.00  0.00     0.003 A 
ATOM     13  C2  NON d   1      21.925 -19.722  -0.306  0.00  0.00     0.023 A 
ATOM     14  C1  NON d   1      21.292 -18.626  -0.894  0.00  0.00     0.006 A 
ATOM     15  C17 NON d   1      22.054 -17.496  -1.227  0.00  0.00     0.037 A 
BRANCH  14  16
ATOM     16  N1  NON d   1      19.891 -18.575  -0.932  0.00  0.00    -0.303 NA
ATOM     17  H1  NON d   1      19.450 -19.474  -1.109  0.00  0.00     0.124 HD
ATOM     18  H2  NON d   1      19.526 -17.842  -1.532  0.00  0.00     0.124 HD
ENDBRANCH  14  16
ENDBRANCH   7  10
ENDBRANCH   1   5
BRANCH   3  19
ATOM     19  C10 NON d   1      27.205 -11.647  -3.728  0.00  0.00     0.123 C 
BRANCH  19  20
ATOM     20  C11 NON d   1      27.543 -11.867  -5.200  0.00  0.00     0.020 C 
BRANCH  20  21
ATOM     21  C12 NON d   1      27.036 -13.189  -5.789  0.00  0.00     0.002 C 
BRANCH  21  22
ATOM     22  C13 NON d   1      28.155 -14.115  -6.257  0.00  0.00     0.001 C 
BRANCH  22  23
ATOM     23  C14 NON d   1      28.959 -14.732  -5.103  0.00  0.00     0.009 C 
BRANCH  23  24
ATOM     24  C15 NON d   1      28.116 -15.364  -3.990  0.00  0.00     0.105 C 
BRANCH  24  25
ATOM     25  C16 NON d   1      28.663 -15.251  -2.575  0.00  0.00     0.240 C 
ATOM     26  O2  NON d   1      29.513 -14.439  -2.229  0.00  0.00    -0.271 OA
ATOM     27  N3  NON d   1      28.118 -16.229  -1.752  0.00  0.00    -0.237 N 
ATOM     28  H20 NON d   1      27.223 -16.645  -1.987  0.00  0.00     0.197 HD
BRANCH  27  29
ATOM     29  O3  NON d   1      28.357 -16.075  -0.369  0.00  0.00    -0.287 OA
ATOM     30  H21 NON d   1      29.299 -15.825  -0.349  0.00  0.00     0.244 HD
ENDBRANCH  27  29
ENDBRANCH  24  25
ENDBRANCH  23  24
ENDBRANCH  22  23
ENDBRANCH  21  22
ENDBRANCH  20  21
ENDBRANCH  19  20
ENDBRANCH   3  19
TORSDOF 11
ENDMDL
MODEL 9
REMARK VINA RESULT:   -25.083      3.015      3.542
REMARK INTER + INTRA:         -32.406
REMARK INTER:                 -28.364
REMARK INTRA:                  -4.042
REMARK CONF_INDEPENDENT:        3.281
REMARK UNBOUND:                -4.042
REMARK  11 active torsions:
REMARK  status: ('A' for Active; 'I' for Inactive)
REMARK    1  A    between atoms: N1_1  and  C1_2 
REMARK    2  A    between atoms: C5_6  and  C6_7 
REMARK    3  A    between atoms: C8_9  and  C9_10 
REMARK       I    between atoms: C9_10  and  N2_12 
REMARK    4  A    between atoms: N2_12  and  C10_13 
REMARK    5  A    between atoms: C10_13  and  C11_14 
REMARK    6  A    between atoms: C11_14  and  C12_15 
REMARK    7  A    between atoms: C12_15  and  C13_16 
REMARK    8  A    between atoms: C13_16  and  C14_17 
REMARK    9  A    between atoms: C14_17  and  C15_18 
REMARK   10  A    between atoms: C15_18  and  C16_19 
REMARK       I    between atoms: C16_19  and  N3_21 
REMARK   11  A    between atoms: N3_21  and  O3_22 
ROOT
ATOM      1  C9  NON d   1      25.735 -13.358  -2.956  0.00  0.00     0.272 C 
ATOM      2  O1  NON d   1      25.554 -13.438  -4.169  0.00  0.00    -0.266 OA
ATOM      3  N2  NON d   1      26.385 -12.277  -2.381  0.00  0.00    -0.356 N 
ATOM      4  H7  NON d   1      26.524 -12.277  -1.377  0.00  0.00     0.162 HD
ENDROOT
BRANCH   1   5
ATOM      5  C8  NON d   1      25.256 -14.406  -2.050  0.00  0.00     0.154 A 
ATOM      6  C7  NON d   1      24.373 -15.451  -2.419  0.00  0.00     0.080 A 
ATOM      7  C6  NON d   1      24.180 -16.195  -1.282  0.00  0.00     0.114 A 
ATOM      8  O4  NON d   1      24.912 -15.629  -0.275  0.00  0.00    -0.212 OA
ATOM      9  N4  NON d   1      25.588 -14.503  -0.751  0.00  0.00    -0.122 NA
BRANCH   7  10
ATOM     10  C5  NON d   1      23.388 -17.387  -0.984  0.00  0.00     0.002 A 
ATOM     11  C4  NON d   1      24.030 -18.539  -0.496  0.00  0.00     0.014 A 
ATOM     12  C3  NON d   1      23.304 -19.680  -0.155  0.00  0.00     0.003 A 
ATOM     13  C2  NON d   1      21.921 -19.694  -0.317  0.00  0.00     0.023 A 
ATOM     14  C1  NON d   1      21.260 -18.591  -0.859  0.00  0.00     0.006 A 
ATOM     15  C17 NON d   1      21.993 -17.428  -1.141  0.00  0.00     0.037 A 
BRANCH  14  16
ATOM     16  N1  NON d   1      19.858 -18.575  -0.897  0.00  0.00    -0.303 NA
ATOM     17  H1  NON d   1      19.450 -17.670  -0.679  0.00  0.00     0.124 HD
ATOM     18  H2  NON d   1      19.428 -19.329  -0.371  0.00  0.00     0.124 HD
ENDBRANCH  14  16
ENDBRANCH   7  10
ENDBRANCH   1   5
BRANCH   3  19
ATOM     19  C10 NON d   1      26.863 -11.209  -3.232  0.00  0.00     0.123 C 
BRANCH  19  20
ATOM     20  C11 NON d   1      26.883  -9.816  -2.607  0.00  0.00     0.020 C 
BRANCH  20  21
ATOM     21  C12 NON d   1      27.302  -9.775  -1.132  0.00  0.00     0.002 C 
BRANCH  21  22
ATOM     22  C13 NON d   1      28.811  -9.677  -0.932  0.00  0.00     0.001 C 
BRANCH  22  23
ATOM     23  C14 NON d   1      29.360 -10.692   0.082  0.00  0.00     0.009 C 
BRANCH  23  24
ATOM     24  C15 NON d   1      29.175 -12.162  -0.307  0.00  0.00     0.105 C 
BRANCH  24  25
ATOM     25  C16 NON d   1      28.004 -12.894   0.331  0.00  0.00     0.240 C 
ATOM     26  O2  NON d   1      26.875 -12.428   0.429  0.00  0.00    -0.271 OA
ATOM     27  N3  NON d   1      28.403 -14.123   0.839  0.00  0.00    -0.237 N 
ATOM     28  H20 NON d   1      29.226 -14.581   0.463  0.00  0.00     0.197 HD
BRANCH  27  29
ATOM     29  O3  NON d   1      27.364 -14.995   1.232  0.00  0.00    -0.287 OA
ATOM     30  H21 NON d   1      26.627 -14.709   0.661  0.00  0.00     0.244 HD
ENDBRANCH  27  29
ENDBRANCH  24  25
ENDBRANCH  23  24
ENDBRANCH  22  23
ENDBRANCH  21  22
ENDBRANCH  20  21
ENDBRANCH  19  20
ENDBRANCH   3  19
TORSDOF 11
ENDMDL
