MODEL 1
REMARK VINA RESULT:    -8.479      0.000      0.000
REMARK INTER + INTRA:         -12.452
REMARK INTER:                 -11.163
REMARK INTRA:                  -1.289
REMARK CONF_INDEPENDENT:        2.685
REMARK UNBOUND:                -1.289
REMARK  9 active torsions:
REMARK  status: ('A' for Active; 'I' for Inactive)
REMARK    1  A    between atoms: C1_2  and  C2_3 
REMARK       I    between atoms: C1_2  and  N2_18 
REMARK    2  A    between atoms: C2_3  and  C3_4 
REMARK    3  A    between atoms: C3_4  and  C4_5 
REMARK    4  A    between atoms: C4_5  and  C5_6 
REMARK    5  A    between atoms: C5_6  and  C6_7 
REMARK    6  A    between atoms: C6_7  and  C7_8 
REMARK    7  A    between atoms: C7_8  and  C8_9 
REMARK       I    between atoms: C8_9  and  N1_11 
REMARK    8  A    between atoms: N1_11  and  C9_12 
REMARK    9  A    between atoms: N2_18  and  O3_19 
ROOT
ATOM      1  C6  NON d   1      24.792 -18.272  -0.102  0.00  0.00     0.009 C 
ENDROOT
BRANCH   1   2
ATOM      2  C5  NON d   1      26.001 -17.345   0.044  0.00  0.00     0.000 C 
BRANCH   2   3
ATOM      3  C4  NON d   1      26.754 -17.036  -1.258  0.00  0.00     0.000 C 
BRANCH   3   4
ATOM      4  C3  NON d   1      26.618 -15.594  -1.757  0.00  0.00     0.009 C 
BRANCH   4   5
ATOM      5  C2  NON d   1      26.946 -15.435  -3.241  0.00  0.00     0.105 C 
BRANCH   5   6
ATOM      6  C1  NON d   1      25.718 -15.073  -4.060  0.00  0.00     0.240 C 
ATOM      7  O1  NON d   1      25.525 -15.475  -5.202  0.00  0.00    -0.271 OA
ATOM      8  N2  NON d   1      24.825 -14.296  -3.343  0.00  0.00    -0.237 N 
ATOM      9  H19 NON d   1      25.158 -13.730  -2.568  0.00  0.00     0.197 HD
BRANCH   8  10
ATOM     10  O3  NON d   1      23.798 -13.701  -4.110  0.00  0.00    -0.287 OA
ATOM     11  H20 NON d   1      24.129 -13.820  -5.021  0.00  0.00     0.244 HD
ENDBRANCH   8  10
ENDBRANCH   5   6
ENDBRANCH   4   5
ENDBRANCH   3   4
ENDBRANCH   2   3
ENDBRANCH   1   2
BRANCH   1  12
ATOM     12  C7  NON d   1      23.497 -17.563  -0.507  0.00  0.00     0.103 C 
BRANCH  12  13
ATOM     13  C8  NON d   1      22.357 -18.564  -0.656  0.00  0.00     0.222 C 
ATOM     14  O2  NON d   1      22.249 -19.263  -1.657  0.00  0.00    -0.273 OA
ATOM     15  N1  NON d   1      21.516 -18.574   0.444  0.00  0.00    -0.327 N 
ATOM     16  H13 NON d   1      21.732 -17.936   1.199  0.00  0.00     0.169 HD
BRANCH  15  17
ATOM     17  C9  NON d   1      20.367 -19.378   0.628  0.00  0.00     0.034 A 
ATOM     18  C10 NON d   1      19.531 -19.802  -0.408  0.00  0.00     0.029 A 
ATOM     19  C11 NON d   1      18.410 -20.599  -0.145  0.00  0.00     0.002 A 
ATOM     20  C12 NON d   1      18.112 -20.974   1.159  0.00  0.00     0.000 A 
ATOM     21  C13 NON d   1      18.934 -20.556   2.204  0.00  0.00     0.002 A 
ATOM     22  C14 NON d   1      20.057 -19.765   1.939  0.00  0.00     0.029 A 
ENDBRANCH  15  17
ENDBRANCH  12  13
ENDBRANCH   1  12
TORSDOF 9
ENDMDL
MODEL 2
REMARK VINA RESULT:    -7.937      2.816      3.240
REMARK INTER + INTRA:         -11.187
REMARK INTER:                 -10.621
REMARK INTRA:                  -0.566
REMARK CONF_INDEPENDENT:        2.685
REMARK UNBOUND:                -0.566
REMARK  9 active torsions:
REMARK  status: ('A' for Active; 'I' for Inactive)
REMARK    1  A    between atoms: C1_2  and  C2_3 
REMARK       I    between atoms: C1_2  and  N2_18 
REMARK    2  A    between atoms: C2_3  and  C3_4 
REMARK    3  A    between atoms: C3_4  and  C4_5 
REMARK    4  A    between atoms: C4_5  and  C5_6 
REMARK    5  A    between atoms: C5_6  and  C6_7 
REMARK    6  A    between atoms: C6_7  and  C7_8 
REMARK    7  A    between atoms: C7_8  and  C8_9 
REMARK       I    between atoms: C8_9  and  N1_11 
REMARK    8  A    between atoms: N1_11  and  C9_12 
REMARK    9  A    between atoms: N2_18  and  O3_19 
ROOT
ATOM      1  C6  NON d   1      24.032 -17.838   0.029  0.00  0.00     0.009 C 
ENDROOT
BRANCH   1   2
ATOM      2  C5  NON d   1      25.545 -17.967  -0.159  0.00  0.00     0.000 C 
BRANCH   2   3
ATOM      3  C4  NON d   1      26.152 -17.069  -1.247  0.00  0.00     0.000 C 
BRANCH   3   4
ATOM      4  C3  NON d   1      26.555 -15.668  -0.777  0.00  0.00     0.009 C 
BRANCH   4   5
ATOM      5  C2  NON d   1      27.865 -15.648   0.009  0.00  0.00     0.105 C 
BRANCH   5   6
ATOM      6  C1  NON d   1      28.933 -16.513  -0.642  0.00  0.00     0.240 C 
ATOM      7  O1  NON d   1      28.896 -16.862  -1.816  0.00  0.00    -0.271 OA
ATOM      8  N2  NON d   1      29.970 -16.799   0.228  0.00  0.00    -0.237 N 
ATOM      9  H19 NON d   1      29.808 -16.784   1.231  0.00  0.00     0.197 HD
BRANCH   8  10
ATOM     10  O3  NON d   1      30.859 -17.808  -0.210  0.00  0.00    -0.287 OA
ATOM     11  H20 NON d   1      31.154 -18.200   0.634  0.00  0.00     0.244 HD
ENDBRANCH   8  10
ENDBRANCH   5   6
ENDBRANCH   4   5
ENDBRANCH   3   4
ENDBRANCH   2   3
ENDBRANCH   1   2
BRANCH   1  12
ATOM     12  C7  NON d   1      23.208 -18.198  -1.211  0.00  0.00     0.103 C 
BRANCH  12  13
ATOM     13  C8  NON d   1      21.745 -18.419  -0.841  0.00  0.00     0.222 C 
ATOM     14  O2  NON d   1      20.862 -17.684  -1.268  0.00  0.00    -0.273 OA
ATOM     15  N1  NON d   1      21.570 -19.512  -0.009  0.00  0.00    -0.327 N 
ATOM     16  H13 NON d   1      22.399 -20.025   0.264  0.00  0.00     0.169 HD
BRANCH  15  17
ATOM     17  C9  NON d   1      20.349 -19.990   0.521  0.00  0.00     0.034 A 
ATOM     18  C10 NON d   1      19.282 -20.449  -0.255  0.00  0.00     0.029 A 
ATOM     19  C11 NON d   1      18.103 -20.908   0.346  0.00  0.00     0.002 A 
ATOM     20  C12 NON d   1      17.980 -20.907   1.730  0.00  0.00     0.000 A 
ATOM     21  C13 NON d   1      19.034 -20.449   2.518  0.00  0.00     0.002 A 
ATOM     22  C14 NON d   1      20.213 -19.996   1.916  0.00  0.00     0.029 A 
ENDBRANCH  15  17
ENDBRANCH  12  13
ENDBRANCH   1  12
TORSDOF 9
ENDMDL
MODEL 3
REMARK VINA RESULT:    -7.333      1.232      1.815
REMARK INTER + INTRA:         -11.352
REMARK INTER:                 -10.018
REMARK INTRA:                  -1.335
REMARK CONF_INDEPENDENT:        2.685
REMARK UNBOUND:                -1.335
REMARK  9 active torsions:
REMARK  status: ('A' for Active; 'I' for Inactive)
REMARK    1  A    between atoms: C1_2  and  C2_3 
REMARK       I    between atoms: C1_2  and  N2_18 
REMARK    2  A    between atoms: C2_3  and  C3_4 
REMARK    3  A    between atoms: C3_4  and  C4_5 
REMARK    4  A    between atoms: C4_5  and  C5_6 
REMARK    5  A    between atoms: C5_6  and  C6_7 
REMARK    6  A    between atoms: C6_7  and  C7_8 
REMARK    7  A    between atoms: C7_8  and  C8_9 
REMARK       I    between atoms: C8_9  and  N1_11 
REMARK    8  A    between atoms: N1_11  and  C9_12 
REMARK    9  A    between atoms: N2_18  and  O3_19 
ROOT
ATOM      1  C6  NON d   1      24.353 -16.434  -1.611  0.00  0.00     0.009 C 
ENDROOT
BRANCH   1   2
ATOM      2  C5  NON d   1      25.619 -15.596  -1.420  0.00  0.00     0.000 C 
BRANCH   2   3
ATOM      3  C4  NON d   1      26.897 -16.185  -2.034  0.00  0.00     0.000 C 
BRANCH   3   4
ATOM      4  C3  NON d   1      27.633 -15.257  -3.007  0.00  0.00     0.009 C 
BRANCH   4   5
ATOM      5  C2  NON d   1      26.912 -15.090  -4.344  0.00  0.00     0.105 C 
BRANCH   5   6
ATOM      6  C1  NON d   1      25.744 -14.123  -4.244  0.00  0.00     0.240 C 
ATOM      7  O1  NON d   1      24.610 -14.391  -4.624  0.00  0.00    -0.271 OA
ATOM      8  N2  NON d   1      26.102 -12.939  -3.622  0.00  0.00    -0.237 N 
ATOM      9  H19 NON d   1      27.070 -12.635  -3.633  0.00  0.00     0.197 HD
BRANCH   8  10
ATOM     10  O3  NON d   1      25.154 -11.895  -3.730  0.00  0.00    -0.287 OA
ATOM     11  H20 NON d   1      24.423 -12.332  -4.208  0.00  0.00     0.244 HD
ENDBRANCH   8  10
ENDBRANCH   5   6
ENDBRANCH   4   5
ENDBRANCH   3   4
ENDBRANCH   2   3
ENDBRANCH   1   2
BRANCH   1  12
ATOM     12  C7  NON d   1      23.995 -17.319  -0.414  0.00  0.00     0.103 C 
BRANCH  12  13
ATOM     13  C8  NON d   1      22.496 -17.598  -0.378  0.00  0.00     0.222 C 
ATOM     14  O2  NON d   1      21.692 -16.829  -0.892  0.00  0.00    -0.273 OA
ATOM     15  N1  NON d   1      22.195 -18.783   0.273  0.00  0.00    -0.327 N 
ATOM     16  H13 NON d   1      22.969 -19.314   0.650  0.00  0.00     0.169 HD
BRANCH  15  17
ATOM     17  C9  NON d   1      20.909 -19.333   0.485  0.00  0.00     0.034 A 
ATOM     18  C10 NON d   1      20.363 -19.592   1.745  0.00  0.00     0.029 A 
ATOM     19  C11 NON d   1      19.080 -20.137   1.872  0.00  0.00     0.002 A 
ATOM     20  C12 NON d   1      18.333 -20.433   0.739  0.00  0.00     0.000 A 
ATOM     21  C13 NON d   1      18.864 -20.184  -0.524  0.00  0.00     0.002 A 
ATOM     22  C14 NON d   1      20.144 -19.633  -0.650  0.00  0.00     0.029 A 
ENDBRANCH  15  17
ENDBRANCH  12  13
ENDBRANCH   1  12
TORSDOF 9
ENDMDL
MODEL 4
REMARK VINA RESULT:    -7.029      2.853      3.209
REMARK INTER + INTRA:         -10.982
REMARK INTER:                  -9.714
REMARK INTRA:                  -1.268
REMARK CONF_INDEPENDENT:        2.685
REMARK UNBOUND:                -1.268
REMARK  9 active torsions:
REMARK  status: ('A' for Active; 'I' for Inactive)
REMARK    1  A    between atoms: C1_2  and  C2_3 
REMARK       I    between atoms: C1_2  and  N2_18 
REMARK    2  A    between atoms: C2_3  and  C3_4 
REMARK    3  A    between atoms: C3_4  and  C4_5 
REMARK    4  A    between atoms: C4_5  and  C5_6 
REMARK    5  A    between atoms: C5_6  and  C6_7 
REMARK    6  A    between atoms: C6_7  and  C7_8 
REMARK    7  A    between atoms: C7_8  and  C8_9 
REMARK       I    between atoms: C8_9  and  N1_11 
REMARK    8  A    between atoms: N1_11  and  C9_12 
REMARK    9  A    between atoms: N2_18  and  O3_19 
ROOT
ATOM      1  C6  NON d   1      24.213 -17.472   0.080  0.00  0.00     0.009 C 
ENDROOT
BRANCH   1   2
ATOM      2  C5  NON d   1      25.248 -18.598   0.081  0.00  0.00     0.000 C 
BRANCH   2   3
ATOM      3  C4  NON d   1      26.714 -18.144   0.163  0.00  0.00     0.000 C 
BRANCH   3   4
ATOM      4  C3  NON d   1      27.046 -16.886  -0.645  0.00  0.00     0.009 C 
BRANCH   4   5
ATOM      5  C2  NON d   1      28.047 -15.967   0.053  0.00  0.00     0.105 C 
BRANCH   5   6
ATOM      6  C1  NON d   1      27.362 -14.985   0.990  0.00  0.00     0.240 C 
ATOM      7  O1  NON d   1      26.442 -14.252   0.647  0.00  0.00    -0.271 OA
ATOM      8  N2  NON d   1      27.858 -15.067   2.280  0.00  0.00    -0.237 N 
ATOM      9  H19 NON d   1      28.797 -15.417   2.439  0.00  0.00     0.197 HD
BRANCH   8  10
ATOM     10  O3  NON d   1      27.467 -14.015   3.140  0.00  0.00    -0.287 OA
ATOM     11  H20 NON d   1      27.390 -13.263   2.521  0.00  0.00     0.244 HD
ENDBRANCH   8  10
ENDBRANCH   5   6
ENDBRANCH   4   5
ENDBRANCH   3   4
ENDBRANCH   2   3
ENDBRANCH   1   2
BRANCH   1  12
ATOM     12  C7  NON d   1      23.339 -17.419  -1.177  0.00  0.00     0.103 C 
BRANCH  12  13
ATOM     13  C8  NON d   1      22.263 -18.499  -1.133  0.00  0.00     0.222 C 
ATOM     14  O2  NON d   1      22.148 -19.322  -2.034  0.00  0.00    -0.273 OA
ATOM     15  N1  NON d   1      21.487 -18.425   0.012  0.00  0.00    -0.327 N 
ATOM     16  H13 NON d   1      21.700 -17.685   0.669  0.00  0.00     0.169 HD
BRANCH  15  17
ATOM     17  C9  NON d   1      20.407 -19.268   0.363  0.00  0.00     0.034 A 
ATOM     18  C10 NON d   1      19.460 -19.750  -0.544  0.00  0.00     0.029 A 
ATOM     19  C11 NON d   1      18.419 -20.583  -0.119  0.00  0.00     0.002 A 
ATOM     20  C12 NON d   1      18.312 -20.938   1.220  0.00  0.00     0.000 A 
ATOM     21  C13 NON d   1      19.247 -20.463   2.138  0.00  0.00     0.002 A 
ATOM     22  C14 NON d   1      20.290 -19.634   1.710  0.00  0.00     0.029 A 
ENDBRANCH  15  17
ENDBRANCH  12  13
ENDBRANCH   1  12
TORSDOF 9
ENDMDL
MODEL 5
REMARK VINA RESULT:    -6.989      4.275      8.361
REMARK INTER + INTRA:         -10.851
REMARK INTER:                  -9.674
REMARK INTRA:                  -1.177
REMARK CONF_INDEPENDENT:        2.685
REMARK UNBOUND:                -1.177
REMARK  9 active torsions:
REMARK  status: ('A' for Active; 'I' for Inactive)
REMARK    1  A    between atoms: C1_2  and  C2_3 
REMARK       I    between atoms: C1_2  and  N2_18 
REMARK    2  A    between atoms: C2_3  and  C3_4 
REMARK    3  A    between atoms: C3_4  and  C4_5 
REMARK    4  A    between atoms: C4_5  and  C5_6 
REMARK    5  A    between atoms: C5_6  and  C6_7 
REMARK    6  A    between atoms: C6_7  and  C7_8 
REMARK    7  A    between atoms: C7_8  and  C8_9 
REMARK       I    between atoms: C8_9  and  N1_11 
REMARK    8  A    between atoms: N1_11  and  C9_12 
REMARK    9  A    between atoms: N2_18  and  O3_19 
ROOT
ATOM      1  C6  NON d   1      26.581 -17.117   0.160  0.00  0.00     0.009 C 
ENDROOT
BRANCH   1   2
ATOM      2  C5  NON d   1      25.183 -17.106  -0.461  0.00  0.00     0.000 C 
BRANCH   2   3
ATOM      3  C4  NON d   1      24.311 -18.329  -0.139  0.00  0.00     0.000 C 
BRANCH   3   4
ATOM      4  C3  NON d   1      23.012 -18.425  -0.944  0.00  0.00     0.009 C 
BRANCH   4   5
ATOM      5  C2  NON d   1      21.776 -18.645  -0.073  0.00  0.00     0.105 C 
BRANCH   5   6
ATOM      6  C1  NON d   1      20.657 -19.337  -0.835  0.00  0.00     0.240 C 
ATOM      7  O1  NON d   1      20.741 -19.657  -2.016  0.00  0.00    -0.271 OA
ATOM      8  N2  NON d   1      19.571 -19.615  -0.025  0.00  0.00    -0.237 N 
ATOM      9  H19 NON d   1      19.408 -19.060   0.810  0.00  0.00     0.197 HD
BRANCH   8  10
ATOM     10  O3  NON d   1      18.398 -20.009  -0.709  0.00  0.00    -0.287 OA
ATOM     11  H20 NON d   1      18.574 -19.691  -1.616  0.00  0.00     0.244 HD
ENDBRANCH   8  10
ENDBRANCH   5   6
ENDBRANCH   4   5
ENDBRANCH   3   4
ENDBRANCH   2   3
ENDBRANCH   1   2
BRANCH   1  12
ATOM     12  C7  NON d   1      27.431 -15.887  -0.176  0.00  0.00     0.103 C 
BRANCH  12  13
ATOM     13  C8  NON d   1      27.221 -14.788   0.860  0.00  0.00     0.222 C 
ATOM     14  O2  NON d   1      26.490 -13.830   0.635  0.00  0.00    -0.273 OA
ATOM     15  N1  NON d   1      27.930 -15.021   2.027  0.00  0.00    -0.327 N 
ATOM     16  H13 NON d   1      28.497 -15.858   2.067  0.00  0.00     0.169 HD
BRANCH  15  17
ATOM     17  C9  NON d   1      27.961 -14.202   3.180  0.00  0.00     0.034 A 
ATOM     18  C10 NON d   1      27.779 -12.817   3.165  0.00  0.00     0.029 A 
ATOM     19  C11 NON d   1      27.823 -12.074   4.351  0.00  0.00     0.002 A 
ATOM     20  C12 NON d   1      28.055 -12.712   5.564  0.00  0.00     0.000 A 
ATOM     21  C13 NON d   1      28.242 -14.091   5.595  0.00  0.00     0.002 A 
ATOM     22  C14 NON d   1      28.192 -14.833   4.410  0.00  0.00     0.029 A 
ENDBRANCH  15  17
ENDBRANCH  12  13
ENDBRANCH   1  12
TORSDOF 9
ENDMDL
MODEL 6
REMARK VINA RESULT:    -6.920      2.404      8.834
REMARK INTER + INTRA:         -10.799
REMARK INTER:                  -9.605
REMARK INTRA:                  -1.195
REMARK CONF_INDEPENDENT:        2.685
REMARK UNBOUND:                -1.195
REMARK  9 active torsions:
REMARK  status: ('A' for Active; 'I' for Inactive)
REMARK    1  A    between atoms: C1_2  and  C2_3 
REMARK       I    between atoms: C1_2  and  N2_18 
REMARK    2  A    between atoms: C2_3  and  C3_4 
REMARK    3  A    between atoms: C3_4  and  C4_5 
REMARK    4  A    between atoms: C4_5  and  C5_6 
REMARK    5  A    between atoms: C5_6  and  C6_7 
REMARK    6  A    between atoms: C6_7  and  C7_8 
REMARK    7  A    between atoms: C7_8  and  C8_9 
REMARK       I    between atoms: C8_9  and  N1_11 
REMARK    8  A    between atoms: N1_11  and  C9_12 
REMARK    9  A    between atoms: N2_18  and  O3_19 
ROOT
ATOM      1  C6  NON d   1      25.217 -17.121  -2.011  0.00  0.00     0.009 C 
ENDROOT
BRANCH   1   2
ATOM      2  C5  NON d   1      25.167 -17.759  -0.621  0.00  0.00     0.000 C 
BRANCH   2   3
ATOM      3  C4  NON d   1      23.792 -17.734   0.064  0.00  0.00     0.000 C 
BRANCH   3   4
ATOM      4  C3  NON d   1      22.779 -18.743  -0.486  0.00  0.00     0.009 C 
BRANCH   4   5
ATOM      5  C2  NON d   1      21.451 -18.106  -0.891  0.00  0.00     0.105 C 
BRANCH   5   6
ATOM      6  C1  NON d   1      20.381 -19.148  -1.174  0.00  0.00     0.240 C 
ATOM      7  O1  NON d   1      20.286 -19.747  -2.239  0.00  0.00    -0.271 OA
ATOM      8  N2  NON d   1      19.579 -19.381  -0.070  0.00  0.00    -0.237 N 
ATOM      9  H19 NON d   1      19.474 -18.663   0.639  0.00  0.00     0.197 HD
BRANCH   8  10
ATOM     10  O3  NON d   1      18.407 -20.130  -0.329  0.00  0.00    -0.287 OA
ATOM     11  H20 NON d   1      18.349 -20.087  -1.303  0.00  0.00     0.244 HD
ENDBRANCH   8  10
ENDBRANCH   5   6
ENDBRANCH   4   5
ENDBRANCH   3   4
ENDBRANCH   2   3
ENDBRANCH   1   2
BRANCH   1  12
ATOM     12  C7  NON d   1      25.108 -15.593  -2.009  0.00  0.00     0.103 C 
BRANCH  12  13
ATOM     13  C8  NON d   1      25.584 -15.017  -3.339  0.00  0.00     0.222 C 
ATOM     14  O2  NON d   1      24.821 -14.407  -4.079  0.00  0.00    -0.273 OA
ATOM     15  N1  NON d   1      26.927 -15.262  -3.570  0.00  0.00    -0.327 N 
ATOM     16  H13 NON d   1      27.432 -15.785  -2.865  0.00  0.00     0.169 HD
BRANCH  15  17
ATOM     17  C9  NON d   1      27.680 -14.871  -4.702  0.00  0.00     0.034 A 
ATOM     18  C10 NON d   1      28.874 -15.478  -5.099  0.00  0.00     0.029 A 
ATOM     19  C11 NON d   1      29.561 -15.033  -6.236  0.00  0.00     0.002 A 
ATOM     20  C12 NON d   1      29.061 -13.973  -6.982  0.00  0.00     0.000 A 
ATOM     21  C13 NON d   1      27.874 -13.355  -6.596  0.00  0.00     0.002 A 
ATOM     22  C14 NON d   1      27.185 -13.804  -5.464  0.00  0.00     0.029 A 
ENDBRANCH  15  17
ENDBRANCH  12  13
ENDBRANCH   1  12
TORSDOF 9
ENDMDL
MODEL 7
REMARK VINA RESULT:    -6.731      2.863      8.698
REMARK INTER + INTRA:         -10.642
REMARK INTER:                  -9.416
REMARK INTRA:                  -1.226
REMARK CONF_INDEPENDENT:        2.685
REMARK UNBOUND:                -1.226
REMARK  9 active torsions:
REMARK  status: ('A' for Active; 'I' for Inactive)
REMARK    1  A    between atoms: C1_2  and  C2_3 
REMARK       I    between atoms: C1_2  and  N2_18 
REMARK    2  A    between atoms: C2_3  and  C3_4 
REMARK    3  A    between atoms: C3_4  and  C4_5 
REMARK    4  A    between atoms: C4_5  and  C5_6 
REMARK    5  A    between atoms: C5_6  and  C6_7 
REMARK    6  A    between atoms: C6_7  and  C7_8 
REMARK    7  A    between atoms: C7_8  and  C8_9 
REMARK       I    between atoms: C8_9  and  N1_11 
REMARK    8  A    between atoms: N1_11  and  C9_12 
REMARK    9  A    between atoms: N2_18  and  O3_19 
ROOT
ATOM      1  C6  NON d   1      25.400 -16.152  -1.953  0.00  0.00     0.009 C 
ENDROOT
BRANCH   1   2
ATOM      2  C5  NON d   1      25.901 -17.200  -0.957  0.00  0.00     0.000 C 
BRANCH   2   3
ATOM      3  C4  NON d   1      24.816 -17.851  -0.086  0.00  0.00     0.000 C 
BRANCH   3   4
ATOM      4  C3  NON d   1      23.381 -17.641  -0.579  0.00  0.00     0.009 C 
BRANCH   4   5
ATOM      5  C2  NON d   1      22.465 -18.832  -0.298  0.00  0.00     0.105 C 
BRANCH   5   6
ATOM      6  C1  NON d   1      21.079 -18.637  -0.891  0.00  0.00     0.240 C 
ATOM      7  O1  NON d   1      20.653 -17.552  -1.270  0.00  0.00    -0.271 OA
ATOM      8  N2  NON d   1      20.391 -19.832  -1.006  0.00  0.00    -0.237 N 
ATOM      9  H19 NON d   1      20.627 -20.611  -0.400  0.00  0.00     0.197 HD
BRANCH   8  10
ATOM     10  O3  NON d   1      19.012 -19.704  -1.293  0.00  0.00    -0.287 OA
ATOM     11  H20 NON d   1      18.956 -18.785  -1.619  0.00  0.00     0.244 HD
ENDBRANCH   8  10
ENDBRANCH   5   6
ENDBRANCH   4   5
ENDBRANCH   3   4
ENDBRANCH   2   3
ENDBRANCH   1   2
BRANCH   1  12
ATOM     12  C7  NON d   1      26.469 -15.641  -2.923  0.00  0.00     0.103 C 
BRANCH  12  13
ATOM     13  C8  NON d   1      25.911 -14.528  -3.804  0.00  0.00     0.222 C 
ATOM     14  O2  NON d   1      25.082 -14.760  -4.676  0.00  0.00    -0.273 OA
ATOM     15  N1  NON d   1      26.440 -13.288  -3.486  0.00  0.00    -0.327 N 
ATOM     16  H13 NON d   1      27.121 -13.252  -2.738  0.00  0.00     0.169 HD
BRANCH  15  17
ATOM     17  C9  NON d   1      26.142 -12.052  -4.106  0.00  0.00     0.034 A 
ATOM     18  C10 NON d   1      26.129 -11.851  -5.489  0.00  0.00     0.029 A 
ATOM     19  C11 NON d   1      25.822 -10.595  -6.027  0.00  0.00     0.002 A 
ATOM     20  C12 NON d   1      25.530  -9.528  -5.187  0.00  0.00     0.000 A 
ATOM     21  C13 NON d   1      25.542  -9.712  -3.806  0.00  0.00     0.002 A 
ATOM     22  C14 NON d   1      25.844 -10.969  -3.269  0.00  0.00     0.029 A 
ENDBRANCH  15  17
ENDBRANCH  12  13
ENDBRANCH   1  12
TORSDOF 9
ENDMDL
MODEL 8
REMARK VINA RESULT:    -6.591      2.370      8.184
REMARK INTER + INTRA:         -10.662
REMARK INTER:                  -9.276
REMARK INTRA:                  -1.386
REMARK CONF_INDEPENDENT:        2.685
REMARK UNBOUND:                -1.386
REMARK  9 active torsions:
REMARK  status: ('A' for Active; 'I' for Inactive)
REMARK    1  A    between atoms: C1_2  and  C2_3 
REMARK       I    between atoms: C1_2  and  N2_18 
REMARK    2  A    between atoms: C2_3  and  C3_4 
REMARK    3  A    between atoms: C3_4  and  C4_5 
REMARK    4  A    between atoms: C4_5  and  C5_6 
REMARK    5  A    between atoms: C5_6  and  C6_7 
REMARK    6  A    between atoms: C6_7  and  C7_8 
REMARK    7  A    between atoms: C7_8  and  C8_9 
REMARK       I    between atoms: C8_9  and  N1_11 
REMARK    8  A    between atoms: N1_11  and  C9_12 
REMARK    9  A    between atoms: N2_18  and  O3_19 
ROOT
ATOM      1  C6  NON d   1      24.235 -18.435  -0.728  0.00  0.00     0.009 C 
ENDROOT
BRANCH   1   2
ATOM      2  C5  NON d   1      23.051 -17.492  -0.949  0.00  0.00     0.000 C 
BRANCH   2   3
ATOM      3  C4  NON d   1      21.663 -18.119  -0.747  0.00  0.00     0.000 C 
BRANCH   3   4
ATOM      4  C3  NON d   1      21.628 -19.309   0.217  0.00  0.00     0.009 C 
BRANCH   4   5
ATOM      5  C2  NON d   1      20.274 -19.491   0.903  0.00  0.00     0.105 C 
BRANCH   5   6
ATOM      6  C1  NON d   1      19.225 -20.046  -0.046  0.00  0.00     0.240 C 
ATOM      7  O1  NON d   1      19.127 -19.705  -1.219  0.00  0.00    -0.271 OA
ATOM      8  N2  NON d   1      18.445 -21.019   0.554  0.00  0.00    -0.237 N 
ATOM      9  H19 NON d   1      18.335 -21.027   1.563  0.00  0.00     0.197 HD
BRANCH   8  10
ATOM     10  O3  NON d   1      17.287 -21.388  -0.168  0.00  0.00    -0.287 OA
ATOM     11  H20 NON d   1      17.326 -20.788  -0.938  0.00  0.00     0.244 HD
ENDBRANCH   8  10
ENDBRANCH   5   6
ENDBRANCH   4   5
ENDBRANCH   3   4
ENDBRANCH   2   3
ENDBRANCH   1   2
BRANCH   1  12
ATOM     12  C7  NON d   1      25.496 -17.750  -0.193  0.00  0.00     0.103 C 
BRANCH  12  13
ATOM     13  C8  NON d   1      25.684 -16.382  -0.840  0.00  0.00     0.222 C 
ATOM     14  O2  NON d   1      25.852 -15.374  -0.164  0.00  0.00    -0.273 OA
ATOM     15  N1  NON d   1      25.646 -16.444  -2.224  0.00  0.00    -0.327 N 
ATOM     16  H13 NON d   1      25.496 -17.352  -2.644  0.00  0.00     0.169 HD
BRANCH  15  17
ATOM     17  C9  NON d   1      25.783 -15.363  -3.126  0.00  0.00     0.034 A 
ATOM     18  C10 NON d   1      24.838 -14.346  -3.282  0.00  0.00     0.029 A 
ATOM     19  C11 NON d   1      25.047 -13.307  -4.197  0.00  0.00     0.002 A 
ATOM     20  C12 NON d   1      26.201 -13.281  -4.970  0.00  0.00     0.000 A 
ATOM     21  C13 NON d   1      27.151 -14.289  -4.829  0.00  0.00     0.002 A 
ATOM     22  C14 NON d   1      26.944 -15.324  -3.909  0.00  0.00     0.029 A 
ENDBRANCH  15  17
ENDBRANCH  12  13
ENDBRANCH   1  12
TORSDOF 9
ENDMDL
