MODEL 1
REMARK VINA RESULT:   -27.389      0.000      0.000
REMARK INTER + INTRA:         -30.233
REMARK INTER:                 -28.880
REMARK INTRA:                  -1.353
REMARK CONF_INDEPENDENT:        1.492
REMARK UNBOUND:                -1.353
REMARK  5 active torsions:
REMARK  status: ('A' for Active; 'I' for Inactive)
REMARK       I    between atoms: C1_2  and  N1_3 
REMARK    1  A    between atoms: C1_2  and  C2_5 
REMARK    2  A    between atoms: N1_3  and  O2_4 
REMARK    3  A    between atoms: C4_8  and  N3_9 
REMARK    4  A    between atoms: N4_12  and  S1_13 
REMARK    5  A    between atoms: S1_13  and  C7_16 
ROOT
ATOM      1  N3  NON d   1      22.193 -18.043  -1.067  0.00  0.00    -0.248 NA
ATOM      2  C5  NON d   1      22.130 -16.665  -0.574  0.00  0.00     0.119 C 
ATOM      3  C6  NON d   1      23.162 -15.767  -1.271  0.00  0.00     0.150 C 
ATOM      4  N4  NON d   1      24.539 -16.360  -1.389  0.00  0.00    -0.304 N 
ATOM      5  C17 NON d   1      24.601 -17.825  -1.619  0.00  0.00     0.150 C 
ATOM      6  C18 NON d   1      23.516 -18.641  -0.889  0.00  0.00     0.119 C 
ENDROOT
BRANCH   4   7
ATOM      7  S1  NON d   1      25.756 -15.486  -1.746  0.00  0.00     0.260 S 
ATOM      8  O3  NON d   1      25.289 -15.355  -3.133  0.00  0.00    -0.200 OA
ATOM      9  O4  NON d   1      26.629 -16.583  -1.300  0.00  0.00    -0.200 OA
BRANCH   7  10
ATOM     10  C7  NON d   1      26.973 -14.612  -2.103  0.00  0.00     0.080 A 
ATOM     11  C8  NON d   1      28.115 -14.449  -1.286  0.00  0.00     0.026 A 
ATOM     12  C9  NON d   1      29.184 -13.620  -1.641  0.00  0.00     0.014 A 
ATOM     13  C10 NON d   1      29.193 -12.972  -2.878  0.00  0.00    -0.026 A 
ATOM     14  C11 NON d   1      30.275 -12.168  -3.270  0.00  0.00     0.012 A 
ATOM     15  C15 NON d   1      28.091 -13.145  -3.750  0.00  0.00    -0.025 A 
ATOM     16  C12 NON d   1      30.305 -11.581  -4.536  0.00  0.00     0.001 A 
ATOM     17  C13 NON d   1      29.246 -11.779  -5.411  0.00  0.00     0.001 A 
ATOM     18  C14 NON d   1      28.146 -12.547  -5.019  0.00  0.00     0.012 A 
ATOM     19  C16 NON d   1      26.991 -13.927  -3.336  0.00  0.00     0.037 A 
ENDBRANCH   7  10
ENDBRANCH   4   7
BRANCH   1  20
ATOM     20  C4  NON d   1      21.124 -18.831  -0.651  0.00  0.00     0.203 A 
ATOM     21  N2  NON d   1      19.903 -18.595  -1.163  0.00  0.00    -0.230 NA
ATOM     22  C3  NON d   1      18.877 -19.383  -0.772  0.00  0.00     0.138 A 
ATOM     23  C2  NON d   1      19.009 -20.420   0.119  0.00  0.00     0.069 A 
ATOM     24  C19 NON d   1      20.286 -20.598   0.588  0.00  0.00     0.138 A 
ATOM     25  N5  NON d   1      21.341 -19.831   0.223  0.00  0.00    -0.230 NA
BRANCH  23  26
ATOM     26  C1  NON d   1      17.831 -21.218   0.505  0.00  0.00     0.277 C 
ATOM     27  O1  NON d   1      17.280 -21.946  -0.323  0.00  0.00    -0.265 OA
ATOM     28  N1  NON d   1      17.376 -21.131   1.796  0.00  0.00    -0.233 N 
ATOM     29  H1  NON d   1      17.792 -20.637   2.568  0.00  0.00     0.197 HD
BRANCH  28  30
ATOM     30  O2  NON d   1      16.266 -21.955   2.103  0.00  0.00    -0.287 OA
ATOM     31  H2  NON d   1      16.019 -22.320   1.223  0.00  0.00     0.244 HD
ENDBRANCH  28  30
ENDBRANCH  23  26
ENDBRANCH   1  20
TORSDOF 5
ENDMDL
MODEL 2
REMARK VINA RESULT:   -27.329      0.918      1.133
REMARK INTER + INTRA:         -30.179
REMARK INTER:                 -28.821
REMARK INTRA:                  -1.359
REMARK CONF_INDEPENDENT:        1.492
REMARK UNBOUND:                -1.359
REMARK  5 active torsions:
REMARK  status: ('A' for Active; 'I' for Inactive)
REMARK       I    between atoms: C1_2  and  N1_3 
REMARK    1  A    between atoms: C1_2  and  C2_5 
REMARK    2  A    between atoms: N1_3  and  O2_4 
REMARK    3  A    between atoms: C4_8  and  N3_9 
REMARK    4  A    between atoms: N4_12  and  S1_13 
REMARK    5  A    between atoms: S1_13  and  C7_16 
ROOT
ATOM      1  N3  NON d   1      22.205 -18.067  -1.076  0.00  0.00    -0.248 NA
ATOM      2  C5  NON d   1      22.154 -16.692  -0.572  0.00  0.00     0.119 C 
ATOM      3  C6  NON d   1      23.186 -15.796  -1.269  0.00  0.00     0.150 C 
ATOM      4  N4  NON d   1      24.558 -16.397  -1.402  0.00  0.00    -0.304 N 
ATOM      5  C17 NON d   1      24.610 -17.860  -1.645  0.00  0.00     0.150 C 
ATOM      6  C18 NON d   1      23.525 -18.675  -0.913  0.00  0.00     0.119 C 
ENDROOT
BRANCH   4   7
ATOM      7  S1  NON d   1      25.778 -15.528  -1.762  0.00  0.00     0.260 S 
ATOM      8  O3  NON d   1      25.307 -15.391  -3.146  0.00  0.00    -0.200 OA
ATOM      9  O4  NON d   1      26.648 -16.631  -1.322  0.00  0.00    -0.200 OA
BRANCH   7  10
ATOM     10  C7  NON d   1      26.999 -14.659  -2.121  0.00  0.00     0.080 A 
ATOM     11  C8  NON d   1      27.218 -13.344  -1.651  0.00  0.00     0.026 A 
ATOM     12  C9  NON d   1      28.329 -12.583  -2.029  0.00  0.00     0.014 A 
ATOM     13  C10 NON d   1      29.320 -13.138  -2.840  0.00  0.00    -0.026 A 
ATOM     14  C11 NON d   1      30.462 -12.405  -3.198  0.00  0.00     0.012 A 
ATOM     15  C15 NON d   1      29.167 -14.470  -3.296  0.00  0.00    -0.025 A 
ATOM     16  C12 NON d   1      31.479 -12.992  -3.952  0.00  0.00     0.001 A 
ATOM     17  C13 NON d   1      31.353 -14.310  -4.369  0.00  0.00     0.001 A 
ATOM     18  C14 NON d   1      30.204 -15.040  -4.051  0.00  0.00     0.012 A 
ATOM     19  C16 NON d   1      28.000 -15.191  -2.962  0.00  0.00     0.037 A 
ENDBRANCH   7  10
ENDBRANCH   4   7
BRANCH   1  20
ATOM     20  C4  NON d   1      21.134 -18.852  -0.658  0.00  0.00     0.203 A 
ATOM     21  N2  NON d   1      19.905 -18.583  -1.135  0.00  0.00    -0.230 NA
ATOM     22  C3  NON d   1      18.876 -19.367  -0.743  0.00  0.00     0.138 A 
ATOM     23  C2  NON d   1      19.013 -20.431   0.114  0.00  0.00     0.069 A 
ATOM     24  C19 NON d   1      20.298 -20.643   0.548  0.00  0.00     0.138 A 
ATOM     25  N5  NON d   1      21.355 -19.880   0.181  0.00  0.00    -0.230 NA
BRANCH  23  26
ATOM     26  C1  NON d   1      17.832 -21.223   0.504  0.00  0.00     0.277 C 
ATOM     27  O1  NON d   1      17.279 -21.955  -0.320  0.00  0.00    -0.265 OA
ATOM     28  N1  NON d   1      17.377 -21.128   1.794  0.00  0.00    -0.233 N 
ATOM     29  H1  NON d   1      17.794 -20.630   2.563  0.00  0.00     0.197 HD
BRANCH  28  30
ATOM     30  O2  NON d   1      16.264 -21.946   2.105  0.00  0.00    -0.287 OA
ATOM     31  H2  NON d   1      16.002 -22.297   1.224  0.00  0.00     0.244 HD
ENDBRANCH  28  30
ENDBRANCH  23  26
ENDBRANCH   1  20
TORSDOF 5
ENDMDL
MODEL 3
REMARK VINA RESULT:   -27.326      0.988      1.414
REMARK INTER + INTRA:         -30.158
REMARK INTER:                 -28.818
REMARK INTRA:                  -1.340
REMARK CONF_INDEPENDENT:        1.492
REMARK UNBOUND:                -1.340
REMARK  5 active torsions:
REMARK  status: ('A' for Active; 'I' for Inactive)
REMARK       I    between atoms: C1_2  and  N1_3 
REMARK    1  A    between atoms: C1_2  and  C2_5 
REMARK    2  A    between atoms: N1_3  and  O2_4 
REMARK    3  A    between atoms: C4_8  and  N3_9 
REMARK    4  A    between atoms: N4_12  and  S1_13 
REMARK    5  A    between atoms: S1_13  and  C7_16 
ROOT
ATOM      1  N3  NON d   1      22.211 -18.117  -0.953  0.00  0.00    -0.248 NA
ATOM      2  C5  NON d   1      22.077 -16.705  -0.586  0.00  0.00     0.119 C 
ATOM      3  C6  NON d   1      23.143 -15.840  -1.274  0.00  0.00     0.150 C 
ATOM      4  N4  NON d   1      24.537 -16.401  -1.232  0.00  0.00    -0.304 N 
ATOM      5  C17 NON d   1      24.650 -17.877  -1.330  0.00  0.00     0.150 C 
ATOM      6  C18 NON d   1      23.528 -18.660  -0.620  0.00  0.00     0.119 C 
ENDROOT
BRANCH   4   7
ATOM      7  S1  NON d   1      25.760 -15.525  -1.565  0.00  0.00     0.260 S 
ATOM      8  O3  NON d   1      25.217 -15.228  -2.898  0.00  0.00    -0.200 OA
ATOM      9  O4  NON d   1      26.621 -16.688  -1.297  0.00  0.00    -0.200 OA
BRANCH   7  10
ATOM     10  C7  NON d   1      26.982 -14.650  -1.898  0.00  0.00     0.080 A 
ATOM     11  C8  NON d   1      28.005 -15.006  -2.807  0.00  0.00     0.026 A 
ATOM     12  C9  NON d   1      29.112 -14.187  -3.055  0.00  0.00     0.014 A 
ATOM     13  C10 NON d   1      29.207 -12.929  -2.457  0.00  0.00    -0.026 A 
ATOM     14  C11 NON d   1      30.290 -12.078  -2.724  0.00  0.00     0.012 A 
ATOM     15  C15 NON d   1      28.181 -12.510  -1.576  0.00  0.00    -0.025 A 
ATOM     16  C12 NON d   1      30.340 -10.795  -2.175  0.00  0.00     0.001 A 
ATOM     17  C13 NON d   1      29.319 -10.363  -1.342  0.00  0.00     0.001 A 
ATOM     18  C14 NON d   1      28.253 -11.215  -1.038  0.00  0.00     0.012 A 
ATOM     19  C16 NON d   1      27.112 -13.385  -1.284  0.00  0.00     0.037 A 
ENDBRANCH   7  10
ENDBRANCH   4   7
BRANCH   1  20
ATOM     20  C4  NON d   1      21.129 -18.899  -0.556  0.00  0.00     0.203 A 
ATOM     21  N2  NON d   1      19.905 -18.602  -1.027  0.00  0.00    -0.230 NA
ATOM     22  C3  NON d   1      18.865 -19.382  -0.657  0.00  0.00     0.138 A 
ATOM     23  C2  NON d   1      18.987 -20.470   0.173  0.00  0.00     0.069 A 
ATOM     24  C19 NON d   1      20.269 -20.709   0.602  0.00  0.00     0.138 A 
ATOM     25  N5  NON d   1      21.337 -19.951   0.256  0.00  0.00    -0.230 NA
BRANCH  23  26
ATOM     26  C1  NON d   1      17.796 -21.256   0.541  0.00  0.00     0.277 C 
ATOM     27  O1  NON d   1      17.272 -22.008  -0.285  0.00  0.00    -0.265 OA
ATOM     28  N1  NON d   1      17.297 -21.133   1.813  0.00  0.00    -0.233 N 
ATOM     29  H1  NON d   1      17.687 -20.618   2.584  0.00  0.00     0.197 HD
BRANCH  28  30
ATOM     30  O2  NON d   1      16.177 -21.947   2.105  0.00  0.00    -0.287 OA
ATOM     31  H2  NON d   1      15.949 -22.325   1.225  0.00  0.00     0.244 HD
ENDBRANCH  28  30
ENDBRANCH  23  26
ENDBRANCH   1  20
TORSDOF 5
ENDMDL
