MODEL 1
REMARK VINA RESULT:   -33.974      0.000      0.000
REMARK INTER + INTRA:         -37.860
REMARK INTER:                 -36.062
REMARK INTRA:                  -1.798
REMARK CONF_INDEPENDENT:        2.088
REMARK UNBOUND:                -1.798
REMARK  7 active torsions:
REMARK  status: ('A' for Active; 'I' for Inactive)
REMARK    1  A    between atoms: C3_4  and  C4_5 
REMARK       I    between atoms: C4_5  and  N2_7 
REMARK    2  A    between atoms: N2_7  and  C5_8 
REMARK    3  A    between atoms: C11_15  and  C12_16 
REMARK    4  A    between atoms: C15_19  and  C16_20 
REMARK    5  A    between atoms: C17_21  and  C18_22 
REMARK       I    between atoms: C18_22  and  N3_24 
REMARK    6  A    between atoms: N3_24  and  C19_25 
REMARK    7  A    between atoms: C24_30  and  N4_31 
ROOT
ATOM      1  C12 NON d   1      28.155 -15.101   0.106  0.00  0.00    -0.013 A 
ATOM      2  C13 NON d   1      28.012 -16.473   0.369  0.00  0.00     0.011 A 
ATOM      3  C14 NON d   1      26.863 -17.186  -0.032  0.00  0.00     0.012 A 
ATOM      4  C15 NON d   1      25.811 -16.561  -0.714  0.00  0.00    -0.033 A 
ATOM      5  C25 NON d   1      25.966 -15.202  -1.009  0.00  0.00     0.054 A 
ATOM      6  C26 NON d   1      27.111 -14.500  -0.606  0.00  0.00     0.123 A 
ATOM      7  F1  NON d   1      27.160 -13.186  -0.868  0.00  0.00    -0.206 F 
ENDROOT
BRANCH   1   8
ATOM      8  C11 NON d   1      29.238 -14.256   0.761  0.00  0.00     0.062 C 
ATOM      9  C3  NON d   1      29.882 -14.768   2.088  0.00  0.00     0.114 C 
ATOM     10  C2  NON d   1      31.239 -14.057   2.194  0.00  0.00     0.249 C 
ATOM     11  N1  NON d   1      31.317 -13.181   0.974  0.00  0.00    -0.073 N 
ATOM     12  C1  NON d   1      32.623 -12.454   0.602  0.00  0.00     0.269 C 
ATOM     13  C27 NON d   1      30.477 -13.864  -0.076  0.00  0.00     0.244 C 
ATOM     14  H4  NON d   1      30.741 -12.361   1.223  0.00  0.00     0.279 HD
BRANCH   9  15
ATOM     15  C4  NON d   1      29.018 -14.449   3.308  0.00  0.00     0.228 C 
ATOM     16  O1  NON d   1      28.004 -15.093   3.546  0.00  0.00    -0.273 OA
ATOM     17  N2  NON d   1      29.481 -13.406   4.092  0.00  0.00    -0.327 N 
ATOM     18  H8  NON d   1      30.043 -12.669   3.684  0.00  0.00     0.169 HD
BRANCH  17  19
ATOM     19  C5  NON d   1      29.132 -13.210   5.449  0.00  0.00     0.034 A 
ATOM     20  C6  NON d   1      28.449 -12.039   5.797  0.00  0.00     0.031 A 
ATOM     21  C7  NON d   1      28.156 -11.762   7.138  0.00  0.00     0.026 A 
ATOM     22  C8  NON d   1      28.577 -12.636   8.136  0.00  0.00     0.034 A 
ATOM     23 Cl1  NON d   1      28.263 -12.269   9.786  0.00  0.00    -0.084 Cl
ATOM     24  C9  NON d   1      29.261 -13.801   7.802  0.00  0.00     0.026 A 
ATOM     25  C10 NON d   1      29.524 -14.095   6.459  0.00  0.00     0.031 A 
ENDBRANCH  17  19
ENDBRANCH   9  15
ENDBRANCH   1   8
BRANCH   4  26
ATOM     26  C16 NON d   1      24.568 -17.326  -0.994  0.00  0.00     0.017 C 
ATOM     27  C17 NON d   1      23.650 -17.656  -0.071  0.00  0.00     0.075 C 
BRANCH  27  28
ATOM     28  C18 NON d   1      22.423 -18.509  -0.196  0.00  0.00     0.245 C 
ATOM     29  O2  NON d   1      22.261 -19.075  -1.274  0.00  0.00    -0.268 OA
ATOM     30  N3  NON d   1      21.597 -18.575   0.898  0.00  0.00    -0.322 N 
ATOM     31  H18 NON d   1      21.809 -17.957   1.666  0.00  0.00     0.169 HD
BRANCH  30  32
ATOM     32  C19 NON d   1      20.412 -19.355   1.072  0.00  0.00     0.056 A 
ATOM     33  C20 NON d   1      20.257 -19.916   2.356  0.00  0.00     0.031 A 
ATOM     34  C21 NON d   1      19.151 -20.708   2.682  0.00  0.00     0.002 A 
ATOM     35  C22 NON d   1      18.190 -20.980   1.721  0.00  0.00     0.002 A 
ATOM     36  C23 NON d   1      18.338 -20.456   0.438  0.00  0.00     0.025 A 
ATOM     37  C24 NON d   1      19.416 -19.613   0.100  0.00  0.00     0.033 A 
BRANCH  37  38
ATOM     38  N4  NON d   1      19.562 -19.320  -1.270  0.00  0.00    -0.301 NA
ATOM     39  H23 NON d   1      20.050 -18.429  -1.408  0.00  0.00     0.124 HD
ATOM     40  H24 NON d   1      18.684 -19.314  -1.777  0.00  0.00     0.124 HD
ENDBRANCH  37  38
ENDBRANCH  30  32
ENDBRANCH  27  28
ENDBRANCH   4  26
TORSDOF 7
ENDMDL
MODEL 2
REMARK VINA RESULT:   -33.403      1.606      2.072
REMARK INTER + INTRA:         -37.751
REMARK INTER:                 -35.491
REMARK INTRA:                  -2.260
REMARK CONF_INDEPENDENT:        2.088
REMARK UNBOUND:                -2.260
REMARK  7 active torsions:
REMARK  status: ('A' for Active; 'I' for Inactive)
REMARK    1  A    between atoms: C3_4  and  C4_5 
REMARK       I    between atoms: C4_5  and  N2_7 
REMARK    2  A    between atoms: N2_7  and  C5_8 
REMARK    3  A    between atoms: C11_15  and  C12_16 
REMARK    4  A    between atoms: C15_19  and  C16_20 
REMARK    5  A    between atoms: C17_21  and  C18_22 
REMARK       I    between atoms: C18_22  and  N3_24 
REMARK    6  A    between atoms: N3_24  and  C19_25 
REMARK    7  A    between atoms: C24_30  and  N4_31 
ROOT
ATOM      1  C12 NON d   1      28.175 -14.991  -0.551  0.00  0.00    -0.013 A 
ATOM      2  C13 NON d   1      26.890 -14.498  -0.273  0.00  0.00     0.011 A 
ATOM      3  C14 NON d   1      25.743 -15.307  -0.411  0.00  0.00     0.012 A 
ATOM      4  C15 NON d   1      25.831 -16.642  -0.828  0.00  0.00    -0.033 A 
ATOM      5  C25 NON d   1      27.113 -17.146  -1.071  0.00  0.00     0.054 A 
ATOM      6  C26 NON d   1      28.248 -16.336  -0.933  0.00  0.00     0.123 A 
ATOM      7  F1  NON d   1      29.437 -16.870  -1.246  0.00  0.00    -0.206 F 
ENDROOT
BRANCH   1   8
ATOM      8  C11 NON d   1      29.386 -14.078  -0.681  0.00  0.00     0.062 C 
ATOM      9  C3  NON d   1      30.737 -14.537  -0.046  0.00  0.00     0.114 C 
ATOM     10  C2  NON d   1      31.832 -13.750  -0.781  0.00  0.00     0.249 C 
ATOM     11  N1  NON d   1      31.095 -12.886  -1.768  0.00  0.00    -0.073 N 
ATOM     12  C1  NON d   1      31.854 -12.091  -2.847  0.00  0.00     0.269 C 
ATOM     13  C27 NON d   1      29.823 -13.628  -2.093  0.00  0.00     0.244 C 
ATOM     14  H4  NON d   1      30.754 -12.096  -1.197  0.00  0.00     0.279 HD
BRANCH   9  15
ATOM     15  C4  NON d   1      30.794 -14.251   1.454  0.00  0.00     0.228 C 
ATOM     16  O1  NON d   1      31.692 -13.569   1.931  0.00  0.00    -0.273 OA
ATOM     17  N2  NON d   1      29.764 -14.810   2.192  0.00  0.00    -0.327 N 
ATOM     18  H8  NON d   1      29.303 -15.652   1.872  0.00  0.00     0.169 HD
BRANCH  17  19
ATOM     19  C5  NON d   1      29.353 -14.351   3.466  0.00  0.00     0.034 A 
ATOM     20  C6  NON d   1      28.315 -13.413   3.531  0.00  0.00     0.031 A 
ATOM     21  C7  NON d   1      27.930 -12.867   4.762  0.00  0.00     0.026 A 
ATOM     22  C8  NON d   1      28.606 -13.229   5.924  0.00  0.00     0.034 A 
ATOM     23 Cl1  NON d   1      28.167 -12.518   7.427  0.00  0.00    -0.084 Cl
ATOM     24  C9  NON d   1      29.643 -14.156   5.871  0.00  0.00     0.026 A 
ATOM     25  C10 NON d   1      30.004 -14.728   4.646  0.00  0.00     0.031 A 
ENDBRANCH  17  19
ENDBRANCH   9  15
ENDBRANCH   1   8
BRANCH   4  26
ATOM     26  C16 NON d   1      24.584 -17.408  -1.085  0.00  0.00     0.017 C 
ATOM     27  C17 NON d   1      23.635 -17.650  -0.166  0.00  0.00     0.075 C 
BRANCH  27  28
ATOM     28  C18 NON d   1      22.396 -18.492  -0.260  0.00  0.00     0.245 C 
ATOM     29  O2  NON d   1      22.199 -19.051  -1.336  0.00  0.00    -0.268 OA
ATOM     30  N3  NON d   1      21.601 -18.555   0.856  0.00  0.00    -0.322 N 
ATOM     31  H18 NON d   1      21.840 -17.944   1.621  0.00  0.00     0.169 HD
BRANCH  30  32
ATOM     32  C19 NON d   1      20.414 -19.326   1.060  0.00  0.00     0.056 A 
ATOM     33  C20 NON d   1      20.274 -19.866   2.354  0.00  0.00     0.031 A 
ATOM     34  C21 NON d   1      19.169 -20.645   2.709  0.00  0.00     0.002 A 
ATOM     35  C22 NON d   1      18.193 -20.927   1.766  0.00  0.00     0.002 A 
ATOM     36  C23 NON d   1      18.325 -20.425   0.474  0.00  0.00     0.025 A 
ATOM     37  C24 NON d   1      19.403 -19.594   0.107  0.00  0.00     0.033 A 
BRANCH  37  38
ATOM     38  N4  NON d   1      19.530 -19.324  -1.270  0.00  0.00    -0.301 NA
ATOM     39  H23 NON d   1      20.102 -18.488  -1.432  0.00  0.00     0.124 HD
ATOM     40  H24 NON d   1      18.641 -19.230  -1.747  0.00  0.00     0.124 HD
ENDBRANCH  37  38
ENDBRANCH  30  32
ENDBRANCH  27  28
ENDBRANCH   4  26
TORSDOF 7
ENDMDL
MODEL 3
REMARK VINA RESULT:   -33.396      2.903      3.434
REMARK INTER + INTRA:         -37.588
REMARK INTER:                 -35.484
REMARK INTRA:                  -2.105
REMARK CONF_INDEPENDENT:        2.088
REMARK UNBOUND:                -2.105
REMARK  7 active torsions:
REMARK  status: ('A' for Active; 'I' for Inactive)
REMARK    1  A    between atoms: C3_4  and  C4_5 
REMARK       I    between atoms: C4_5  and  N2_7 
REMARK    2  A    between atoms: N2_7  and  C5_8 
REMARK    3  A    between atoms: C11_15  and  C12_16 
REMARK    4  A    between atoms: C15_19  and  C16_20 
REMARK    5  A    between atoms: C17_21  and  C18_22 
REMARK       I    between atoms: C18_22  and  N3_24 
REMARK    6  A    between atoms: N3_24  and  C19_25 
REMARK    7  A    between atoms: C24_30  and  N4_31 
ROOT
ATOM      1  C12 NON d   1      28.227 -15.268   0.360  0.00  0.00    -0.013 A 
ATOM      2  C13 NON d   1      28.076 -16.645   0.585  0.00  0.00     0.011 A 
ATOM      3  C14 NON d   1      26.930 -17.344   0.150  0.00  0.00     0.012 A 
ATOM      4  C15 NON d   1      25.889 -16.696  -0.529  0.00  0.00    -0.033 A 
ATOM      5  C25 NON d   1      26.053 -15.331  -0.786  0.00  0.00     0.054 A 
ATOM      6  C26 NON d   1      27.194 -14.644  -0.350  0.00  0.00     0.123 A 
ATOM      7  F1  NON d   1      27.251 -13.324  -0.575  0.00  0.00    -0.206 F 
ENDROOT
BRANCH   1   8
ATOM      8  C11 NON d   1      29.304 -14.444   1.051  0.00  0.00     0.062 C 
ATOM      9  C3  NON d   1      29.118 -14.093   2.561  0.00  0.00     0.114 C 
ATOM     10  C2  NON d   1      30.525 -13.779   3.092  0.00  0.00     0.249 C 
ATOM     11  N1  NON d   1      31.435 -13.942   1.905  0.00  0.00    -0.073 N 
ATOM     12  C1  NON d   1      32.966 -13.916   2.071  0.00  0.00     0.269 C 
ATOM     13  C27 NON d   1      30.763 -14.952   1.009  0.00  0.00     0.244 C 
ATOM     14  H4  NON d   1      31.315 -13.061   1.381  0.00  0.00     0.279 HD
BRANCH   9  15
ATOM     15  C4  NON d   1      28.194 -12.892   2.763  0.00  0.00     0.228 C 
ATOM     16  O1  NON d   1      27.697 -12.658   3.857  0.00  0.00    -0.273 OA
ATOM     17  N2  NON d   1      27.990 -12.119   1.632  0.00  0.00    -0.327 N 
ATOM     18  H8  NON d   1      28.063 -12.531   0.710  0.00  0.00     0.169 HD
BRANCH  17  19
ATOM     19  C5  NON d   1      27.561 -10.770   1.653  0.00  0.00     0.034 A 
ATOM     20  C6  NON d   1      26.291 -10.485   2.167  0.00  0.00     0.031 A 
ATOM     21  C7  NON d   1      25.790  -9.178   2.133  0.00  0.00     0.026 A 
ATOM     22  C8  NON d   1      26.542  -8.161   1.551  0.00  0.00     0.034 A 
ATOM     23 Cl1  NON d   1      25.904  -6.567   1.461  0.00  0.00    -0.084 Cl
ATOM     24  C9  NON d   1      27.804  -8.434   1.031  0.00  0.00     0.026 A 
ATOM     25  C10 NON d   1      28.319  -9.733   1.097  0.00  0.00     0.031 A 
ENDBRANCH  17  19
ENDBRANCH   9  15
ENDBRANCH   1   8
BRANCH   4  26
ATOM     26  C16 NON d   1      24.648 -17.450  -0.846  0.00  0.00     0.017 C 
ATOM     27  C17 NON d   1      23.696 -17.763   0.049  0.00  0.00     0.075 C 
BRANCH  27  28
ATOM     28  C18 NON d   1      22.463 -18.603  -0.111  0.00  0.00     0.245 C 
ATOM     29  O2  NON d   1      22.338 -19.186  -1.185  0.00  0.00    -0.268 OA
ATOM     30  N3  NON d   1      21.593 -18.639   0.949  0.00  0.00    -0.322 N 
ATOM     31  H18 NON d   1      21.781 -18.011   1.714  0.00  0.00     0.169 HD
BRANCH  30  32
ATOM     32  C19 NON d   1      20.392 -19.402   1.088  0.00  0.00     0.056 A 
ATOM     33  C20 NON d   1      20.201 -19.978   2.360  0.00  0.00     0.031 A 
ATOM     34  C21 NON d   1      19.076 -20.756   2.652  0.00  0.00     0.002 A 
ATOM     35  C22 NON d   1      18.130 -20.998   1.668  0.00  0.00     0.002 A 
ATOM     36  C23 NON d   1      18.313 -20.458   0.397  0.00  0.00     0.025 A 
ATOM     37  C24 NON d   1      19.412 -19.629   0.092  0.00  0.00     0.033 A 
BRANCH  37  38
ATOM     38  N4  NON d   1      19.590 -19.319  -1.270  0.00  0.00    -0.301 NA
ATOM     39  H23 NON d   1      18.721 -19.456  -1.798  0.00  0.00     0.124 HD
ATOM     40  H24 NON d   1      20.343 -19.839  -1.706  0.00  0.00     0.124 HD
ENDBRANCH  37  38
ENDBRANCH  30  32
ENDBRANCH  27  28
ENDBRANCH   4  26
TORSDOF 7
ENDMDL
MODEL 4
REMARK VINA RESULT:   -33.141      4.527      6.767
REMARK INTER + INTRA:         -37.580
REMARK INTER:                 -35.229
REMARK INTRA:                  -2.351
REMARK CONF_INDEPENDENT:        2.088
REMARK UNBOUND:                -2.351
REMARK  7 active torsions:
REMARK  status: ('A' for Active; 'I' for Inactive)
REMARK    1  A    between atoms: C3_4  and  C4_5 
REMARK       I    between atoms: C4_5  and  N2_7 
REMARK    2  A    between atoms: N2_7  and  C5_8 
REMARK    3  A    between atoms: C11_15  and  C12_16 
REMARK    4  A    between atoms: C15_19  and  C16_20 
REMARK    5  A    between atoms: C17_21  and  C18_22 
REMARK       I    between atoms: C18_22  and  N3_24 
REMARK    6  A    between atoms: N3_24  and  C19_25 
REMARK    7  A    between atoms: C24_30  and  N4_31 
ROOT
ATOM      1  C12 NON d   1      28.733 -16.228  -0.276  0.00  0.00    -0.013 A 
ATOM      2  C13 NON d   1      28.464 -17.605  -0.224  0.00  0.00     0.011 A 
ATOM      3  C14 NON d   1      27.145 -18.098  -0.148  0.00  0.00     0.012 A 
ATOM      4  C15 NON d   1      26.039 -17.237  -0.123  0.00  0.00    -0.033 A 
ATOM      5  C25 NON d   1      26.302 -15.866  -0.210  0.00  0.00     0.054 A 
ATOM      6  C26 NON d   1      27.616 -15.384  -0.285  0.00  0.00     0.123 A 
ATOM      7  F1  NON d   1      27.793 -14.055  -0.300  0.00  0.00    -0.206 F 
ENDROOT
BRANCH   1   8
ATOM      8  C11 NON d   1      30.133 -15.664  -0.078  0.00  0.00     0.062 C 
ATOM      9  C3  NON d   1      30.647 -14.579  -1.076  0.00  0.00     0.114 C 
ATOM     10  C2  NON d   1      31.773 -13.837  -0.340  0.00  0.00     0.249 C 
ATOM     11  N1  NON d   1      31.872 -14.510   1.001  0.00  0.00    -0.073 N 
ATOM     12  C1  NON d   1      32.752 -13.922   2.120  0.00  0.00     0.269 C 
ATOM     13  C27 NON d   1      30.494 -15.049   1.292  0.00  0.00     0.244 C 
ATOM     14  H4  NON d   1      32.412 -15.368   0.806  0.00  0.00     0.279 HD
BRANCH   9  15
ATOM     15  C4  NON d   1      31.172 -15.192  -2.373  0.00  0.00     0.228 C 
ATOM     16  O1  NON d   1      32.365 -15.157  -2.646  0.00  0.00    -0.273 OA
ATOM     17  N2  NON d   1      30.206 -15.777  -3.174  0.00  0.00    -0.327 N 
ATOM     18  H8  NON d   1      29.247 -15.452  -3.140  0.00  0.00     0.169 HD
BRANCH  17  19
ATOM     19  C5  NON d   1      30.471 -16.757  -4.160  0.00  0.00     0.034 A 
ATOM     20  C6  NON d   1      30.392 -16.383  -5.506  0.00  0.00     0.031 A 
ATOM     21  C7  NON d   1      30.563 -17.336  -6.517  0.00  0.00     0.026 A 
ATOM     22  C8  NON d   1      30.778 -18.671  -6.184  0.00  0.00     0.034 A 
ATOM     23 Cl1  NON d   1      30.935 -19.850  -7.426  0.00  0.00    -0.084 Cl
ATOM     24  C9  NON d   1      30.853 -19.056  -4.849  0.00  0.00     0.026 A 
ATOM     25  C10 NON d   1      30.716 -18.097  -3.838  0.00  0.00     0.031 A 
ENDBRANCH  17  19
ENDBRANCH   9  15
ENDBRANCH   1   8
BRANCH   4  26
ATOM     26  C16 NON d   1      24.682 -17.802   0.092  0.00  0.00     0.017 C 
ATOM     27  C17 NON d   1      23.568 -17.368  -0.521  0.00  0.00     0.075 C 
BRANCH  27  28
ATOM     28  C18 NON d   1      22.137 -17.769  -0.316  0.00  0.00     0.245 C 
ATOM     29  O2  NON d   1      21.305 -17.191  -1.009  0.00  0.00    -0.268 OA
ATOM     30  N3  NON d   1      21.892 -18.737   0.625  0.00  0.00    -0.322 N 
ATOM     31  H18 NON d   1      22.671 -19.028   1.194  0.00  0.00     0.169 HD
BRANCH  30  32
ATOM     32  C19 NON d   1      20.645 -19.346   0.971  0.00  0.00     0.056 A 
ATOM     33  C20 NON d   1      20.563 -19.813   2.298  0.00  0.00     0.031 A 
ATOM     34  C21 NON d   1      19.410 -20.436   2.786  0.00  0.00     0.002 A 
ATOM     35  C22 NON d   1      18.323 -20.631   1.948  0.00  0.00     0.002 A 
ATOM     36  C23 NON d   1      18.394 -20.199   0.626  0.00  0.00     0.025 A 
ATOM     37  C24 NON d   1      19.524 -19.523   0.124  0.00  0.00     0.033 A 
BRANCH  37  38
ATOM     38  N4  NON d   1      19.555 -19.324  -1.270  0.00  0.00    -0.301 NA
ATOM     39  H23 NON d   1      19.855 -18.371  -1.502  0.00  0.00     0.124 HD
ATOM     40  H24 NON d   1      18.672 -19.527  -1.725  0.00  0.00     0.124 HD
ENDBRANCH  37  38
ENDBRANCH  30  32
ENDBRANCH  27  28
ENDBRANCH   4  26
TORSDOF 7
ENDMDL
MODEL 5
REMARK VINA RESULT:   -32.699      2.525      3.038
REMARK INTER + INTRA:         -37.321
REMARK INTER:                 -34.787
REMARK INTRA:                  -2.534
REMARK CONF_INDEPENDENT:        2.088
REMARK UNBOUND:                -2.534
REMARK  7 active torsions:
REMARK  status: ('A' for Active; 'I' for Inactive)
REMARK    1  A    between atoms: C3_4  and  C4_5 
REMARK       I    between atoms: C4_5  and  N2_7 
REMARK    2  A    between atoms: N2_7  and  C5_8 
REMARK    3  A    between atoms: C11_15  and  C12_16 
REMARK    4  A    between atoms: C15_19  and  C16_20 
REMARK    5  A    between atoms: C17_21  and  C18_22 
REMARK       I    between atoms: C18_22  and  N3_24 
REMARK    6  A    between atoms: N3_24  and  C19_25 
REMARK    7  A    between atoms: C24_30  and  N4_31 
ROOT
ATOM      1  C12 NON d   1      28.746 -16.538  -0.963  0.00  0.00    -0.013 A 
ATOM      2  C13 NON d   1      28.068 -17.527  -0.233  0.00  0.00     0.011 A 
ATOM      3  C14 NON d   1      26.668 -17.675  -0.312  0.00  0.00     0.012 A 
ATOM      4  C15 NON d   1      25.886 -16.844  -1.125  0.00  0.00    -0.033 A 
ATOM      5  C25 NON d   1      26.561 -15.880  -1.881  0.00  0.00     0.054 A 
ATOM      6  C26 NON d   1      27.953 -15.738  -1.796  0.00  0.00     0.123 A 
ATOM      7  F1  NON d   1      28.524 -14.750  -2.500  0.00  0.00    -0.206 F 
ENDROOT
BRANCH   1   8
ATOM      8  C11 NON d   1      30.198 -16.175  -0.689  0.00  0.00     0.062 C 
ATOM      9  C3  NON d   1      30.641 -15.941   0.790  0.00  0.00     0.114 C 
ATOM     10  C2  NON d   1      32.163 -16.148   0.806  0.00  0.00     0.249 C 
ATOM     11  N1  NON d   1      32.529 -16.469  -0.617  0.00  0.00    -0.073 N 
ATOM     12  C1  NON d   1      33.946 -16.948  -0.982  0.00  0.00     0.269 C 
ATOM     13  C27 NON d   1      31.306 -17.114  -1.219  0.00  0.00     0.244 C 
ATOM     14  H4  NON d   1      32.547 -15.546  -1.079  0.00  0.00     0.279 HD
BRANCH   9  15
ATOM     15  C4  NON d   1      30.291 -14.537   1.279  0.00  0.00     0.228 C 
ATOM     16  O1  NON d   1      30.938 -13.564   0.914  0.00  0.00    -0.273 OA
ATOM     17  N2  NON d   1      29.205 -14.473   2.137  0.00  0.00    -0.327 N 
ATOM     18  H8  NON d   1      28.962 -15.268   2.715  0.00  0.00     0.169 HD
BRANCH  17  19
ATOM     19  C5  NON d   1      28.436 -13.308   2.367  0.00  0.00     0.034 A 
ATOM     20  C6  NON d   1      27.266 -13.126   1.620  0.00  0.00     0.031 A 
ATOM     21  C7  NON d   1      26.516 -11.951   1.753  0.00  0.00     0.026 A 
ATOM     22  C8  NON d   1      26.954 -10.940   2.604  0.00  0.00     0.034 A 
ATOM     23 Cl1  NON d   1      26.062  -9.475   2.727  0.00  0.00    -0.084 Cl
ATOM     24  C9  NON d   1      28.119 -11.108   3.348  0.00  0.00     0.026 A 
ATOM     25  C10 NON d   1      28.849 -12.297   3.241  0.00  0.00     0.031 A 
ENDBRANCH  17  19
ENDBRANCH   9  15
ENDBRANCH   1   8
BRANCH   4  26
ATOM     26  C16 NON d   1      24.405 -16.955  -1.069  0.00  0.00     0.017 C 
ATOM     27  C17 NON d   1      23.732 -17.780  -0.249  0.00  0.00     0.075 C 
BRANCH  27  28
ATOM     28  C18 NON d   1      22.262 -18.069  -0.169  0.00  0.00     0.245 C 
ATOM     29  O2  NON d   1      21.546 -17.477  -0.973  0.00  0.00    -0.268 OA
ATOM     30  N3  NON d   1      21.855 -18.959   0.792  0.00  0.00    -0.322 N 
ATOM     31  H18 NON d   1      22.552 -19.269   1.450  0.00  0.00     0.169 HD
BRANCH  30  32
ATOM     32  C19 NON d   1      20.539 -19.459   1.041  0.00  0.00     0.056 A 
ATOM     33  C20 NON d   1      20.322 -19.927   2.352  0.00  0.00     0.031 A 
ATOM     34  C21 NON d   1      19.088 -20.450   2.751  0.00  0.00     0.002 A 
ATOM     35  C22 NON d   1      18.050 -20.542   1.836  0.00  0.00     0.002 A 
ATOM     36  C23 NON d   1      18.252 -20.108   0.528  0.00  0.00     0.025 A 
ATOM     37  C24 NON d   1      19.470 -19.530   0.116  0.00  0.00     0.033 A 
BRANCH  37  38
ATOM     38  N4  NON d   1      19.616 -19.325  -1.270  0.00  0.00    -0.301 NA
ATOM     39  H23 NON d   1      20.602 -19.373  -1.550  0.00  0.00     0.124 HD
ATOM     40  H24 NON d   1      19.208 -18.455  -1.594  0.00  0.00     0.124 HD
ENDBRANCH  37  38
ENDBRANCH  30  32
ENDBRANCH  27  28
ENDBRANCH   4  26
TORSDOF 7
ENDMDL
MODEL 6
REMARK VINA RESULT:   -32.674      5.594      7.859
REMARK INTER + INTRA:         -37.049
REMARK INTER:                 -34.762
REMARK INTRA:                  -2.286
REMARK CONF_INDEPENDENT:        2.088
REMARK UNBOUND:                -2.286
REMARK  7 active torsions:
REMARK  status: ('A' for Active; 'I' for Inactive)
REMARK    1  A    between atoms: C3_4  and  C4_5 
REMARK       I    between atoms: C4_5  and  N2_7 
REMARK    2  A    between atoms: N2_7  and  C5_8 
REMARK    3  A    between atoms: C11_15  and  C12_16 
REMARK    4  A    between atoms: C15_19  and  C16_20 
REMARK    5  A    between atoms: C17_21  and  C18_22 
REMARK       I    between atoms: C18_22  and  N3_24 
REMARK    6  A    between atoms: N3_24  and  C19_25 
REMARK    7  A    between atoms: C24_30  and  N4_31 
ROOT
ATOM      1  C12 NON d   1      28.196 -15.416  -1.863  0.00  0.00    -0.013 A 
ATOM      2  C13 NON d   1      27.176 -14.773  -2.583  0.00  0.00     0.011 A 
ATOM      3  C14 NON d   1      25.814 -15.027  -2.321  0.00  0.00     0.012 A 
ATOM      4  C15 NON d   1      25.413 -15.932  -1.329  0.00  0.00    -0.033 A 
ATOM      5  C25 NON d   1      26.426 -16.547  -0.586  0.00  0.00     0.054 A 
ATOM      6  C26 NON d   1      27.778 -16.290  -0.853  0.00  0.00     0.123 A 
ATOM      7  F1  NON d   1      28.693 -16.965  -0.144  0.00  0.00    -0.206 F 
ENDROOT
BRANCH   1   8
ATOM      8  C11 NON d   1      29.652 -15.375  -2.304  0.00  0.00     0.062 C 
ATOM      9  C3  NON d   1      29.984 -14.840  -3.733  0.00  0.00     0.114 C 
ATOM     10  C2  NON d   1      31.456 -14.406  -3.684  0.00  0.00     0.249 C 
ATOM     11  N1  NON d   1      31.906 -14.710  -2.281  0.00  0.00    -0.073 N 
ATOM     12  C1  NON d   1      33.274 -14.226  -1.765  0.00  0.00     0.269 C 
ATOM     13  C27 NON d   1      30.669 -14.614  -1.424  0.00  0.00     0.244 C 
ATOM     14  H4  NON d   1      32.090 -15.726  -2.297  0.00  0.00     0.279 HD
BRANCH   9  15
ATOM     15  C4  NON d   1      29.780 -15.907  -4.808  0.00  0.00     0.228 C 
ATOM     16  O1  NON d   1      29.245 -15.631  -5.874  0.00  0.00    -0.273 OA
ATOM     17  N2  NON d   1      30.250 -17.166  -4.474  0.00  0.00    -0.327 N 
ATOM     18  H8  NON d   1      30.303 -17.453  -3.505  0.00  0.00     0.169 HD
BRANCH  17  19
ATOM     19  C5  NON d   1      30.573 -18.174  -5.415  0.00  0.00     0.034 A 
ATOM     20  C6  NON d   1      30.572 -19.507  -4.986  0.00  0.00     0.031 A 
ATOM     21  C7  NON d   1      30.966 -20.530  -5.857  0.00  0.00     0.026 A 
ATOM     22  C8  NON d   1      31.396 -20.220  -7.144  0.00  0.00     0.034 A 
ATOM     23 Cl1  NON d   1      31.930 -21.472  -8.195  0.00  0.00    -0.084 Cl
ATOM     24  C9  NON d   1      31.407 -18.898  -7.579  0.00  0.00     0.026 A 
ATOM     25  C10 NON d   1      30.980 -17.878  -6.720  0.00  0.00     0.031 A 
ENDBRANCH  17  19
ENDBRANCH   9  15
ENDBRANCH   1   8
BRANCH   4  26
ATOM     26  C16 NON d   1      23.971 -16.263  -1.185  0.00  0.00     0.017 C 
ATOM     27  C17 NON d   1      23.495 -17.326  -0.517  0.00  0.00     0.075 C 
BRANCH  27  28
ATOM     28  C18 NON d   1      22.089 -17.832  -0.389  0.00  0.00     0.245 C 
ATOM     29  O2  NON d   1      21.293 -17.451  -1.244  0.00  0.00    -0.268 OA
ATOM     30  N3  NON d   1      21.821 -18.666   0.667  0.00  0.00    -0.322 N 
ATOM     31  H18 NON d   1      22.554 -18.789   1.347  0.00  0.00     0.169 HD
BRANCH  30  32
ATOM     32  C19 NON d   1      20.599 -19.336   0.984  0.00  0.00     0.056 A 
ATOM     33  C20 NON d   1      20.522 -19.837   2.299  0.00  0.00     0.031 A 
ATOM     34  C21 NON d   1      19.392 -20.520   2.760  0.00  0.00     0.002 A 
ATOM     35  C22 NON d   1      18.324 -20.743   1.904  0.00  0.00     0.002 A 
ATOM     36  C23 NON d   1      18.390 -20.278   0.593  0.00  0.00     0.025 A 
ATOM     37  C24 NON d   1      19.496 -19.542   0.120  0.00  0.00     0.033 A 
BRANCH  37  38
ATOM     38  N4  NON d   1      19.533 -19.311  -1.269  0.00  0.00    -0.301 NA
ATOM     39  H23 NON d   1      20.397 -19.678  -1.683  0.00  0.00     0.124 HD
ATOM     40  H24 NON d   1      19.420 -18.335  -1.518  0.00  0.00     0.124 HD
ENDBRANCH  37  38
ENDBRANCH  30  32
ENDBRANCH  27  28
ENDBRANCH   4  26
TORSDOF 7
ENDMDL
MODEL 7
REMARK VINA RESULT:   -32.469      4.122      5.666
REMARK INTER + INTRA:         -36.992
REMARK INTER:                 -34.558
REMARK INTRA:                  -2.435
REMARK CONF_INDEPENDENT:        2.088
REMARK UNBOUND:                -2.435
REMARK  7 active torsions:
REMARK  status: ('A' for Active; 'I' for Inactive)
REMARK    1  A    between atoms: C3_4  and  C4_5 
REMARK       I    between atoms: C4_5  and  N2_7 
REMARK    2  A    between atoms: N2_7  and  C5_8 
REMARK    3  A    between atoms: C11_15  and  C12_16 
REMARK    4  A    between atoms: C15_19  and  C16_20 
REMARK    5  A    between atoms: C17_21  and  C18_22 
REMARK       I    between atoms: C18_22  and  N3_24 
REMARK    6  A    between atoms: N3_24  and  C19_25 
REMARK    7  A    between atoms: C24_30  and  N4_31 
ROOT
ATOM      1  C12 NON d   1      28.600 -16.121  -0.146  0.00  0.00    -0.013 A 
ATOM      2  C13 NON d   1      28.140 -17.432  -0.347  0.00  0.00     0.011 A 
ATOM      3  C14 NON d   1      26.788 -17.702  -0.647  0.00  0.00     0.012 A 
ATOM      4  C15 NON d   1      25.841 -16.675  -0.760  0.00  0.00    -0.033 A 
ATOM      5  C25 NON d   1      26.305 -15.366  -0.596  0.00  0.00     0.054 A 
ATOM      6  C26 NON d   1      27.649 -15.106  -0.297  0.00  0.00     0.123 A 
ATOM      7  F1  NON d   1      28.006 -13.830  -0.088  0.00  0.00    -0.206 F 
ENDROOT
BRANCH   1   8
ATOM      8  C11 NON d   1      29.970 -15.823   0.446  0.00  0.00     0.062 C 
ATOM      9  C3  NON d   1      31.199 -15.756  -0.515  0.00  0.00     0.114 C 
ATOM     10  C2  NON d   1      32.262 -14.929   0.224  0.00  0.00     0.249 C 
ATOM     11  N1  NON d   1      31.632 -14.575   1.544  0.00  0.00    -0.073 N 
ATOM     12  C1  NON d   1      32.304 -13.569   2.497  0.00  0.00     0.269 C 
ATOM     13  C27 NON d   1      30.146 -14.542   1.293  0.00  0.00     0.244 C 
ATOM     14  H4  NON d   1      31.746 -15.432   2.108  0.00  0.00     0.279 HD
BRANCH   9  15
ATOM     15  C4  NON d   1      31.744 -17.144  -0.849  0.00  0.00     0.228 C 
ATOM     16  O1  NON d   1      32.548 -17.302  -1.758  0.00  0.00    -0.273 OA
ATOM     17  N2  NON d   1      31.263 -18.167  -0.048  0.00  0.00    -0.327 N 
ATOM     18  H8  NON d   1      30.353 -18.090   0.389  0.00  0.00     0.169 HD
BRANCH  17  19
ATOM     19  C5  NON d   1      31.912 -19.411   0.136  0.00  0.00     0.034 A 
ATOM     20  C6  NON d   1      32.006 -20.278  -0.959  0.00  0.00     0.031 A 
ATOM     21  C7  NON d   1      32.564 -21.553  -0.806  0.00  0.00     0.026 A 
ATOM     22  C8  NON d   1      32.997 -21.976   0.448  0.00  0.00     0.034 A 
ATOM     23 Cl1  NON d   1      33.634 -23.561   0.646  0.00  0.00    -0.084 Cl
ATOM     24  C9  NON d   1      32.904 -21.124   1.545  0.00  0.00     0.026 A 
ATOM     25  C10 NON d   1      32.377 -19.837   1.385  0.00  0.00     0.031 A 
ENDBRANCH  17  19
ENDBRANCH   9  15
ENDBRANCH   1   8
BRANCH   4  26
ATOM     26  C16 NON d   1      24.408 -17.024  -0.945  0.00  0.00     0.017 C 
ATOM     27  C17 NON d   1      23.630 -17.577  -0.000  0.00  0.00     0.075 C 
BRANCH  27  28
ATOM     28  C18 NON d   1      22.217 -18.074  -0.087  0.00  0.00     0.245 C 
ATOM     29  O2  NON d   1      21.579 -17.732  -1.080  0.00  0.00    -0.268 OA
ATOM     30  N3  NON d   1      21.769 -18.857   0.946  0.00  0.00    -0.322 N 
ATOM     31  H18 NON d   1      22.377 -18.950   1.744  0.00  0.00     0.169 HD
BRANCH  30  32
ATOM     32  C19 NON d   1      20.505 -19.511   1.084  0.00  0.00     0.056 A 
ATOM     33  C20 NON d   1      20.273 -20.092   2.346  0.00  0.00     0.031 A 
ATOM     34  C21 NON d   1      19.085 -20.770   2.636  0.00  0.00     0.002 A 
ATOM     35  C22 NON d   1      18.112 -20.906   1.657  0.00  0.00     0.002 A 
ATOM     36  C23 NON d   1      18.332 -20.360   0.395  0.00  0.00     0.025 A 
ATOM     37  C24 NON d   1      19.499 -19.628   0.094  0.00  0.00     0.033 A 
BRANCH  37  38
ATOM     38  N4  NON d   1      19.693 -19.310  -1.264  0.00  0.00    -0.301 NA
ATOM     39  H23 NON d   1      20.637 -19.564  -1.573  0.00  0.00     0.124 HD
ATOM     40  H24 NON d   1      19.511 -18.336  -1.480  0.00  0.00     0.124 HD
ENDBRANCH  37  38
ENDBRANCH  30  32
ENDBRANCH  27  28
ENDBRANCH   4  26
TORSDOF 7
ENDMDL
MODEL 8
REMARK VINA RESULT:   -32.393      4.381      6.592
REMARK INTER + INTRA:         -36.955
REMARK INTER:                 -34.481
REMARK INTRA:                  -2.474
REMARK CONF_INDEPENDENT:        2.088
REMARK UNBOUND:                -2.474
REMARK  7 active torsions:
REMARK  status: ('A' for Active; 'I' for Inactive)
REMARK    1  A    between atoms: C3_4  and  C4_5 
REMARK       I    between atoms: C4_5  and  N2_7 
REMARK    2  A    between atoms: N2_7  and  C5_8 
REMARK    3  A    between atoms: C11_15  and  C12_16 
REMARK    4  A    between atoms: C15_19  and  C16_20 
REMARK    5  A    between atoms: C17_21  and  C18_22 
REMARK       I    between atoms: C18_22  and  N3_24 
REMARK    6  A    between atoms: N3_24  and  C19_25 
REMARK    7  A    between atoms: C24_30  and  N4_31 
ROOT
ATOM      1  C12 NON d   1      28.340 -15.260  -0.061  0.00  0.00    -0.013 A 
ATOM      2  C13 NON d   1      27.021 -14.784   0.002  0.00  0.00     0.011 A 
ATOM      3  C14 NON d   1      25.916 -15.645  -0.162  0.00  0.00     0.012 A 
ATOM      4  C15 NON d   1      26.083 -17.017  -0.392  0.00  0.00    -0.033 A 
ATOM      5  C25 NON d   1      27.395 -17.500  -0.420  0.00  0.00     0.054 A 
ATOM      6  C26 NON d   1      28.488 -16.638  -0.257  0.00  0.00     0.123 A 
ATOM      7  F1  NON d   1      29.717 -17.162  -0.361  0.00  0.00    -0.206 F 
ENDROOT
BRANCH   1   8
ATOM      8  C11 NON d   1      29.538 -14.326  -0.167  0.00  0.00     0.062 C 
ATOM      9  C3  NON d   1      29.586 -13.308  -1.350  0.00  0.00     0.114 C 
ATOM     10  C2  NON d   1      30.545 -12.195  -0.903  0.00  0.00     0.249 C 
ATOM     11  N1  NON d   1      31.008 -12.606   0.468  0.00  0.00    -0.073 N 
ATOM     12  C1  NON d   1      31.827 -11.645   1.350  0.00  0.00     0.269 C 
ATOM     13  C27 NON d   1      29.890 -13.436   1.047  0.00  0.00     0.244 C 
ATOM     14  H4  NON d   1      31.737 -13.312   0.280  0.00  0.00     0.279 HD
BRANCH   9  15
ATOM     15  C4  NON d   1      30.086 -13.953  -2.642  0.00  0.00     0.228 C 
ATOM     16  O1  NON d   1      31.120 -13.572  -3.176  0.00  0.00    -0.273 OA
ATOM     17  N2  NON d   1      29.290 -14.977  -3.128  0.00  0.00    -0.327 N 
ATOM     18  H8  NON d   1      28.299 -14.996  -2.923  0.00  0.00     0.169 HD
BRANCH  17  19
ATOM     19  C5  NON d   1      29.738 -15.985  -4.014  0.00  0.00     0.034 A 
ATOM     20  C6  NON d   1      29.704 -15.723  -5.389  0.00  0.00     0.031 A 
ATOM     21  C7  NON d   1      30.057 -16.718  -6.309  0.00  0.00     0.026 A 
ATOM     22  C8  NON d   1      30.410 -17.987  -5.858  0.00  0.00     0.034 A 
ATOM     23 Cl1  NON d   1      30.792 -19.224  -6.989  0.00  0.00    -0.084 Cl
ATOM     24  C9  NON d   1      30.441 -18.261  -4.493  0.00  0.00     0.026 A 
ATOM     25  C10 NON d   1      30.122 -17.256  -3.573  0.00  0.00     0.031 A 
ENDBRANCH  17  19
ENDBRANCH   9  15
ENDBRANCH   1   8
BRANCH   4  26
ATOM     26  C16 NON d   1      24.892 -17.855  -0.690  0.00  0.00     0.017 C 
ATOM     27  C17 NON d   1      23.708 -17.748  -0.065  0.00  0.00     0.075 C 
BRANCH  27  28
ATOM     28  C18 NON d   1      22.474 -18.592  -0.189  0.00  0.00     0.245 C 
ATOM     29  O2  NON d   1      22.322 -19.181  -1.257  0.00  0.00    -0.268 OA
ATOM     30  N3  NON d   1      21.632 -18.626   0.894  0.00  0.00    -0.322 N 
ATOM     31  H18 NON d   1      21.838 -17.994   1.651  0.00  0.00     0.169 HD
BRANCH  30  32
ATOM     32  C19 NON d   1      20.437 -19.391   1.068  0.00  0.00     0.056 A 
ATOM     33  C20 NON d   1      20.280 -19.960   2.347  0.00  0.00     0.031 A 
ATOM     34  C21 NON d   1      19.165 -20.739   2.672  0.00  0.00     0.002 A 
ATOM     35  C22 NON d   1      18.195 -20.990   1.714  0.00  0.00     0.002 A 
ATOM     36  C23 NON d   1      18.344 -20.457   0.435  0.00  0.00     0.025 A 
ATOM     37  C24 NON d   1      19.432 -19.627   0.098  0.00  0.00     0.033 A 
BRANCH  37  38
ATOM     38  N4  NON d   1      19.575 -19.325  -1.270  0.00  0.00    -0.301 NA
ATOM     39  H23 NON d   1      19.035 -19.975  -1.851  0.00  0.00     0.124 HD
ATOM     40  H24 NON d   1      20.540 -19.307  -1.580  0.00  0.00     0.124 HD
ENDBRANCH  37  38
ENDBRANCH  30  32
ENDBRANCH  27  28
ENDBRANCH   4  26
TORSDOF 7
ENDMDL
MODEL 9
REMARK VINA RESULT:   -32.344      3.942      5.146
REMARK INTER + INTRA:         -37.339
REMARK INTER:                 -34.433
REMARK INTRA:                  -2.907
REMARK CONF_INDEPENDENT:        2.088
REMARK UNBOUND:                -2.907
REMARK  7 active torsions:
REMARK  status: ('A' for Active; 'I' for Inactive)
REMARK    1  A    between atoms: C3_4  and  C4_5 
REMARK       I    between atoms: C4_5  and  N2_7 
REMARK    2  A    between atoms: N2_7  and  C5_8 
REMARK    3  A    between atoms: C11_15  and  C12_16 
REMARK    4  A    between atoms: C15_19  and  C16_20 
REMARK    5  A    between atoms: C17_21  and  C18_22 
REMARK       I    between atoms: C18_22  and  N3_24 
REMARK    6  A    between atoms: N3_24  and  C19_25 
REMARK    7  A    between atoms: C24_30  and  N4_31 
ROOT
ATOM      1  C12 NON d   1      28.494 -16.061  -0.637  0.00  0.00    -0.013 A 
ATOM      2  C13 NON d   1      27.872 -16.965   0.238  0.00  0.00     0.011 A 
ATOM      3  C14 NON d   1      26.574 -17.458  -0.008  0.00  0.00     0.012 A 
ATOM      4  C15 NON d   1      25.844 -17.071  -1.141  0.00  0.00    -0.033 A 
ATOM      5  C25 NON d   1      26.475 -16.198  -2.033  0.00  0.00     0.054 A 
ATOM      6  C26 NON d   1      27.765 -15.711  -1.780  0.00  0.00     0.123 A 
ATOM      7  F1  NON d   1      28.279 -14.827  -2.647  0.00  0.00    -0.206 F 
ENDROOT
BRANCH   1   8
ATOM      8  C11 NON d   1      29.760 -15.305  -0.261  0.00  0.00     0.062 C 
ATOM      9  C3  NON d   1      29.638 -14.074   0.693  0.00  0.00     0.114 C 
ATOM     10  C2  NON d   1      31.032 -13.885   1.309  0.00  0.00     0.249 C 
ATOM     11  N1  NON d   1      31.880 -14.968   0.698  0.00  0.00    -0.073 N 
ATOM     12  C1  NON d   1      33.302 -15.248   1.216  0.00  0.00     0.269 C 
ATOM     13  C27 NON d   1      30.931 -16.093   0.368  0.00  0.00     0.244 C 
ATOM     14  H4  NON d   1      32.119 -14.594  -0.235  0.00  0.00     0.279 HD
BRANCH   9  15
ATOM     15  C4  NON d   1      29.210 -12.810  -0.052  0.00  0.00     0.228 C 
ATOM     16  O1  NON d   1      30.031 -11.956  -0.364  0.00  0.00    -0.273 OA
ATOM     17  N2  NON d   1      27.857 -12.732  -0.336  0.00  0.00    -0.327 N 
ATOM     18  H8  NON d   1      27.183 -13.206   0.251  0.00  0.00     0.169 HD
BRANCH  17  19
ATOM     19  C5  NON d   1      27.301 -11.923  -1.356  0.00  0.00     0.034 A 
ATOM     20  C6  NON d   1      26.387 -12.507  -2.241  0.00  0.00     0.031 A 
ATOM     21  C7  NON d   1      25.873 -11.771  -3.316  0.00  0.00     0.026 A 
ATOM     22  C8  NON d   1      26.299 -10.462  -3.528  0.00  0.00     0.034 A 
ATOM     23 Cl1  NON d   1      25.707  -9.576  -4.877  0.00  0.00    -0.084 Cl
ATOM     24  C9  NON d   1      27.211  -9.873  -2.657  0.00  0.00     0.026 A 
ATOM     25  C10 NON d   1      27.698 -10.598  -1.563  0.00  0.00     0.031 A 
ENDBRANCH  17  19
ENDBRANCH   9  15
ENDBRANCH   1   8
BRANCH   4  26
ATOM     26  C16 NON d   1      24.433 -17.515  -1.284  0.00  0.00     0.017 C 
ATOM     27  C17 NON d   1      23.511 -17.453  -0.309  0.00  0.00     0.075 C 
BRANCH  27  28
ATOM     28  C18 NON d   1      22.100 -17.962  -0.284  0.00  0.00     0.245 C 
ATOM     29  O2  NON d   1      21.392 -17.651  -1.239  0.00  0.00    -0.268 OA
ATOM     30  N3  NON d   1      21.731 -18.720   0.798  0.00  0.00    -0.322 N 
ATOM     31  H18 NON d   1      22.393 -18.787   1.555  0.00  0.00     0.169 HD
BRANCH  30  32
ATOM     32  C19 NON d   1      20.485 -19.378   1.040  0.00  0.00     0.056 A 
ATOM     33  C20 NON d   1      20.328 -19.886   2.345  0.00  0.00     0.031 A 
ATOM     34  C21 NON d   1      19.166 -20.558   2.736  0.00  0.00     0.002 A 
ATOM     35  C22 NON d   1      18.145 -20.763   1.820  0.00  0.00     0.002 A 
ATOM     36  C23 NON d   1      18.292 -20.291   0.517  0.00  0.00     0.025 A 
ATOM     37  C24 NON d   1      19.431 -19.565   0.113  0.00  0.00     0.033 A 
BRANCH  37  38
ATOM     38  N4  NON d   1      19.550 -19.326  -1.269  0.00  0.00    -0.301 NA
ATOM     39  H23 NON d   1      20.474 -19.606  -1.616  0.00  0.00     0.124 HD
ATOM     40  H24 NON d   1      19.362 -18.364  -1.530  0.00  0.00     0.124 HD
ENDBRANCH  37  38
ENDBRANCH  30  32
ENDBRANCH  27  28
ENDBRANCH   4  26
TORSDOF 7
ENDMDL
