MODEL 1
REMARK VINA RESULT:    -8.385      0.000      0.000
REMARK INTER + INTRA:         -18.141
REMARK INTER:                 -12.859
REMARK INTRA:                  -5.281
REMARK CONF_INDEPENDENT:        4.474
REMARK UNBOUND:                -5.281
REMARK  15 active torsions:
REMARK  status: ('A' for Active; 'I' for Inactive)
REMARK    1  A    between atoms: C2_2  and  C4_4 
REMARK    2  A    between atoms: C5_5  and  C6_6 
REMARK       I    between atoms: C6_6  and  N1_8 
REMARK    3  A    between atoms: N1_8  and  C7_9 
REMARK    4  A    between atoms: C13_15  and  C14_16 
REMARK    5  A    between atoms: C20_22  and  C21_23 
REMARK    6  A    between atoms: N2_30  and  C27_31 
REMARK    7  A    between atoms: C27_31  and  C28_32 
REMARK    8  A    between atoms: C29_33  and  C28_32 
REMARK    9  A    between atoms: C29_33  and  O2_34 
REMARK   10  A    between atoms: C29_33  and  C30_35 
REMARK   11  A    between atoms: C31_36  and  C30_35 
REMARK   12  A    between atoms: C31_36  and  O3_37 
REMARK   13  A    between atoms: C31_36  and  C32_38 
REMARK   14  A    between atoms: C32_38  and  C33_39 
REMARK       I    between atoms: C33_39  and  N3_41 
REMARK   15  A    between atoms: N3_41  and  O5_42 
ROOT
ATOM      1  C4  NON d   1      27.351 -14.103  -0.983  0.00  0.00     0.032 C 
ATOM      2  C5  NON d   1      27.332 -12.709  -0.805  0.00  0.00     0.068 C 
ATOM      3  C13 NON d   1      27.417 -12.452   0.618  0.00  0.00     0.020 C 
ATOM      4  C20 NON d   1      27.685 -13.672   1.276  0.00  0.00     0.057 C 
ATOM      5  N2  NON d   1      27.454 -14.673   0.290  0.00  0.00    -0.347 N 
ENDROOT
BRANCH   5   6
ATOM      6  C27 NON d   1      27.272 -16.050   0.711  0.00  0.00     0.132 C 
BRANCH   6   7
ATOM      7  C28 NON d   1      26.969 -17.354  -0.089  0.00  0.00     0.052 C 
BRANCH   7   8
ATOM      8  C29 NON d   1      25.467 -18.210  -0.379  0.00  0.00     0.122 C 
BRANCH   8   9
ATOM      9  O2  NON d   1      24.696 -18.195   0.911  0.00  0.00    -0.395 OA
ATOM     10  H28 NON d   1      24.084 -17.441   0.848  0.00  0.00     0.210 HD
ENDBRANCH   8   9
BRANCH   8  11
ATOM     11  C30 NON d   1      24.475 -17.307  -1.135  0.00  0.00     0.064 C 
BRANCH  11  12
ATOM     12  C31 NON d   1      22.969 -17.630  -1.115  0.00  0.00     0.129 C 
BRANCH  12  13
ATOM     13  O3  NON d   1      22.509 -17.097   0.226  0.00  0.00    -0.395 OA
ATOM     14  H32 NON d   1      22.484 -17.879   0.821  0.00  0.00     0.210 HD
ENDBRANCH  12  13
BRANCH  12  15
ATOM     15  C32 NON d   1      22.493 -19.067  -0.829  0.00  0.00     0.136 C 
BRANCH  15  16
ATOM     16  C33 NON d   1      21.007 -19.326  -0.697  0.00  0.00     0.243 C 
ATOM     17  O4  NON d   1      20.298 -19.705  -1.626  0.00  0.00    -0.271 OA
ATOM     18  N3  NON d   1      20.558 -19.082   0.591  0.00  0.00    -0.237 N 
ATOM     19  H35 NON d   1      21.056 -18.419   1.177  0.00  0.00     0.197 HD
BRANCH  18  20
ATOM     20  O5  NON d   1      19.155 -19.069   0.745  0.00  0.00    -0.287 OA
ATOM     21  H36 NON d   1      18.856 -19.549  -0.054  0.00  0.00     0.244 HD
ENDBRANCH  18  20
ENDBRANCH  15  16
ENDBRANCH  12  15
ENDBRANCH  11  12
ENDBRANCH   8  11
ENDBRANCH   7   8
ENDBRANCH   6   7
ENDBRANCH   5   6
BRANCH   4  22
ATOM     22  C21 NON d   1      28.101 -13.908   2.731  0.00  0.00    -0.008 A 
ATOM     23  C22 NON d   1      29.443 -14.224   3.027  0.00  0.00     0.017 A 
ATOM     24  C23 NON d   1      29.923 -14.333   4.345  0.00  0.00     0.043 A 
ATOM     25  C24 NON d   1      29.052 -14.208   5.412  0.00  0.00     0.116 A 
ATOM     26  F1  NON d   1      29.499 -14.308   6.669  0.00  0.00    -0.206 F 
ATOM     27  C25 NON d   1      27.716 -13.980   5.179  0.00  0.00     0.043 A 
ATOM     28  C26 NON d   1      27.260 -13.818   3.861  0.00  0.00     0.017 A 
ENDBRANCH   4  22
BRANCH   1  29
ATOM     29  C2  NON d   1      27.155 -14.926  -2.265  0.00  0.00     0.028 C 
ATOM     30  C1  NON d   1      28.182 -14.618  -3.347  0.00  0.00     0.016 C 
ATOM     31  C3  NON d   1      25.749 -14.952  -2.879  0.00  0.00     0.016 C 
ENDBRANCH   1  29
BRANCH   3  32
ATOM     32  C14 NON d   1      27.308 -11.145   1.299  0.00  0.00    -0.023 A 
ATOM     33  C15 NON d   1      28.190 -10.094   1.006  0.00  0.00     0.012 A 
ATOM     34  C16 NON d   1      28.047  -8.842   1.614  0.00  0.00     0.001 A 
ATOM     35  C17 NON d   1      27.055  -8.638   2.570  0.00  0.00     0.000 A 
ATOM     36  C18 NON d   1      26.183  -9.673   2.890  0.00  0.00     0.001 A 
ATOM     37  C19 NON d   1      26.286 -10.905   2.234  0.00  0.00     0.012 A 
ENDBRANCH   3  32
BRANCH   2  38
ATOM     38  C6  NON d   1      27.227 -11.706  -1.892  0.00  0.00     0.259 C 
ATOM     39  O1  NON d   1      28.014 -10.768  -1.958  0.00  0.00    -0.267 OA
ATOM     40  N1  NON d   1      26.174 -11.892  -2.775  0.00  0.00    -0.323 N 
ATOM     41  H8  NON d   1      25.504 -12.630  -2.541  0.00  0.00     0.169 HD
BRANCH  40  42
ATOM     42  C7  NON d   1      25.900 -11.123  -3.926  0.00  0.00     0.035 A 
ATOM     43  C8  NON d   1      25.919 -11.668  -5.210  0.00  0.00     0.029 A 
ATOM     44  C9  NON d   1      25.581 -10.883  -6.319  0.00  0.00     0.002 A 
ATOM     45  C10 NON d   1      25.262  -9.537  -6.151  0.00  0.00     0.000 A 
ATOM     46  C11 NON d   1      25.248  -8.985  -4.875  0.00  0.00     0.002 A 
ATOM     47  C12 NON d   1      25.537  -9.784  -3.758  0.00  0.00     0.029 A 
ENDBRANCH  40  42
ENDBRANCH   2  38
TORSDOF 15
ENDMDL
MODEL 2
REMARK VINA RESULT:    -8.370      0.531      1.171
REMARK INTER + INTRA:         -18.187
REMARK INTER:                 -12.844
REMARK INTRA:                  -5.343
REMARK CONF_INDEPENDENT:        4.474
REMARK UNBOUND:                -5.343
REMARK  15 active torsions:
REMARK  status: ('A' for Active; 'I' for Inactive)
REMARK    1  A    between atoms: C2_2  and  C4_4 
REMARK    2  A    between atoms: C5_5  and  C6_6 
REMARK       I    between atoms: C6_6  and  N1_8 
REMARK    3  A    between atoms: N1_8  and  C7_9 
REMARK    4  A    between atoms: C13_15  and  C14_16 
REMARK    5  A    between atoms: C20_22  and  C21_23 
REMARK    6  A    between atoms: N2_30  and  C27_31 
REMARK    7  A    between atoms: C27_31  and  C28_32 
REMARK    8  A    between atoms: C29_33  and  C28_32 
REMARK    9  A    between atoms: C29_33  and  O2_34 
REMARK   10  A    between atoms: C29_33  and  C30_35 
REMARK   11  A    between atoms: C31_36  and  C30_35 
REMARK   12  A    between atoms: C31_36  and  O3_37 
REMARK   13  A    between atoms: C31_36  and  C32_38 
REMARK   14  A    between atoms: C32_38  and  C33_39 
REMARK       I    between atoms: C33_39  and  N3_41 
REMARK   15  A    between atoms: N3_41  and  O5_42 
ROOT
ATOM      1  C4  NON d   1      27.189 -13.778  -1.207  0.00  0.00     0.032 C 
ATOM      2  C5  NON d   1      27.210 -12.391  -0.974  0.00  0.00     0.068 C 
ATOM      3  C13 NON d   1      27.336 -12.193   0.455  0.00  0.00     0.020 C 
ATOM      4  C20 NON d   1      27.586 -13.443   1.059  0.00  0.00     0.057 C 
ATOM      5  N2  NON d   1      27.307 -14.400   0.041  0.00  0.00    -0.347 N 
ENDROOT
BRANCH   5   6
ATOM      6  C27 NON d   1      27.099 -15.787   0.412  0.00  0.00     0.132 C 
BRANCH   6   7
ATOM      7  C28 NON d   1      26.767 -17.055  -0.432  0.00  0.00     0.052 C 
BRANCH   7   8
ATOM      8  C29 NON d   1      25.234 -17.799  -0.848  0.00  0.00     0.122 C 
BRANCH   8   9
ATOM      9  O2  NON d   1      24.981 -18.880   0.166  0.00  0.00    -0.395 OA
ATOM     10  H28 NON d   1      24.697 -18.423   0.977  0.00  0.00     0.210 HD
ENDBRANCH   8   9
BRANCH   8  11
ATOM     11  C30 NON d   1      24.065 -16.909  -0.386  0.00  0.00     0.064 C 
BRANCH  11  12
ATOM     12  C31 NON d   1      22.634 -17.476  -0.346  0.00  0.00     0.129 C 
BRANCH  12  13
ATOM     13  O3  NON d   1      22.586 -18.230   0.967  0.00  0.00    -0.395 OA
ATOM     14  H32 NON d   1      23.079 -19.064   0.805  0.00  0.00     0.210 HD
ENDBRANCH  12  13
BRANCH  12  15
ATOM     15  C32 NON d   1      22.271 -18.711  -1.193  0.00  0.00     0.136 C 
BRANCH  15  16
ATOM     16  C33 NON d   1      20.872 -19.282  -1.081  0.00  0.00     0.243 C 
ATOM     17  O4  NON d   1      20.232 -19.703  -2.042  0.00  0.00    -0.271 OA
ATOM     18  N3  NON d   1      20.416 -19.265   0.227  0.00  0.00    -0.237 N 
ATOM     19  H35 NON d   1      20.783 -18.575   0.875  0.00  0.00     0.197 HD
BRANCH  18  20
ATOM     20  O5  NON d   1      19.044 -19.555   0.387  0.00  0.00    -0.287 OA
ATOM     21  H36 NON d   1      18.855 -20.100  -0.403  0.00  0.00     0.244 HD
ENDBRANCH  18  20
ENDBRANCH  15  16
ENDBRANCH  12  15
ENDBRANCH  11  12
ENDBRANCH   8  11
ENDBRANCH   7   8
ENDBRANCH   6   7
ENDBRANCH   5   6
BRANCH   4  22
ATOM     22  C21 NON d   1      28.029 -13.747   2.493  0.00  0.00    -0.008 A 
ATOM     23  C22 NON d   1      27.084 -13.692   3.539  0.00  0.00     0.017 A 
ATOM     24  C23 NON d   1      27.389 -14.077   4.858  0.00  0.00     0.043 A 
ATOM     25  C24 NON d   1      28.678 -14.455   5.188  0.00  0.00     0.116 A 
ATOM     26  F1  NON d   1      28.978 -14.823   6.439  0.00  0.00    -0.206 F 
ATOM     27  C25 NON d   1      29.659 -14.449   4.224  0.00  0.00     0.043 A 
ATOM     28  C26 NON d   1      29.329 -14.116   2.901  0.00  0.00     0.017 A 
ENDBRANCH   4  22
BRANCH   1  29
ATOM     29  C2  NON d   1      26.942 -14.545  -2.514  0.00  0.00     0.028 C 
ATOM     30  C1  NON d   1      27.813 -14.071  -3.670  0.00  0.00     0.016 C 
ATOM     31  C3  NON d   1      25.489 -14.686  -2.986  0.00  0.00     0.016 C 
ENDBRANCH   1  29
BRANCH   3  32
ATOM     32  C14 NON d   1      27.276 -10.911   1.188  0.00  0.00    -0.023 A 
ATOM     33  C15 NON d   1      28.182  -9.874   0.918  0.00  0.00     0.012 A 
ATOM     34  C16 NON d   1      28.085  -8.643   1.577  0.00  0.00     0.001 A 
ATOM     35  C17 NON d   1      27.118  -8.450   2.559  0.00  0.00     0.000 A 
ATOM     36  C18 NON d   1      26.224  -9.473   2.857  0.00  0.00     0.001 A 
ATOM     37  C19 NON d   1      26.280 -10.681   2.152  0.00  0.00     0.012 A 
ENDBRANCH   3  32
BRANCH   2  38
ATOM     38  C6  NON d   1      27.106 -11.345  -2.020  0.00  0.00     0.259 C 
ATOM     39  O1  NON d   1      27.895 -10.406  -2.047  0.00  0.00    -0.267 OA
ATOM     40  N1  NON d   1      26.053 -11.493  -2.909  0.00  0.00    -0.323 N 
ATOM     41  H8  NON d   1      25.382 -12.239  -2.705  0.00  0.00     0.169 HD
BRANCH  40  42
ATOM     42  C7  NON d   1      25.780 -10.677  -4.027  0.00  0.00     0.035 A 
ATOM     43  C8  NON d   1      25.457  -9.326  -3.906  0.00  0.00     0.029 A 
ATOM     44  C9  NON d   1      25.254  -8.539  -5.046  0.00  0.00     0.002 A 
ATOM     45  C10 NON d   1      25.334  -9.112  -6.314  0.00  0.00     0.000 A 
ATOM     46  C11 NON d   1      25.649 -10.461  -6.443  0.00  0.00     0.002 A 
ATOM     47  C12 NON d   1      25.903 -11.238  -5.301  0.00  0.00     0.029 A 
ENDBRANCH  40  42
ENDBRANCH   2  38
TORSDOF 15
ENDMDL
MODEL 3
REMARK VINA RESULT:    -7.887      3.980      6.465
REMARK INTER + INTRA:         -17.457
REMARK INTER:                 -12.361
REMARK INTRA:                  -5.096
REMARK CONF_INDEPENDENT:        4.474
REMARK UNBOUND:                -5.096
REMARK  15 active torsions:
REMARK  status: ('A' for Active; 'I' for Inactive)
REMARK    1  A    between atoms: C2_2  and  C4_4 
REMARK    2  A    between atoms: C5_5  and  C6_6 
REMARK       I    between atoms: C6_6  and  N1_8 
REMARK    3  A    between atoms: N1_8  and  C7_9 
REMARK    4  A    between atoms: C13_15  and  C14_16 
REMARK    5  A    between atoms: C20_22  and  C21_23 
REMARK    6  A    between atoms: N2_30  and  C27_31 
REMARK    7  A    between atoms: C27_31  and  C28_32 
REMARK    8  A    between atoms: C29_33  and  C28_32 
REMARK    9  A    between atoms: C29_33  and  O2_34 
REMARK   10  A    between atoms: C29_33  and  C30_35 
REMARK   11  A    between atoms: C31_36  and  C30_35 
REMARK   12  A    between atoms: C31_36  and  O3_37 
REMARK   13  A    between atoms: C31_36  and  C32_38 
REMARK   14  A    between atoms: C32_38  and  C33_39 
REMARK       I    between atoms: C33_39  and  N3_41 
REMARK   15  A    between atoms: N3_41  and  O5_42 
ROOT
ATOM      1  C4  NON d   1      27.872 -15.620  -3.091  0.00  0.00     0.032 C 
ATOM      2  C5  NON d   1      28.516 -15.578  -4.340  0.00  0.00     0.068 C 
ATOM      3  C13 NON d   1      29.733 -16.355  -4.228  0.00  0.00     0.020 C 
ATOM      4  C20 NON d   1      29.723 -17.022  -2.984  0.00  0.00     0.057 C 
ATOM      5  N2  NON d   1      28.668 -16.406  -2.251  0.00  0.00    -0.347 N 
ENDROOT
BRANCH   5   6
ATOM      6  C27 NON d   1      28.612 -16.581  -0.812  0.00  0.00     0.132 C 
BRANCH   6   7
ATOM      7  C28 NON d   1      27.558 -17.257   0.117  0.00  0.00     0.052 C 
BRANCH   7   8
ATOM      8  C29 NON d   1      25.811 -17.114   0.180  0.00  0.00     0.122 C 
BRANCH   8   9
ATOM      9  O2  NON d   1      25.487 -15.650   0.084  0.00  0.00    -0.395 OA
ATOM     10  H28 NON d   1      24.521 -15.598  -0.029  0.00  0.00     0.210 HD
ENDBRANCH   8   9
BRANCH   8  11
ATOM     11  C30 NON d   1      25.196 -17.476  -1.184  0.00  0.00     0.064 C 
BRANCH  11  12
ATOM     12  C31 NON d   1      23.670 -17.633  -1.324  0.00  0.00     0.129 C 
BRANCH  12  13
ATOM     13  O3  NON d   1      23.128 -16.316  -0.809  0.00  0.00    -0.395 OA
ATOM     14  H32 NON d   1      22.167 -16.333  -1.013  0.00  0.00     0.210 HD
ENDBRANCH  12  13
BRANCH  12  15
ATOM     15  C32 NON d   1      22.886 -18.479  -0.303  0.00  0.00     0.136 C 
BRANCH  15  16
ATOM     16  C33 NON d   1      21.408 -18.712  -0.535  0.00  0.00     0.243 C 
ATOM     17  O4  NON d   1      20.657 -17.873  -1.027  0.00  0.00    -0.271 OA
ATOM     18  N3  NON d   1      21.019 -19.977  -0.125  0.00  0.00    -0.237 N 
ATOM     19  H35 NON d   1      21.543 -20.448   0.605  0.00  0.00     0.197 HD
BRANCH  18  20
ATOM     20  O5  NON d   1      19.625 -20.192  -0.084  0.00  0.00    -0.287 OA
ATOM     21  H36 NON d   1      19.293 -19.505  -0.696  0.00  0.00     0.244 HD
ENDBRANCH  18  20
ENDBRANCH  15  16
ENDBRANCH  12  15
ENDBRANCH  11  12
ENDBRANCH   8  11
ENDBRANCH   7   8
ENDBRANCH   6   7
ENDBRANCH   5   6
BRANCH   4  22
ATOM     22  C21 NON d   1      30.643 -18.141  -2.486  0.00  0.00    -0.008 A 
ATOM     23  C22 NON d   1      31.134 -19.096  -3.400  0.00  0.00     0.017 A 
ATOM     24  C23 NON d   1      32.078 -20.075  -3.039  0.00  0.00     0.043 A 
ATOM     25  C24 NON d   1      32.502 -20.179  -1.727  0.00  0.00     0.116 A 
ATOM     26  F1  NON d   1      33.400 -21.106  -1.375  0.00  0.00    -0.206 F 
ATOM     27  C25 NON d   1      31.993 -19.324  -0.776  0.00  0.00     0.043 A 
ATOM     28  C26 NON d   1      31.094 -18.316  -1.160  0.00  0.00     0.017 A 
ENDBRANCH   4  22
BRANCH   1  29
ATOM     29  C2  NON d   1      26.622 -14.868  -2.611  0.00  0.00     0.028 C 
ATOM     30  C1  NON d   1      25.503 -14.831  -3.643  0.00  0.00     0.016 C 
ATOM     31  C3  NON d   1      26.826 -13.468  -2.018  0.00  0.00     0.016 C 
ENDBRANCH   1  29
BRANCH   3  32
ATOM     32  C14 NON d   1      30.799 -16.498  -5.242  0.00  0.00    -0.023 A 
ATOM     33  C15 NON d   1      32.098 -16.028  -5.004  0.00  0.00     0.012 A 
ATOM     34  C16 NON d   1      33.116 -16.215  -5.947  0.00  0.00     0.001 A 
ATOM     35  C17 NON d   1      32.835 -16.823  -7.167  0.00  0.00     0.000 A 
ATOM     36  C18 NON d   1      31.548 -17.278  -7.431  0.00  0.00     0.001 A 
ATOM     37  C19 NON d   1      30.546 -17.149  -6.462  0.00  0.00     0.012 A 
ENDBRANCH   3  32
BRANCH   2  38
ATOM     38  C6  NON d   1      28.025 -14.848  -5.534  0.00  0.00     0.259 C 
ATOM     39  O1  NON d   1      27.032 -15.236  -6.140  0.00  0.00    -0.267 OA
ATOM     40  N1  NON d   1      28.781 -13.751  -5.916  0.00  0.00    -0.323 N 
ATOM     41  H8  NON d   1      29.662 -13.604  -5.415  0.00  0.00     0.169 HD
BRANCH  40  42
ATOM     42  C7  NON d   1      28.488 -12.856  -6.967  0.00  0.00     0.035 A 
ATOM     43  C8  NON d   1      29.125 -12.924  -8.206  0.00  0.00     0.029 A 
ATOM     44  C9  NON d   1      28.759 -12.055  -9.240  0.00  0.00     0.002 A 
ATOM     45  C10 NON d   1      27.780 -11.086  -9.026  0.00  0.00     0.000 A 
ATOM     46  C11 NON d   1      27.145 -11.008  -7.792  0.00  0.00     0.002 A 
ATOM     47  C12 NON d   1      27.476 -11.913  -6.771  0.00  0.00     0.029 A 
ENDBRANCH  40  42
ENDBRANCH   2  38
TORSDOF 15
ENDMDL
MODEL 4
REMARK VINA RESULT:    -7.173      5.239      9.858
REMARK INTER + INTRA:         -17.470
REMARK INTER:                 -11.648
REMARK INTRA:                  -5.822
REMARK CONF_INDEPENDENT:        4.474
REMARK UNBOUND:                -5.822
REMARK  15 active torsions:
REMARK  status: ('A' for Active; 'I' for Inactive)
REMARK    1  A    between atoms: C2_2  and  C4_4 
REMARK    2  A    between atoms: C5_5  and  C6_6 
REMARK       I    between atoms: C6_6  and  N1_8 
REMARK    3  A    between atoms: N1_8  and  C7_9 
REMARK    4  A    between atoms: C13_15  and  C14_16 
REMARK    5  A    between atoms: C20_22  and  C21_23 
REMARK    6  A    between atoms: N2_30  and  C27_31 
REMARK    7  A    between atoms: C27_31  and  C28_32 
REMARK    8  A    between atoms: C29_33  and  C28_32 
REMARK    9  A    between atoms: C29_33  and  O2_34 
REMARK   10  A    between atoms: C29_33  and  C30_35 
REMARK   11  A    between atoms: C31_36  and  C30_35 
REMARK   12  A    between atoms: C31_36  and  O3_37 
REMARK   13  A    between atoms: C31_36  and  C32_38 
REMARK   14  A    between atoms: C32_38  and  C33_39 
REMARK       I    between atoms: C33_39  and  N3_41 
REMARK   15  A    between atoms: N3_41  and  O5_42 
ROOT
ATOM      1  C4  NON d   1      27.344 -13.817  -4.622  0.00  0.00     0.032 C 
ATOM      2  C5  NON d   1      27.911 -14.956  -4.023  0.00  0.00     0.068 C 
ATOM      3  C13 NON d   1      29.023 -15.374  -4.850  0.00  0.00     0.020 C 
ATOM      4  C20 NON d   1      29.248 -14.383  -5.830  0.00  0.00     0.057 C 
ATOM      5  N2  NON d   1      28.096 -13.548  -5.771  0.00  0.00    -0.347 N 
ENDROOT
BRANCH   5   6
ATOM      6  C27 NON d   1      27.814 -12.654  -6.879  0.00  0.00     0.132 C 
BRANCH   6   7
ATOM      7  C28 NON d   1      27.699 -11.101  -6.964  0.00  0.00     0.052 C 
BRANCH   7   8
ATOM      8  C29 NON d   1      26.520  -9.991  -6.292  0.00  0.00     0.122 C 
BRANCH   8   9
ATOM      9  O2  NON d   1      25.273 -10.785  -6.020  0.00  0.00    -0.395 OA
ATOM     10  H28 NON d   1      24.629 -10.153  -5.656  0.00  0.00     0.210 HD
ENDBRANCH   8   9
BRANCH   8  11
ATOM     11  C30 NON d   1      26.828  -9.716  -4.809  0.00  0.00     0.064 C 
BRANCH  11  12
ATOM     12  C31 NON d   1      26.049  -8.627  -4.048  0.00  0.00     0.129 C 
BRANCH  12  13
ATOM     13  O3  NON d   1      24.780  -9.334  -3.617  0.00  0.00    -0.395 OA
ATOM     14  H32 NON d   1      24.553  -9.937  -4.359  0.00  0.00     0.210 HD
ENDBRANCH  12  13
BRANCH  12  15
ATOM     15  C32 NON d   1      25.301  -7.529  -4.827  0.00  0.00     0.136 C 
BRANCH  15  16
ATOM     16  C33 NON d   1      23.888  -7.805  -5.297  0.00  0.00     0.243 C 
ATOM     17  O4  NON d   1      23.559  -8.824  -5.899  0.00  0.00    -0.271 OA
ATOM     18  N3  NON d   1      23.028  -6.771  -4.964  0.00  0.00    -0.237 N 
ATOM     19  H35 NON d   1      23.396  -5.833  -4.848  0.00  0.00     0.197 HD
BRANCH  18  20
ATOM     20  O5  NON d   1      21.753  -6.835  -5.566  0.00  0.00    -0.287 OA
ATOM     21  H36 NON d   1      21.668  -7.788  -5.770  0.00  0.00     0.244 HD
ENDBRANCH  18  20
ENDBRANCH  15  16
ENDBRANCH  12  15
ENDBRANCH  11  12
ENDBRANCH   8  11
ENDBRANCH   7   8
ENDBRANCH   6   7
ENDBRANCH   5   6
BRANCH   4  22
ATOM     22  C21 NON d   1      30.436 -14.225  -6.783  0.00  0.00    -0.008 A 
ATOM     23  C22 NON d   1      31.599 -14.998  -6.579  0.00  0.00     0.017 A 
ATOM     24  C23 NON d   1      32.678 -14.997  -7.481  0.00  0.00     0.043 A 
ATOM     25  C24 NON d   1      32.662 -14.158  -8.580  0.00  0.00     0.116 A 
ATOM     26  F1  NON d   1      33.682 -14.151  -9.445  0.00  0.00    -0.206 F 
ATOM     27  C25 NON d   1      31.588 -13.322  -8.784  0.00  0.00     0.043 A 
ATOM     28  C26 NON d   1      30.493 -13.373  -7.907  0.00  0.00     0.017 A 
ENDBRANCH   4  22
BRANCH   1  29
ATOM     29  C2  NON d   1      26.071 -13.045  -4.244  0.00  0.00     0.028 C 
ATOM     30  C1  NON d   1      26.194 -12.276  -2.935  0.00  0.00     0.016 C 
ATOM     31  C3  NON d   1      24.746 -13.818  -4.267  0.00  0.00     0.016 C 
ENDBRANCH   1  29
BRANCH   3  32
ATOM     32  C14 NON d   1      29.845 -16.592  -4.694  0.00  0.00    -0.023 A 
ATOM     33  C15 NON d   1      30.428 -16.925  -3.462  0.00  0.00     0.012 A 
ATOM     34  C16 NON d   1      31.160 -18.109  -3.308  0.00  0.00     0.001 A 
ATOM     35  C17 NON d   1      31.370 -18.948  -4.398  0.00  0.00     0.000 A 
ATOM     36  C18 NON d   1      30.818 -18.626  -5.633  0.00  0.00     0.001 A 
ATOM     37  C19 NON d   1      30.032 -17.475  -5.771  0.00  0.00     0.012 A 
ENDBRANCH   3  32
BRANCH   2  38
ATOM     38  C6  NON d   1      27.427 -15.600  -2.778  0.00  0.00     0.259 C 
ATOM     39  O1  NON d   1      28.146 -15.665  -1.786  0.00  0.00    -0.267 OA
ATOM     40  N1  NON d   1      26.151 -16.139  -2.841  0.00  0.00    -0.323 N 
ATOM     41  H8  NON d   1      25.701 -16.143  -3.761  0.00  0.00     0.169 HD
BRANCH  40  42
ATOM     42  C7  NON d   1      25.441 -16.738  -1.780  0.00  0.00     0.035 A 
ATOM     43  C8  NON d   1      24.058 -16.614  -1.642  0.00  0.00     0.029 A 
ATOM     44  C9  NON d   1      23.386 -17.275  -0.607  0.00  0.00     0.002 A 
ATOM     45  C10 NON d   1      24.101 -18.033   0.318  0.00  0.00     0.000 A 
ATOM     46  C11 NON d   1      25.480 -18.157   0.191  0.00  0.00     0.002 A 
ATOM     47  C12 NON d   1      26.148 -17.534  -0.876  0.00  0.00     0.029 A 
ENDBRANCH  40  42
ENDBRANCH   2  38
TORSDOF 15
ENDMDL
MODEL 5
REMARK VINA RESULT:    -7.009      3.865      9.264
REMARK INTER + INTRA:         -17.419
REMARK INTER:                 -11.484
REMARK INTRA:                  -5.935
REMARK CONF_INDEPENDENT:        4.474
REMARK UNBOUND:                -5.935
REMARK  15 active torsions:
REMARK  status: ('A' for Active; 'I' for Inactive)
REMARK    1  A    between atoms: C2_2  and  C4_4 
REMARK    2  A    between atoms: C5_5  and  C6_6 
REMARK       I    between atoms: C6_6  and  N1_8 
REMARK    3  A    between atoms: N1_8  and  C7_9 
REMARK    4  A    between atoms: C13_15  and  C14_16 
REMARK    5  A    between atoms: C20_22  and  C21_23 
REMARK    6  A    between atoms: N2_30  and  C27_31 
REMARK    7  A    between atoms: C27_31  and  C28_32 
REMARK    8  A    between atoms: C29_33  and  C28_32 
REMARK    9  A    between atoms: C29_33  and  O2_34 
REMARK   10  A    between atoms: C29_33  and  C30_35 
REMARK   11  A    between atoms: C31_36  and  C30_35 
REMARK   12  A    between atoms: C31_36  and  O3_37 
REMARK   13  A    between atoms: C31_36  and  C32_38 
REMARK   14  A    between atoms: C32_38  and  C33_39 
REMARK       I    between atoms: C33_39  and  N3_41 
REMARK   15  A    between atoms: N3_41  and  O5_42 
ROOT
ATOM      1  C4  NON d   1      27.612 -11.593  -0.173  0.00  0.00     0.032 C 
ATOM      2  C5  NON d   1      27.269 -12.837   0.388  0.00  0.00     0.068 C 
ATOM      3  C13 NON d   1      27.139 -13.783  -0.701  0.00  0.00     0.020 C 
ATOM      4  C20 NON d   1      27.592 -13.164  -1.886  0.00  0.00     0.057 C 
ATOM      5  N2  NON d   1      27.696 -11.782  -1.556  0.00  0.00    -0.347 N 
ENDROOT
BRANCH   5   6
ATOM      6  C27 NON d   1      27.775 -10.804  -2.625  0.00  0.00     0.132 C 
BRANCH   6   7
ATOM      7  C28 NON d   1      26.930 -10.604  -3.920  0.00  0.00     0.052 C 
BRANCH   7   8
ATOM      8  C29 NON d   1      25.764  -9.370  -4.360  0.00  0.00     0.122 C 
BRANCH   8   9
ATOM      9  O2  NON d   1      24.780  -9.273  -3.228  0.00  0.00    -0.395 OA
ATOM     10  H28 NON d   1      24.282  -8.449  -3.378  0.00  0.00     0.210 HD
ENDBRANCH   8   9
BRANCH   8  11
ATOM     11  C30 NON d   1      26.360  -7.968  -4.139  0.00  0.00     0.064 C 
BRANCH  11  12
ATOM     12  C31 NON d   1      25.698  -6.738  -4.790  0.00  0.00     0.129 C 
BRANCH  12  13
ATOM     13  O3  NON d   1      24.616  -6.353  -3.802  0.00  0.00    -0.395 OA
ATOM     14  H32 NON d   1      24.181  -7.198  -3.551  0.00  0.00     0.210 HD
ENDBRANCH  12  13
BRANCH  12  15
ATOM     15  C32 NON d   1      24.715  -6.922  -5.961  0.00  0.00     0.136 C 
BRANCH  15  16
ATOM     16  C33 NON d   1      23.261  -7.214  -5.650  0.00  0.00     0.243 C 
ATOM     17  O4  NON d   1      22.888  -8.187  -4.999  0.00  0.00    -0.271 OA
ATOM     18  N3  NON d   1      22.421  -6.254  -6.189  0.00  0.00    -0.237 N 
ATOM     19  H35 NON d   1      22.715  -5.737  -7.012  0.00  0.00     0.197 HD
BRANCH  18  20
ATOM     20  O5  NON d   1      21.046  -6.573  -6.152  0.00  0.00    -0.287 OA
ATOM     21  H36 NON d   1      21.053  -7.473  -5.770  0.00  0.00     0.244 HD
ENDBRANCH  18  20
ENDBRANCH  15  16
ENDBRANCH  12  15
ENDBRANCH  11  12
ENDBRANCH   8  11
ENDBRANCH   7   8
ENDBRANCH   6   7
ENDBRANCH   5   6
BRANCH   4  22
ATOM     22  C21 NON d   1      27.886 -13.797  -3.249  0.00  0.00    -0.008 A 
ATOM     23  C22 NON d   1      29.223 -14.049  -3.625  0.00  0.00     0.017 A 
ATOM     24  C23 NON d   1      29.562 -14.737  -4.804  0.00  0.00     0.043 A 
ATOM     25  C24 NON d   1      28.572 -15.127  -5.688  0.00  0.00     0.116 A 
ATOM     26  F1  NON d   1      28.885 -15.784  -6.811  0.00  0.00    -0.206 F 
ATOM     27  C25 NON d   1      27.257 -14.835  -5.411  0.00  0.00     0.043 A 
ATOM     28  C26 NON d   1      26.927 -14.197  -4.204  0.00  0.00     0.017 A 
ENDBRANCH   4  22
BRANCH   1  29
ATOM     29  C2  NON d   1      27.745 -10.221   0.504  0.00  0.00     0.028 C 
ATOM     30  C1  NON d   1      29.114  -9.980   1.125  0.00  0.00     0.016 C 
ATOM     31  C3  NON d   1      26.647  -9.816   1.498  0.00  0.00     0.016 C 
ENDBRANCH   1  29
BRANCH   3  32
ATOM     32  C14 NON d   1      26.671 -15.182  -0.618  0.00  0.00    -0.023 A 
ATOM     33  C15 NON d   1      25.531 -15.612  -1.313  0.00  0.00     0.012 A 
ATOM     34  C16 NON d   1      25.125 -16.951  -1.273  0.00  0.00     0.001 A 
ATOM     35  C17 NON d   1      25.819 -17.869  -0.490  0.00  0.00     0.000 A 
ATOM     36  C18 NON d   1      26.941 -17.458   0.224  0.00  0.00     0.001 A 
ATOM     37  C19 NON d   1      27.383 -16.134   0.132  0.00  0.00     0.012 A 
ENDBRANCH   3  32
BRANCH   2  38
ATOM     38  C6  NON d   1      27.068 -13.100   1.833  0.00  0.00     0.259 C 
ATOM     39  O1  NON d   1      25.946 -13.311   2.281  0.00  0.00    -0.267 OA
ATOM     40  N1  NON d   1      28.212 -13.049   2.614  0.00  0.00    -0.323 N 
ATOM     41  H8  NON d   1      29.069 -12.731   2.151  0.00  0.00     0.169 HD
BRANCH  40  42
ATOM     42  C7  NON d   1      28.298 -13.330   3.994  0.00  0.00     0.035 A 
ATOM     43  C8  NON d   1      28.587 -14.604   4.481  0.00  0.00     0.029 A 
ATOM     44  C9  NON d   1      28.723 -14.825   5.857  0.00  0.00     0.002 A 
ATOM     45  C10 NON d   1      28.531 -13.777   6.755  0.00  0.00     0.000 A 
ATOM     46  C11 NON d   1      28.236 -12.504   6.277  0.00  0.00     0.002 A 
ATOM     47  C12 NON d   1      28.150 -12.272   4.895  0.00  0.00     0.029 A 
ENDBRANCH  40  42
ENDBRANCH   2  38
TORSDOF 15
ENDMDL
MODEL 6
REMARK VINA RESULT:    -6.868      3.681      7.066
REMARK INTER + INTRA:         -17.352
REMARK INTER:                 -11.343
REMARK INTRA:                  -6.010
REMARK CONF_INDEPENDENT:        4.474
REMARK UNBOUND:                -6.010
REMARK  15 active torsions:
REMARK  status: ('A' for Active; 'I' for Inactive)
REMARK    1  A    between atoms: C2_2  and  C4_4 
REMARK    2  A    between atoms: C5_5  and  C6_6 
REMARK       I    between atoms: C6_6  and  N1_8 
REMARK    3  A    between atoms: N1_8  and  C7_9 
REMARK    4  A    between atoms: C13_15  and  C14_16 
REMARK    5  A    between atoms: C20_22  and  C21_23 
REMARK    6  A    between atoms: N2_30  and  C27_31 
REMARK    7  A    between atoms: C27_31  and  C28_32 
REMARK    8  A    between atoms: C29_33  and  C28_32 
REMARK    9  A    between atoms: C29_33  and  O2_34 
REMARK   10  A    between atoms: C29_33  and  C30_35 
REMARK   11  A    between atoms: C31_36  and  C30_35 
REMARK   12  A    between atoms: C31_36  and  O3_37 
REMARK   13  A    between atoms: C31_36  and  C32_38 
REMARK   14  A    between atoms: C32_38  and  C33_39 
REMARK       I    between atoms: C33_39  and  N3_41 
REMARK   15  A    between atoms: N3_41  and  O5_42 
ROOT
ATOM      1  C4  NON d   1      29.232 -15.723  -2.817  0.00  0.00     0.032 C 
ATOM      2  C5  NON d   1      28.305 -15.401  -1.809  0.00  0.00     0.068 C 
ATOM      3  C13 NON d   1      28.505 -14.008  -1.464  0.00  0.00     0.020 C 
ATOM      4  C20 NON d   1      29.407 -13.444  -2.391  0.00  0.00     0.057 C 
ATOM      5  N2  NON d   1      29.963 -14.560  -3.081  0.00  0.00    -0.347 N 
ENDROOT
BRANCH   5   6
ATOM      6  C27 NON d   1      31.188 -14.383  -3.839  0.00  0.00     0.132 C 
BRANCH   6   7
ATOM      7  C28 NON d   1      31.515 -14.570  -5.352  0.00  0.00     0.052 C 
BRANCH   7   8
ATOM      8  C29 NON d   1      30.611 -14.139  -6.792  0.00  0.00     0.122 C 
BRANCH   8   9
ATOM      9  O2  NON d   1      29.913 -15.384  -7.261  0.00  0.00    -0.395 OA
ATOM     10  H28 NON d   1      29.250 -15.090  -7.911  0.00  0.00     0.210 HD
ENDBRANCH   8   9
BRANCH   8  11
ATOM     11  C30 NON d   1      29.317 -13.398  -6.409  0.00  0.00     0.064 C 
BRANCH  11  12
ATOM     12  C31 NON d   1      28.266 -14.091  -5.522  0.00  0.00     0.129 C 
BRANCH  12  13
ATOM     13  O3  NON d   1      27.626 -15.102  -6.451  0.00  0.00    -0.395 OA
ATOM     14  H32 NON d   1      26.677 -14.851  -6.494  0.00  0.00     0.210 HD
ENDBRANCH  12  13
BRANCH  12  15
ATOM     15  C32 NON d   1      26.937 -13.380  -5.205  0.00  0.00     0.136 C 
BRANCH  15  16
ATOM     16  C33 NON d   1      25.796 -14.196  -4.631  0.00  0.00     0.243 C 
ATOM     17  O4  NON d   1      25.779 -15.424  -4.619  0.00  0.00    -0.271 OA
ATOM     18  N3  NON d   1      24.789 -13.386  -4.132  0.00  0.00    -0.237 N 
ATOM     19  H35 NON d   1      24.663 -12.453  -4.513  0.00  0.00     0.197 HD
BRANCH  18  20
ATOM     20  O5  NON d   1      23.592 -14.055  -3.798  0.00  0.00    -0.287 OA
ATOM     21  H36 NON d   1      23.288 -14.380  -4.669  0.00  0.00     0.244 HD
ENDBRANCH  18  20
ENDBRANCH  15  16
ENDBRANCH  12  15
ENDBRANCH  11  12
ENDBRANCH   8  11
ENDBRANCH   7   8
ENDBRANCH   6   7
ENDBRANCH   5   6
BRANCH   4  22
ATOM     22  C21 NON d   1      29.759 -11.971  -2.615  0.00  0.00    -0.008 A 
ATOM     23  C22 NON d   1      28.842 -11.130  -3.281  0.00  0.00     0.017 A 
ATOM     24  C23 NON d   1      29.043  -9.744  -3.413  0.00  0.00     0.043 A 
ATOM     25  C24 NON d   1      30.211  -9.165  -2.951  0.00  0.00     0.116 A 
ATOM     26  F1  NON d   1      30.411  -7.848  -3.071  0.00  0.00    -0.206 F 
ATOM     27  C25 NON d   1      31.177  -9.952  -2.366  0.00  0.00     0.043 A 
ATOM     28  C26 NON d   1      30.940 -11.325  -2.190  0.00  0.00     0.017 A 
ENDBRANCH   4  22
BRANCH   1  29
ATOM     29  C2  NON d   1      29.548 -17.084  -3.454  0.00  0.00     0.028 C 
ATOM     30  C1  NON d   1      30.735 -17.792  -2.817  0.00  0.00     0.016 C 
ATOM     31  C3  NON d   1      29.676 -17.133  -4.983  0.00  0.00     0.016 C 
ENDBRANCH   1  29
BRANCH   3  32
ATOM     32  C14 NON d   1      27.852 -13.256  -0.373  0.00  0.00    -0.023 A 
ATOM     33  C15 NON d   1      27.404 -13.899   0.790  0.00  0.00     0.012 A 
ATOM     34  C16 NON d   1      26.835 -13.172   1.842  0.00  0.00     0.001 A 
ATOM     35  C17 NON d   1      26.652 -11.797   1.723  0.00  0.00     0.000 A 
ATOM     36  C18 NON d   1      27.070 -11.143   0.570  0.00  0.00     0.001 A 
ATOM     37  C19 NON d   1      27.698 -11.861  -0.455  0.00  0.00     0.012 A 
ENDBRANCH   3  32
BRANCH   2  38
ATOM     38  C6  NON d   1      27.324 -16.340  -1.215  0.00  0.00     0.259 C 
ATOM     39  O1  NON d   1      27.681 -17.189  -0.405  0.00  0.00    -0.267 OA
ATOM     40  N1  NON d   1      26.021 -16.208  -1.668  0.00  0.00    -0.323 N 
ATOM     41  H8  NON d   1      25.869 -15.555  -2.443  0.00  0.00     0.169 HD
BRANCH  40  42
ATOM     42  C7  NON d   1      24.897 -16.928  -1.211  0.00  0.00     0.035 A 
ATOM     43  C8  NON d   1      25.003 -18.201  -0.650  0.00  0.00     0.029 A 
ATOM     44  C9  NON d   1      23.868 -18.854  -0.154  0.00  0.00     0.002 A 
ATOM     45  C10 NON d   1      22.615 -18.252  -0.253  0.00  0.00     0.000 A 
ATOM     46  C11 NON d   1      22.501 -16.986  -0.816  0.00  0.00     0.002 A 
ATOM     47  C12 NON d   1      23.645 -16.309  -1.268  0.00  0.00     0.029 A 
ENDBRANCH  40  42
ENDBRANCH   2  38
TORSDOF 15
ENDMDL
