MODEL 1
REMARK VINA RESULT:    -8.405      0.000      0.000
REMARK INTER + INTRA:         -13.848
REMARK INTER:                 -11.985
REMARK INTRA:                  -1.864
REMARK CONF_INDEPENDENT:        3.580
REMARK UNBOUND:                -1.864
REMARK  12 active torsions:
REMARK  status: ('A' for Active; 'I' for Inactive)
REMARK    1  A    between atoms: C7_7  and  N1_8 
REMARK    2  A    between atoms: N1_8  and  C8_9 
REMARK    3  A    between atoms: C12_15  and  O1_16 
REMARK    4  A    between atoms: C14_18  and  O2_19 
REMARK    5  A    between atoms: O2_19  and  C15_20 
REMARK    6  A    between atoms: C15_20  and  C16_21 
REMARK    7  A    between atoms: C16_21  and  C17_22 
REMARK    8  A    between atoms: C17_22  and  C18_23 
REMARK    9  A    between atoms: C18_23  and  C19_24 
REMARK   10  A    between atoms: C19_24  and  C20_25 
REMARK   11  A    between atoms: C20_25  and  C21_26 
REMARK       I    between atoms: C21_26  and  N4_28 
REMARK   12  A    between atoms: N4_28  and  O4_29 
ROOT
ATOM      1  C1  NON d   1      20.718 -18.776  -0.899  0.00  0.00     0.018 C 
ATOM      2  C2  NON d   1      21.843 -18.366  -0.750  0.00  0.00    -0.078 C 
ATOM      3  C3  NON d   1      23.193 -17.920  -0.542  0.00  0.00     0.019 A 
ATOM      4  C4  NON d   1      23.989 -18.579   0.389  0.00  0.00     0.021 A 
ATOM      5  C5  NON d   1      25.305 -18.173   0.563  0.00  0.00     0.004 A 
ATOM      6  C6  NON d   1      25.814 -17.101  -0.182  0.00  0.00     0.029 A 
ATOM      7  C7  NON d   1      25.017 -16.378  -1.080  0.00  0.00     0.035 A 
ATOM      8  C24 NON d   1      23.703 -16.835  -1.273  0.00  0.00     0.050 A 
ENDROOT
BRANCH   7   9
ATOM      9  N1  NON d   1      25.479 -15.286  -1.872  0.00  0.00    -0.340 N 
ATOM     10  H5  NON d   1      25.829 -14.552  -1.268  0.00  0.00     0.167 HD
BRANCH   9  11
ATOM     11  C8  NON d   1      26.185 -15.290  -3.109  0.00  0.00     0.142 A 
ATOM     12  N2  NON d   1      25.521 -14.918  -4.218  0.00  0.00    -0.224 NA
ATOM     13  C9  NON d   1      26.190 -14.890  -5.371  0.00  0.00     0.236 A 
ATOM     14  N3  NON d   1      27.470 -15.207  -5.531  0.00  0.00    -0.241 NA
ATOM     15  C10 NON d   1      28.137 -15.565  -4.443  0.00  0.00     0.075 A 
ATOM     16  C11 NON d   1      29.469 -15.905  -4.620  0.00  0.00     0.072 A 
ATOM     17  C23 NON d   1      27.574 -15.622  -3.154  0.00  0.00     0.042 A 
ATOM     18  C12 NON d   1      30.282 -16.321  -3.564  0.00  0.00     0.103 A 
ATOM     19  C14 NON d   1      29.772 -16.323  -2.266  0.00  0.00     0.103 A 
ATOM     20  C22 NON d   1      28.419 -15.998  -2.067  0.00  0.00     0.057 A 
BRANCH  18  21
ATOM     21  O1  NON d   1      31.569 -16.621  -3.915  0.00  0.00    -0.353 OA
ATOM     22  C13 NON d   1      32.222 -15.612  -4.683  0.00  0.00     0.210 C 
ENDBRANCH  18  21
BRANCH  19  23
ATOM     23  O2  NON d   1      30.486 -16.708  -1.159  0.00  0.00    -0.348 OA
BRANCH  23  24
ATOM     24  C15 NON d   1      30.225 -18.048  -0.735  0.00  0.00     0.176 C 
BRANCH  24  25
ATOM     25  C16 NON d   1      31.477 -18.940  -0.755  0.00  0.00     0.027 C 
BRANCH  25  26
ATOM     26  C17 NON d   1      31.479 -20.235   0.066  0.00  0.00     0.002 C 
BRANCH  26  27
ATOM     27  C18 NON d   1      32.878 -20.658   0.522  0.00  0.00     0.001 C 
BRANCH  27  28
ATOM     28  C19 NON d   1      32.890 -21.445   1.842  0.00  0.00     0.009 C 
BRANCH  28  29
ATOM     29  C20 NON d   1      32.583 -20.603   3.084  0.00  0.00     0.105 C 
BRANCH  29  30
ATOM     30  C21 NON d   1      31.436 -21.092   3.955  0.00  0.00     0.240 C 
ATOM     31  O3  NON d   1      30.411 -21.595   3.513  0.00  0.00    -0.271 OA
ATOM     32  N4  NON d   1      31.679 -20.828   5.289  0.00  0.00    -0.237 N 
ATOM     33  H23 NON d   1      32.572 -20.497   5.636  0.00  0.00     0.197 HD
BRANCH  32  34
ATOM     34  O4  NON d   1      30.780 -21.345   6.241  0.00  0.00    -0.287 OA
ATOM     35  H24 NON d   1      30.279 -21.996   5.716  0.00  0.00     0.244 HD
ENDBRANCH  32  34
ENDBRANCH  29  30
ENDBRANCH  28  29
ENDBRANCH  27  28
ENDBRANCH  26  27
ENDBRANCH  25  26
ENDBRANCH  24  25
ENDBRANCH  23  24
ENDBRANCH  19  23
ENDBRANCH   9  11
ENDBRANCH   7   9
TORSDOF 12
ENDMDL
MODEL 2
REMARK VINA RESULT:    -8.161      5.943      8.561
REMARK INTER + INTRA:         -13.609
REMARK INTER:                 -11.741
REMARK INTRA:                  -1.868
REMARK CONF_INDEPENDENT:        3.580
REMARK UNBOUND:                -1.868
REMARK  12 active torsions:
REMARK  status: ('A' for Active; 'I' for Inactive)
REMARK    1  A    between atoms: C7_7  and  N1_8 
REMARK    2  A    between atoms: N1_8  and  C8_9 
REMARK    3  A    between atoms: C12_15  and  O1_16 
REMARK    4  A    between atoms: C14_18  and  O2_19 
REMARK    5  A    between atoms: O2_19  and  C15_20 
REMARK    6  A    between atoms: C15_20  and  C16_21 
REMARK    7  A    between atoms: C16_21  and  C17_22 
REMARK    8  A    between atoms: C17_22  and  C18_23 
REMARK    9  A    between atoms: C18_23  and  C19_24 
REMARK   10  A    between atoms: C19_24  and  C20_25 
REMARK   11  A    between atoms: C20_25  and  C21_26 
REMARK       I    between atoms: C21_26  and  N4_28 
REMARK   12  A    between atoms: N4_28  and  O4_29 
ROOT
ATOM      1  C1  NON d   1      29.305  -9.324   6.795  0.00  0.00     0.018 C 
ATOM      2  C2  NON d   1      29.133 -10.490   6.535  0.00  0.00    -0.078 C 
ATOM      3  C3  NON d   1      28.946 -11.890   6.275  0.00  0.00     0.019 A 
ATOM      4  C4  NON d   1      29.440 -12.821   7.183  0.00  0.00     0.021 A 
ATOM      5  C5  NON d   1      29.226 -14.173   6.950  0.00  0.00     0.004 A 
ATOM      6  C6  NON d   1      28.535 -14.589   5.805  0.00  0.00     0.029 A 
ATOM      7  C7  NON d   1      28.082 -13.677   4.842  0.00  0.00     0.035 A 
ATOM      8  C24 NON d   1      28.269 -12.313   5.120  0.00  0.00     0.050 A 
ENDROOT
BRANCH   7   9
ATOM      9  N1  NON d   1      27.364 -14.038   3.663  0.00  0.00    -0.340 N 
ATOM     10  H5  NON d   1      26.483 -14.466   3.920  0.00  0.00     0.167 HD
BRANCH   9  11
ATOM     11  C8  NON d   1      27.240 -13.348   2.424  0.00  0.00     0.142 A 
ATOM     12  N2  NON d   1      27.147 -12.007   2.451  0.00  0.00    -0.224 NA
ATOM     13  C9  NON d   1      27.064 -11.358   1.290  0.00  0.00     0.236 A 
ATOM     14  N3  NON d   1      27.057 -11.923   0.087  0.00  0.00    -0.241 NA
ATOM     15  C10 NON d   1      27.159 -13.243   0.046  0.00  0.00     0.075 A 
ATOM     16  C11 NON d   1      27.139 -13.826  -1.211  0.00  0.00     0.072 A 
ATOM     17  C23 NON d   1      27.276 -14.062   1.186  0.00  0.00     0.042 A 
ATOM     18  C12 NON d   1      27.217 -15.207  -1.398  0.00  0.00     0.103 A 
ATOM     19  C14 NON d   1      27.400 -16.039  -0.293  0.00  0.00     0.103 A 
ATOM     20  C22 NON d   1      27.405 -15.470   0.993  0.00  0.00     0.057 A 
BRANCH  18  21
ATOM     21  O1  NON d   1      27.181 -15.612  -2.703  0.00  0.00    -0.353 OA
ATOM     22  C13 NON d   1      26.145 -15.014  -3.479  0.00  0.00     0.210 C 
ENDBRANCH  18  21
BRANCH  19  23
ATOM     23  O2  NON d   1      27.493 -17.406  -0.366  0.00  0.00    -0.348 OA
BRANCH  23  24
ATOM     24  C15 NON d   1      26.704 -18.096   0.606  0.00  0.00     0.176 C 
BRANCH  24  25
ATOM     25  C16 NON d   1      25.216 -18.176   0.225  0.00  0.00     0.027 C 
BRANCH  25  26
ATOM     26  C17 NON d   1      24.676 -17.231  -0.856  0.00  0.00     0.002 C 
BRANCH  26  27
ATOM     27  C18 NON d   1      23.181 -16.936  -0.705  0.00  0.00     0.001 C 
BRANCH  27  28
ATOM     28  C19 NON d   1      22.413 -18.004   0.089  0.00  0.00     0.009 C 
BRANCH  28  29
ATOM     29  C20 NON d   1      21.973 -19.214  -0.741  0.00  0.00     0.105 C 
BRANCH  29  30
ATOM     30  C21 NON d   1      20.541 -19.682  -0.533  0.00  0.00     0.240 C 
ATOM     31  O3  NON d   1      19.694 -19.700  -1.418  0.00  0.00    -0.271 OA
ATOM     32  N4  NON d   1      20.313 -20.009   0.790  0.00  0.00    -0.237 N 
ATOM     33  H23 NON d   1      21.051 -20.074   1.481  0.00  0.00     0.197 HD
BRANCH  32  34
ATOM     34  O4  NON d   1      19.078 -20.595   1.124  0.00  0.00    -0.287 OA
ATOM     35  H24 NON d   1      18.721 -20.832   0.248  0.00  0.00     0.244 HD
ENDBRANCH  32  34
ENDBRANCH  29  30
ENDBRANCH  28  29
ENDBRANCH  27  28
ENDBRANCH  26  27
ENDBRANCH  25  26
ENDBRANCH  24  25
ENDBRANCH  23  24
ENDBRANCH  19  23
ENDBRANCH   9  11
ENDBRANCH   7   9
TORSDOF 12
ENDMDL
MODEL 3
REMARK VINA RESULT:    -8.056      5.248      8.291
REMARK INTER + INTRA:         -13.373
REMARK INTER:                 -11.636
REMARK INTRA:                  -1.737
REMARK CONF_INDEPENDENT:        3.580
REMARK UNBOUND:                -1.737
REMARK  12 active torsions:
REMARK  status: ('A' for Active; 'I' for Inactive)
REMARK    1  A    between atoms: C7_7  and  N1_8 
REMARK    2  A    between atoms: N1_8  and  C8_9 
REMARK    3  A    between atoms: C12_15  and  O1_16 
REMARK    4  A    between atoms: C14_18  and  O2_19 
REMARK    5  A    between atoms: O2_19  and  C15_20 
REMARK    6  A    between atoms: C15_20  and  C16_21 
REMARK    7  A    between atoms: C16_21  and  C17_22 
REMARK    8  A    between atoms: C17_22  and  C18_23 
REMARK    9  A    between atoms: C18_23  and  C19_24 
REMARK   10  A    between atoms: C19_24  and  C20_25 
REMARK   11  A    between atoms: C20_25  and  C21_26 
REMARK       I    between atoms: C21_26  and  N4_28 
REMARK   12  A    between atoms: N4_28  and  O4_29 
ROOT
ATOM      1  C1  NON d   1      31.010 -22.713  -3.798  0.00  0.00     0.018 C 
ATOM      2  C2  NON d   1      30.965 -21.744  -4.516  0.00  0.00    -0.078 C 
ATOM      3  C3  NON d   1      30.924 -20.622  -5.413  0.00  0.00     0.019 A 
ATOM      4  C4  NON d   1      31.360 -20.785  -6.724  0.00  0.00     0.021 A 
ATOM      5  C5  NON d   1      31.285 -19.711  -7.600  0.00  0.00     0.004 A 
ATOM      6  C6  NON d   1      30.791 -18.477  -7.160  0.00  0.00     0.029 A 
ATOM      7  C7  NON d   1      30.405 -18.266  -5.829  0.00  0.00     0.035 A 
ATOM      8  C24 NON d   1      30.446 -19.378  -4.971  0.00  0.00     0.050 A 
ENDROOT
BRANCH   7   9
ATOM      9  N1  NON d   1      29.886 -17.038  -5.323  0.00  0.00    -0.340 N 
ATOM     10  H5  NON d   1      29.992 -17.014  -4.316  0.00  0.00     0.167 HD
BRANCH   9  11
ATOM     11  C8  NON d   1      29.963 -15.723  -5.863  0.00  0.00     0.142 A 
ATOM     12  N2  NON d   1      31.105 -15.354  -6.472  0.00  0.00    -0.224 NA
ATOM     13  C9  NON d   1      31.166 -14.135  -7.007  0.00  0.00     0.236 A 
ATOM     14  N3  NON d   1      30.192 -13.232  -6.988  0.00  0.00    -0.241 NA
ATOM     15  C10 NON d   1      29.059 -13.587  -6.401  0.00  0.00     0.075 A 
ATOM     16  C11 NON d   1      28.051 -12.636  -6.375  0.00  0.00     0.072 A 
ATOM     17  C23 NON d   1      28.836 -14.846  -5.811  0.00  0.00     0.042 A 
ATOM     18  C12 NON d   1      26.815 -12.869  -5.770  0.00  0.00     0.103 A 
ATOM     19  C14 NON d   1      26.541 -14.129  -5.237  0.00  0.00     0.103 A 
ATOM     20  C22 NON d   1      27.555 -15.103  -5.236  0.00  0.00     0.057 A 
BRANCH  18  21
ATOM     21  O1  NON d   1      25.939 -11.823  -5.834  0.00  0.00    -0.353 OA
ATOM     22  C13 NON d   1      26.091 -10.860  -4.792  0.00  0.00     0.210 C 
ENDBRANCH  18  21
BRANCH  19  23
ATOM     23  O2  NON d   1      25.359 -14.465  -4.626  0.00  0.00    -0.348 OA
BRANCH  23  24
ATOM     24  C15 NON d   1      25.258 -14.021  -3.270  0.00  0.00     0.176 C 
BRANCH  24  25
ATOM     25  C16 NON d   1      24.406 -14.955  -2.394  0.00  0.00     0.027 C 
BRANCH  25  26
ATOM     26  C17 NON d   1      25.087 -16.134  -1.687  0.00  0.00     0.002 C 
BRANCH  26  27
ATOM     27  C18 NON d   1      24.153 -17.328  -1.472  0.00  0.00     0.001 C 
BRANCH  27  28
ATOM     28  C19 NON d   1      23.355 -17.264  -0.161  0.00  0.00     0.009 C 
BRANCH  28  29
ATOM     29  C20 NON d   1      22.667 -18.577   0.226  0.00  0.00     0.105 C 
BRANCH  29  30
ATOM     30  C21 NON d   1      21.304 -18.826  -0.402  0.00  0.00     0.240 C 
ATOM     31  O3  NON d   1      20.756 -18.048  -1.174  0.00  0.00    -0.271 OA
ATOM     32  N4  NON d   1      20.749 -20.001   0.067  0.00  0.00    -0.237 N 
ATOM     33  H23 NON d   1      21.259 -20.670   0.631  0.00  0.00     0.197 HD
BRANCH  32  34
ATOM     34  O4  NON d   1      19.551 -20.449  -0.522  0.00  0.00    -0.287 OA
ATOM     35  H24 NON d   1      19.329 -19.712  -1.119  0.00  0.00     0.244 HD
ENDBRANCH  32  34
ENDBRANCH  29  30
ENDBRANCH  28  29
ENDBRANCH  27  28
ENDBRANCH  26  27
ENDBRANCH  25  26
ENDBRANCH  24  25
ENDBRANCH  23  24
ENDBRANCH  19  23
ENDBRANCH   9  11
ENDBRANCH   7   9
TORSDOF 12
ENDMDL
MODEL 4
REMARK VINA RESULT:    -7.051      5.056      7.571
REMARK INTER + INTRA:         -14.096
REMARK INTER:                 -10.631
REMARK INTRA:                  -3.465
REMARK CONF_INDEPENDENT:        3.580
REMARK UNBOUND:                -3.465
REMARK  12 active torsions:
REMARK  status: ('A' for Active; 'I' for Inactive)
REMARK    1  A    between atoms: C7_7  and  N1_8 
REMARK    2  A    between atoms: N1_8  and  C8_9 
REMARK    3  A    between atoms: C12_15  and  O1_16 
REMARK    4  A    between atoms: C14_18  and  O2_19 
REMARK    5  A    between atoms: O2_19  and  C15_20 
REMARK    6  A    between atoms: C15_20  and  C16_21 
REMARK    7  A    between atoms: C16_21  and  C17_22 
REMARK    8  A    between atoms: C17_22  and  C18_23 
REMARK    9  A    between atoms: C18_23  and  C19_24 
REMARK   10  A    between atoms: C19_24  and  C20_25 
REMARK   11  A    between atoms: C20_25  and  C21_26 
REMARK       I    between atoms: C21_26  and  N4_28 
REMARK   12  A    between atoms: N4_28  and  O4_29 
ROOT
ATOM      1  C1  NON d   1      20.902 -18.996  -0.436  0.00  0.00     0.018 C 
ATOM      2  C2  NON d   1      22.028 -18.567  -0.493  0.00  0.00    -0.078 C 
ATOM      3  C3  NON d   1      23.380 -18.080  -0.515  0.00  0.00     0.019 A 
ATOM      4  C4  NON d   1      24.187 -18.267   0.603  0.00  0.00     0.021 A 
ATOM      5  C5  NON d   1      25.504 -17.830   0.568  0.00  0.00     0.004 A 
ATOM      6  C6  NON d   1      26.004 -17.195  -0.576  0.00  0.00     0.029 A 
ATOM      7  C7  NON d   1      25.196 -16.936  -1.692  0.00  0.00     0.035 A 
ATOM      8  C24 NON d   1      23.881 -17.426  -1.652  0.00  0.00     0.050 A 
ENDROOT
BRANCH   7   9
ATOM      9  N1  NON d   1      25.649 -16.303  -2.887  0.00  0.00    -0.340 N 
ATOM     10  H5  NON d   1      25.390 -16.866  -3.688  0.00  0.00     0.167 HD
BRANCH   9  11
ATOM     11  C8  NON d   1      25.674 -14.923  -3.236  0.00  0.00     0.142 A 
ATOM     12  N2  NON d   1      24.954 -14.525  -4.300  0.00  0.00    -0.224 NA
ATOM     13  C9  NON d   1      24.951 -13.228  -4.608  0.00  0.00     0.236 A 
ATOM     14  N3  NON d   1      25.609 -12.276  -3.955  0.00  0.00    -0.241 NA
ATOM     15  C10 NON d   1      26.313 -12.654  -2.899  0.00  0.00     0.075 A 
ATOM     16  C11 NON d   1      27.007 -11.658  -2.230  0.00  0.00     0.072 A 
ATOM     17  C23 NON d   1      26.396 -13.983  -2.438  0.00  0.00     0.042 A 
ATOM     18  C12 NON d   1      27.805 -11.919  -1.115  0.00  0.00     0.103 A 
ATOM     19  C14 NON d   1      27.853 -13.213  -0.596  0.00  0.00     0.103 A 
ATOM     20  C22 NON d   1      27.172 -14.242  -1.269  0.00  0.00     0.057 A 
BRANCH  18  21
ATOM     21  O1  NON d   1      28.419 -10.822  -0.579  0.00  0.00    -0.353 OA
ATOM     22  C13 NON d   1      29.844 -10.875  -0.598  0.00  0.00     0.210 C 
ENDBRANCH  18  21
BRANCH  19  23
ATOM     23  O2  NON d   1      28.601 -13.576   0.497  0.00  0.00    -0.348 OA
BRANCH  23  24
ATOM     24  C15 NON d   1      27.854 -14.245   1.516  0.00  0.00     0.176 C 
BRANCH  24  25
ATOM     25  C16 NON d   1      27.320 -13.288   2.596  0.00  0.00     0.027 C 
BRANCH  25  26
ATOM     26  C17 NON d   1      26.642 -11.984   2.161  0.00  0.00     0.002 C 
BRANCH  26  27
ATOM     27  C18 NON d   1      27.251 -10.741   2.816  0.00  0.00     0.001 C 
BRANCH  27  28
ATOM     28  C19 NON d   1      26.387  -9.477   2.674  0.00  0.00     0.009 C 
BRANCH  28  29
ATOM     29  C20 NON d   1      26.847  -8.516   1.574  0.00  0.00     0.105 C 
BRANCH  29  30
ATOM     30  C21 NON d   1      25.854  -8.264   0.450  0.00  0.00     0.240 C 
ATOM     31  O3  NON d   1      24.779  -7.697   0.605  0.00  0.00    -0.271 OA
ATOM     32  N4  NON d   1      26.295  -8.817  -0.736  0.00  0.00    -0.237 N 
ATOM     33  H23 NON d   1      27.226  -9.199  -0.858  0.00  0.00     0.197 HD
BRANCH  32  34
ATOM     34  O4  NON d   1      25.559  -8.551  -1.906  0.00  0.00    -0.287 OA
ATOM     35  H24 NON d   1      24.786  -8.071  -1.556  0.00  0.00     0.244 HD
ENDBRANCH  32  34
ENDBRANCH  29  30
ENDBRANCH  28  29
ENDBRANCH  27  28
ENDBRANCH  26  27
ENDBRANCH  25  26
ENDBRANCH  24  25
ENDBRANCH  23  24
ENDBRANCH  19  23
ENDBRANCH   9  11
ENDBRANCH   7   9
TORSDOF 12
ENDMDL
MODEL 5
REMARK VINA RESULT:    -6.037      4.216      6.079
REMARK INTER + INTRA:         -13.944
REMARK INTER:                  -9.616
REMARK INTRA:                  -4.328
REMARK CONF_INDEPENDENT:        3.580
REMARK UNBOUND:                -4.328
REMARK  12 active torsions:
REMARK  status: ('A' for Active; 'I' for Inactive)
REMARK    1  A    between atoms: C7_7  and  N1_8 
REMARK    2  A    between atoms: N1_8  and  C8_9 
REMARK    3  A    between atoms: C12_15  and  O1_16 
REMARK    4  A    between atoms: C14_18  and  O2_19 
REMARK    5  A    between atoms: O2_19  and  C15_20 
REMARK    6  A    between atoms: C15_20  and  C16_21 
REMARK    7  A    between atoms: C16_21  and  C17_22 
REMARK    8  A    between atoms: C17_22  and  C18_23 
REMARK    9  A    between atoms: C18_23  and  C19_24 
REMARK   10  A    between atoms: C19_24  and  C20_25 
REMARK   11  A    between atoms: C20_25  and  C21_26 
REMARK       I    between atoms: C21_26  and  N4_28 
REMARK   12  A    between atoms: N4_28  and  O4_29 
ROOT
ATOM      1  C1  NON d   1      21.551 -18.888   0.109  0.00  0.00     0.018 C 
ATOM      2  C2  NON d   1      22.658 -18.466  -0.120  0.00  0.00    -0.078 C 
ATOM      3  C3  NON d   1      23.993 -17.990  -0.349  0.00  0.00     0.019 A 
ATOM      4  C4  NON d   1      24.976 -18.239   0.604  0.00  0.00     0.021 A 
ATOM      5  C5  NON d   1      26.275 -17.812   0.365  0.00  0.00     0.004 A 
ATOM      6  C6  NON d   1      26.583 -17.125  -0.816  0.00  0.00     0.029 A 
ATOM      7  C7  NON d   1      25.602 -16.804  -1.764  0.00  0.00     0.035 A 
ATOM      8  C24 NON d   1      24.304 -17.285  -1.523  0.00  0.00     0.050 A 
ENDROOT
BRANCH   7   9
ATOM      9  N1  NON d   1      25.854 -16.117  -2.988  0.00  0.00    -0.340 N 
ATOM     10  H5  NON d   1      25.483 -16.654  -3.762  0.00  0.00     0.167 HD
BRANCH   9  11
ATOM     11  C8  NON d   1      25.804 -14.724  -3.280  0.00  0.00     0.142 A 
ATOM     12  N2  NON d   1      25.157 -14.332  -4.392  0.00  0.00    -0.224 NA
ATOM     13  C9  NON d   1      25.080 -13.027  -4.648  0.00  0.00     0.236 A 
ATOM     14  N3  NON d   1      25.600 -12.060  -3.900  0.00  0.00    -0.241 NA
ATOM     15  C10 NON d   1      26.232 -12.432  -2.797  0.00  0.00     0.075 A 
ATOM     16  C11 NON d   1      26.781 -11.419  -2.027  0.00  0.00     0.072 A 
ATOM     17  C23 NON d   1      26.375 -13.770  -2.382  0.00  0.00     0.042 A 
ATOM     18  C12 NON d   1      27.491 -11.671  -0.852  0.00  0.00     0.103 A 
ATOM     19  C14 NON d   1      27.592 -12.980  -0.381  0.00  0.00     0.103 A 
ATOM     20  C22 NON d   1      27.058 -14.025  -1.154  0.00  0.00     0.057 A 
BRANCH  18  21
ATOM     21  O1  NON d   1      27.967 -10.557  -0.219  0.00  0.00    -0.353 OA
ATOM     22  C13 NON d   1      27.462 -10.366   1.101  0.00  0.00     0.210 C 
ENDBRANCH  18  21
BRANCH  19  23
ATOM     23  O2  NON d   1      28.262 -13.336   0.763  0.00  0.00    -0.348 OA
BRANCH  23  24
ATOM     24  C15 NON d   1      29.487 -14.034   0.527  0.00  0.00     0.176 C 
BRANCH  24  25
ATOM     25  C16 NON d   1      29.293 -15.552   0.371  0.00  0.00     0.027 C 
BRANCH  25  26
ATOM     26  C17 NON d   1      30.076 -16.292  -0.720  0.00  0.00     0.002 C 
BRANCH  26  27
ATOM     27  C18 NON d   1      29.865 -15.703  -2.117  0.00  0.00     0.001 C 
BRANCH  27  28
ATOM     28  C19 NON d   1      29.292 -16.703  -3.133  0.00  0.00     0.009 C 
BRANCH  28  29
ATOM     29  C20 NON d   1      29.405 -16.257  -4.594  0.00  0.00     0.105 C 
BRANCH  29  30
ATOM     30  C21 NON d   1      28.367 -15.250  -5.066  0.00  0.00     0.240 C 
ATOM     31  O3  NON d   1      27.309 -15.561  -5.600  0.00  0.00    -0.271 OA
ATOM     32  N4  NON d   1      28.809 -13.955  -4.875  0.00  0.00    -0.237 N 
ATOM     33  H23 NON d   1      29.643 -13.725  -4.349  0.00  0.00     0.197 HD
BRANCH  32  34
ATOM     34  O4  NON d   1      27.908 -12.904  -5.129  0.00  0.00    -0.287 OA
ATOM     35  H24 NON d   1      27.046 -13.354  -5.066  0.00  0.00     0.244 HD
ENDBRANCH  32  34
ENDBRANCH  29  30
ENDBRANCH  28  29
ENDBRANCH  27  28
ENDBRANCH  26  27
ENDBRANCH  25  26
ENDBRANCH  24  25
ENDBRANCH  23  24
ENDBRANCH  19  23
ENDBRANCH   9  11
ENDBRANCH   7   9
TORSDOF 12
ENDMDL
MODEL 6
REMARK VINA RESULT:    -5.984      5.372      7.173
REMARK INTER + INTRA:         -13.622
REMARK INTER:                  -9.564
REMARK INTRA:                  -4.058
REMARK CONF_INDEPENDENT:        3.580
REMARK UNBOUND:                -4.058
REMARK  12 active torsions:
REMARK  status: ('A' for Active; 'I' for Inactive)
REMARK    1  A    between atoms: C7_7  and  N1_8 
REMARK    2  A    between atoms: N1_8  and  C8_9 
REMARK    3  A    between atoms: C12_15  and  O1_16 
REMARK    4  A    between atoms: C14_18  and  O2_19 
REMARK    5  A    between atoms: O2_19  and  C15_20 
REMARK    6  A    between atoms: C15_20  and  C16_21 
REMARK    7  A    between atoms: C16_21  and  C17_22 
REMARK    8  A    between atoms: C17_22  and  C18_23 
REMARK    9  A    between atoms: C18_23  and  C19_24 
REMARK   10  A    between atoms: C19_24  and  C20_25 
REMARK   11  A    between atoms: C20_25  and  C21_26 
REMARK       I    between atoms: C21_26  and  N4_28 
REMARK   12  A    between atoms: N4_28  and  O4_29 
ROOT
ATOM      1  C1  NON d   1      21.275 -18.885  -0.546  0.00  0.00     0.018 C 
ATOM      2  C2  NON d   1      22.348 -18.333  -0.553  0.00  0.00    -0.078 C 
ATOM      3  C3  NON d   1      23.645 -17.718  -0.535  0.00  0.00     0.019 A 
ATOM      4  C4  NON d   1      24.659 -18.294   0.225  0.00  0.00     0.021 A 
ATOM      5  C5  NON d   1      25.923 -17.720   0.213  0.00  0.00     0.004 A 
ATOM      6  C6  NON d   1      26.165 -16.566  -0.545  0.00  0.00     0.029 A 
ATOM      7  C7  NON d   1      25.147 -15.929  -1.267  0.00  0.00     0.035 A 
ATOM      8  C24 NON d   1      23.888 -16.551  -1.277  0.00  0.00     0.050 A 
ENDROOT
BRANCH   7   9
ATOM      9  N1  NON d   1      25.333 -14.760  -2.063  0.00  0.00    -0.340 N 
ATOM     10  H5  NON d   1      24.470 -14.230  -2.095  0.00  0.00     0.167 HD
BRANCH   9  11
ATOM     11  C8  NON d   1      26.455 -13.888  -2.157  0.00  0.00     0.142 A 
ATOM     12  N2  NON d   1      26.910 -13.570  -3.382  0.00  0.00    -0.224 NA
ATOM     13  C9  NON d   1      27.939 -12.728  -3.472  0.00  0.00     0.236 A 
ATOM     14  N3  NON d   1      28.573 -12.169  -2.447  0.00  0.00    -0.241 NA
ATOM     15  C10 NON d   1      28.128 -12.467  -1.235  0.00  0.00     0.075 A 
ATOM     16  C11 NON d   1      28.802 -11.890  -0.170  0.00  0.00     0.072 A 
ATOM     17  C23 NON d   1      27.038 -13.322  -0.982  0.00  0.00     0.042 A 
ATOM     18  C12 NON d   1      28.452 -12.134   1.159  0.00  0.00     0.103 A 
ATOM     19  C14 NON d   1      27.337 -12.922   1.439  0.00  0.00     0.103 A 
ATOM     20  C22 NON d   1      26.649 -13.532   0.375  0.00  0.00     0.057 A 
BRANCH  18  21
ATOM     21  O1  NON d   1      29.223 -11.486   2.083  0.00  0.00    -0.353 OA
ATOM     22  C13 NON d   1      30.592 -11.337   1.711  0.00  0.00     0.210 C 
ENDBRANCH  18  21
BRANCH  19  23
ATOM     23  O2  NON d   1      26.904 -13.220   2.708  0.00  0.00    -0.348 OA
BRANCH  23  24
ATOM     24  C15 NON d   1      27.692 -14.210   3.374  0.00  0.00     0.176 C 
BRANCH  24  25
ATOM     25  C16 NON d   1      27.392 -14.303   4.880  0.00  0.00     0.027 C 
BRANCH  25  26
ATOM     26  C17 NON d   1      27.801 -13.139   5.790  0.00  0.00     0.002 C 
BRANCH  26  27
ATOM     27  C18 NON d   1      28.544 -12.025   5.047  0.00  0.00     0.001 C 
BRANCH  27  28
ATOM     28  C19 NON d   1      28.240 -10.615   5.577  0.00  0.00     0.009 C 
BRANCH  28  29
ATOM     29  C20 NON d   1      28.419  -9.499   4.543  0.00  0.00     0.105 C 
BRANCH  29  30
ATOM     30  C21 NON d   1      27.204  -9.184   3.684  0.00  0.00     0.240 C 
ATOM     31  O3  NON d   1      26.657  -8.089   3.651  0.00  0.00    -0.271 OA
ATOM     32  N4  NON d   1      26.768 -10.309   3.010  0.00  0.00    -0.237 N 
ATOM     33  H23 NON d   1      27.290 -11.176   2.982  0.00  0.00     0.197 HD
BRANCH  32  34
ATOM     34  O4  NON d   1      25.739 -10.156   2.062  0.00  0.00    -0.287 OA
ATOM     35  H24 NON d   1      25.499  -9.217   2.171  0.00  0.00     0.244 HD
ENDBRANCH  32  34
ENDBRANCH  29  30
ENDBRANCH  28  29
ENDBRANCH  27  28
ENDBRANCH  26  27
ENDBRANCH  25  26
ENDBRANCH  24  25
ENDBRANCH  23  24
ENDBRANCH  19  23
ENDBRANCH   9  11
ENDBRANCH   7   9
TORSDOF 12
ENDMDL
MODEL 7
REMARK VINA RESULT:    -5.925      4.109      7.266
REMARK INTER + INTRA:         -13.343
REMARK INTER:                  -9.504
REMARK INTRA:                  -3.838
REMARK CONF_INDEPENDENT:        3.580
REMARK UNBOUND:                -3.838
REMARK  12 active torsions:
REMARK  status: ('A' for Active; 'I' for Inactive)
REMARK    1  A    between atoms: C7_7  and  N1_8 
REMARK    2  A    between atoms: N1_8  and  C8_9 
REMARK    3  A    between atoms: C12_15  and  O1_16 
REMARK    4  A    between atoms: C14_18  and  O2_19 
REMARK    5  A    between atoms: O2_19  and  C15_20 
REMARK    6  A    between atoms: C15_20  and  C16_21 
REMARK    7  A    between atoms: C16_21  and  C17_22 
REMARK    8  A    between atoms: C17_22  and  C18_23 
REMARK    9  A    between atoms: C18_23  and  C19_24 
REMARK   10  A    between atoms: C19_24  and  C20_25 
REMARK   11  A    between atoms: C20_25  and  C21_26 
REMARK       I    between atoms: C21_26  and  N4_28 
REMARK   12  A    between atoms: N4_28  and  O4_29 
ROOT
ATOM      1  C1  NON d   1      23.840 -17.857  -0.916  0.00  0.00     0.018 C 
ATOM      2  C2  NON d   1      24.880 -17.278  -0.721  0.00  0.00    -0.078 C 
ATOM      3  C3  NON d   1      26.091 -16.547  -0.473  0.00  0.00     0.019 A 
ATOM      4  C4  NON d   1      26.014 -15.196  -0.147  0.00  0.00     0.021 A 
ATOM      5  C5  NON d   1      27.182 -14.499   0.130  0.00  0.00     0.004 A 
ATOM      6  C6  NON d   1      28.421 -15.148   0.064  0.00  0.00     0.029 A 
ATOM      7  C7  NON d   1      28.535 -16.490  -0.324  0.00  0.00     0.035 A 
ATOM      8  C24 NON d   1      27.338 -17.188  -0.555  0.00  0.00     0.050 A 
ENDROOT
BRANCH   7   9
ATOM      9  N1  NON d   1      29.765 -17.208  -0.401  0.00  0.00    -0.340 N 
ATOM     10  H5  NON d   1      29.919 -17.711   0.465  0.00  0.00     0.167 HD
BRANCH   9  11
ATOM     11  C8  NON d   1      30.345 -17.911  -1.494  0.00  0.00     0.142 A 
ATOM     12  N2  NON d   1      31.016 -19.047  -1.233  0.00  0.00    -0.224 NA
ATOM     13  C9  NON d   1      31.530 -19.724  -2.260  0.00  0.00     0.236 A 
ATOM     14  N3  NON d   1      31.449 -19.370  -3.538  0.00  0.00    -0.241 NA
ATOM     15  C10 NON d   1      30.781 -18.258  -3.809  0.00  0.00     0.075 A 
ATOM     16  C11 NON d   1      30.710 -17.890  -5.143  0.00  0.00     0.072 A 
ATOM     17  C23 NON d   1      30.164 -17.450  -2.835  0.00  0.00     0.042 A 
ATOM     18  C12 NON d   1      30.056 -16.732  -5.567  0.00  0.00     0.103 A 
ATOM     19  C14 NON d   1      29.379 -15.947  -4.634  0.00  0.00     0.103 A 
ATOM     20  C22 NON d   1      29.454 -16.292  -3.273  0.00  0.00     0.057 A 
BRANCH  18  21
ATOM     21  O1  NON d   1      30.084 -16.519  -6.917  0.00  0.00    -0.353 OA
ATOM     22  C13 NON d   1      31.204 -15.762  -7.373  0.00  0.00     0.210 C 
ENDBRANCH  18  21
BRANCH  19  23
ATOM     23  O2  NON d   1      28.703 -14.794  -4.944  0.00  0.00    -0.348 OA
BRANCH  23  24
ATOM     24  C15 NON d   1      29.513 -13.793  -5.565  0.00  0.00     0.176 C 
BRANCH  24  25
ATOM     25  C16 NON d   1      28.995 -12.365  -5.323  0.00  0.00     0.027 C 
BRANCH  25  26
ATOM     26  C17 NON d   1      27.529 -12.046  -5.636  0.00  0.00     0.002 C 
BRANCH  26  27
ATOM     27  C18 NON d   1      26.737 -11.586  -4.408  0.00  0.00     0.001 C 
BRANCH  27  28
ATOM     28  C19 NON d   1      26.966 -12.454  -3.161  0.00  0.00     0.009 C 
BRANCH  28  29
ATOM     29  C20 NON d   1      25.765 -13.316  -2.760  0.00  0.00     0.105 C 
BRANCH  29  30
ATOM     30  C21 NON d   1      25.169 -14.182  -3.860  0.00  0.00     0.240 C 
ATOM     31  O3  NON d   1      24.019 -14.073  -4.266  0.00  0.00    -0.271 OA
ATOM     32  N4  NON d   1      26.071 -15.141  -4.280  0.00  0.00    -0.237 N 
ATOM     33  H23 NON d   1      27.043 -15.151  -3.995  0.00  0.00     0.197 HD
BRANCH  32  34
ATOM     34  O4  NON d   1      25.727 -15.933  -5.391  0.00  0.00    -0.287 OA
ATOM     35  H24 NON d   1      24.863 -15.560  -5.647  0.00  0.00     0.244 HD
ENDBRANCH  32  34
ENDBRANCH  29  30
ENDBRANCH  28  29
ENDBRANCH  27  28
ENDBRANCH  26  27
ENDBRANCH  25  26
ENDBRANCH  24  25
ENDBRANCH  23  24
ENDBRANCH  19  23
ENDBRANCH   9  11
ENDBRANCH   7   9
TORSDOF 12
ENDMDL
MODEL 8
REMARK VINA RESULT:    -5.858      3.708      5.437
REMARK INTER + INTRA:         -13.860
REMARK INTER:                  -9.438
REMARK INTRA:                  -4.422
REMARK CONF_INDEPENDENT:        3.580
REMARK UNBOUND:                -4.422
REMARK  12 active torsions:
REMARK  status: ('A' for Active; 'I' for Inactive)
REMARK    1  A    between atoms: C7_7  and  N1_8 
REMARK    2  A    between atoms: N1_8  and  C8_9 
REMARK    3  A    between atoms: C12_15  and  O1_16 
REMARK    4  A    between atoms: C14_18  and  O2_19 
REMARK    5  A    between atoms: O2_19  and  C15_20 
REMARK    6  A    between atoms: C15_20  and  C16_21 
REMARK    7  A    between atoms: C16_21  and  C17_22 
REMARK    8  A    between atoms: C17_22  and  C18_23 
REMARK    9  A    between atoms: C18_23  and  C19_24 
REMARK   10  A    between atoms: C19_24  and  C20_25 
REMARK   11  A    between atoms: C20_25  and  C21_26 
REMARK       I    between atoms: C21_26  and  N4_28 
REMARK   12  A    between atoms: N4_28  and  O4_29 
ROOT
ATOM      1  C1  NON d   1      20.624 -19.047  -0.779  0.00  0.00     0.018 C 
ATOM      2  C2  NON d   1      21.722 -18.558  -0.668  0.00  0.00    -0.078 C 
ATOM      3  C3  NON d   1      23.041 -18.016  -0.504  0.00  0.00     0.019 A 
ATOM      4  C4  NON d   1      23.892 -18.575   0.445  0.00  0.00     0.021 A 
ATOM      5  C5  NON d   1      25.180 -18.075   0.577  0.00  0.00     0.004 A 
ATOM      6  C6  NON d   1      25.608 -17.010  -0.226  0.00  0.00     0.029 A 
ATOM      7  C7  NON d   1      24.753 -16.386  -1.145  0.00  0.00     0.035 A 
ATOM      8  C24 NON d   1      23.469 -16.936  -1.294  0.00  0.00     0.050 A 
ENDROOT
BRANCH   7   9
ATOM      9  N1  NON d   1      25.131 -15.307  -1.996  0.00  0.00    -0.340 N 
ATOM     10  H5  NON d   1      25.278 -14.472  -1.441  0.00  0.00     0.167 HD
BRANCH   9  11
ATOM     11  C8  NON d   1      25.981 -15.300  -3.139  0.00  0.00     0.142 A 
ATOM     12  N2  NON d   1      25.438 -14.993  -4.331  0.00  0.00    -0.224 NA
ATOM     13  C9  NON d   1      26.238 -14.954  -5.395  0.00  0.00     0.236 A 
ATOM     14  N3  NON d   1      27.544 -15.202  -5.391  0.00  0.00    -0.241 NA
ATOM     15  C10 NON d   1      28.092 -15.496  -4.221  0.00  0.00     0.075 A 
ATOM     16  C11 NON d   1      29.452 -15.765  -4.227  0.00  0.00     0.072 A 
ATOM     17  C23 NON d   1      27.381 -15.554  -3.008  0.00  0.00     0.042 A 
ATOM     18  C12 NON d   1      30.153 -16.108  -3.069  0.00  0.00     0.103 A 
ATOM     19  C14 NON d   1      29.489 -16.108  -1.843  0.00  0.00     0.103 A 
ATOM     20  C22 NON d   1      28.107 -15.856  -1.816  0.00  0.00     0.057 A 
BRANCH  18  21
ATOM     21  O1  NON d   1      31.486 -16.343  -3.254  0.00  0.00    -0.353 OA
ATOM     22  C13 NON d   1      31.839 -17.724  -3.325  0.00  0.00     0.210 C 
ENDBRANCH  18  21
BRANCH  19  23
ATOM     23  O2  NON d   1      30.084 -16.426  -0.647  0.00  0.00    -0.348 OA
BRANCH  23  24
ATOM     24  C15 NON d   1      30.678 -15.311   0.022  0.00  0.00     0.176 C 
BRANCH  24  25
ATOM     25  C16 NON d   1      29.855 -14.826   1.229  0.00  0.00     0.027 C 
BRANCH  25  26
ATOM     26  C17 NON d   1      28.325 -14.835   1.134  0.00  0.00     0.002 C 
BRANCH  26  27
ATOM     27  C18 NON d   1      27.676 -13.593   1.751  0.00  0.00     0.001 C 
BRANCH  27  28
ATOM     28  C19 NON d   1      27.893 -12.308   0.936  0.00  0.00     0.009 C 
BRANCH  28  29
ATOM     29  C20 NON d   1      28.384 -12.544  -0.496  0.00  0.00     0.105 C 
BRANCH  29  30
ATOM     30  C21 NON d   1      27.303 -12.680  -1.558  0.00  0.00     0.240 C 
ATOM     31  O3  NON d   1      26.142 -12.986  -1.314  0.00  0.00    -0.271 OA
ATOM     32  N4  NON d   1      27.822 -12.483  -2.823  0.00  0.00    -0.237 N 
ATOM     33  H23 NON d   1      28.761 -12.141  -2.990  0.00  0.00     0.197 HD
BRANCH  32  34
ATOM     34  O4  NON d   1      26.925 -12.434  -3.907  0.00  0.00    -0.287 OA
ATOM     35  H24 NON d   1      26.227 -13.051  -3.622  0.00  0.00     0.244 HD
ENDBRANCH  32  34
ENDBRANCH  29  30
ENDBRANCH  28  29
ENDBRANCH  27  28
ENDBRANCH  26  27
ENDBRANCH  25  26
ENDBRANCH  24  25
ENDBRANCH  23  24
ENDBRANCH  19  23
ENDBRANCH   9  11
ENDBRANCH   7   9
TORSDOF 12
ENDMDL
MODEL 9
REMARK VINA RESULT:    -5.483      3.649      4.409
REMARK INTER + INTRA:         -13.425
REMARK INTER:                  -9.062
REMARK INTRA:                  -4.363
REMARK CONF_INDEPENDENT:        3.580
REMARK UNBOUND:                -4.363
REMARK  12 active torsions:
REMARK  status: ('A' for Active; 'I' for Inactive)
REMARK    1  A    between atoms: C7_7  and  N1_8 
REMARK    2  A    between atoms: N1_8  and  C8_9 
REMARK    3  A    between atoms: C12_15  and  O1_16 
REMARK    4  A    between atoms: C14_18  and  O2_19 
REMARK    5  A    between atoms: O2_19  and  C15_20 
REMARK    6  A    between atoms: C15_20  and  C16_21 
REMARK    7  A    between atoms: C16_21  and  C17_22 
REMARK    8  A    between atoms: C17_22  and  C18_23 
REMARK    9  A    between atoms: C18_23  and  C19_24 
REMARK   10  A    between atoms: C19_24  and  C20_25 
REMARK   11  A    between atoms: C20_25  and  C21_26 
REMARK       I    between atoms: C21_26  and  N4_28 
REMARK   12  A    between atoms: N4_28  and  O4_29 
ROOT
ATOM      1  C1  NON d   1      21.371 -18.902  -0.882  0.00  0.00     0.018 C 
ATOM      2  C2  NON d   1      22.459 -18.389  -0.793  0.00  0.00    -0.078 C 
ATOM      3  C3  NON d   1      23.775 -17.825  -0.669  0.00  0.00     0.019 A 
ATOM      4  C4  NON d   1      24.781 -18.575  -0.068  0.00  0.00     0.021 A 
ATOM      5  C5  NON d   1      26.061 -18.045   0.017  0.00  0.00     0.004 A 
ATOM      6  C6  NON d   1      26.327 -16.764  -0.484  0.00  0.00     0.029 A 
ATOM      7  C7  NON d   1      25.320 -15.962  -1.037  0.00  0.00     0.035 A 
ATOM      8  C24 NON d   1      24.042 -16.535  -1.154  0.00  0.00     0.050 A 
ENDROOT
BRANCH   7   9
ATOM      9  N1  NON d   1      25.529 -14.656  -1.571  0.00  0.00    -0.340 N 
ATOM     10  H5  NON d   1      26.026 -14.088  -0.895  0.00  0.00     0.167 HD
BRANCH   9  11
ATOM     11  C8  NON d   1      25.860 -14.255  -2.897  0.00  0.00     0.142 A 
ATOM     12  N2  NON d   1      25.102 -13.310  -3.481  0.00  0.00    -0.224 NA
ATOM     13  C9  NON d   1      25.431 -12.910  -4.709  0.00  0.00     0.236 A 
ATOM     14  N3  NON d   1      26.451 -13.371  -5.426  0.00  0.00    -0.241 NA
ATOM     15  C10 NON d   1      27.212 -14.294  -4.856  0.00  0.00     0.075 A 
ATOM     16  C11 NON d   1      28.266 -14.778  -5.614  0.00  0.00     0.072 A 
ATOM     17  C23 NON d   1      27.003 -14.800  -3.559  0.00  0.00     0.042 A 
ATOM     18  C12 NON d   1      29.133 -15.767  -5.147  0.00  0.00     0.103 A 
ATOM     19  C14 NON d   1      28.993 -16.239  -3.842  0.00  0.00     0.103 A 
ATOM     20  C22 NON d   1      27.919 -15.775  -3.062  0.00  0.00     0.057 A 
BRANCH  18  21
ATOM     21  O1  NON d   1      30.116 -16.130  -6.024  0.00  0.00    -0.353 OA
ATOM     22  C13 NON d   1      30.303 -15.225  -7.110  0.00  0.00     0.210 C 
ENDBRANCH  18  21
BRANCH  19  23
ATOM     23  O2  NON d   1      29.793 -17.205  -3.283  0.00  0.00    -0.348 OA
BRANCH  23  24
ATOM     24  C15 NON d   1      30.996 -16.699  -2.701  0.00  0.00     0.176 C 
BRANCH  24  25
ATOM     25  C16 NON d   1      31.486 -17.537  -1.507  0.00  0.00     0.027 C 
BRANCH  25  26
ATOM     26  C17 NON d   1      31.321 -16.975  -0.090  0.00  0.00     0.002 C 
BRANCH  26  27
ATOM     27  C18 NON d   1      29.879 -16.576   0.236  0.00  0.00     0.001 C 
BRANCH  27  28
ATOM     28  C19 NON d   1      29.719 -15.101   0.640  0.00  0.00     0.009 C 
BRANCH  28  29
ATOM     29  C20 NON d   1      28.434 -14.794   1.414  0.00  0.00     0.105 C 
BRANCH  29  30
ATOM     30  C21 NON d   1      27.469 -13.825   0.748  0.00  0.00     0.240 C 
ATOM     31  O3  NON d   1      26.357 -13.560   1.187  0.00  0.00    -0.271 OA
ATOM     32  N4  NON d   1      27.987 -13.347  -0.440  0.00  0.00    -0.237 N 
ATOM     33  H23 NON d   1      28.944 -13.508  -0.733  0.00  0.00     0.197 HD
BRANCH  32  34
ATOM     34  O4  NON d   1      27.281 -12.330  -1.110  0.00  0.00    -0.287 OA
ATOM     35  H24 NON d   1      26.480 -12.242  -0.560  0.00  0.00     0.244 HD
ENDBRANCH  32  34
ENDBRANCH  29  30
ENDBRANCH  28  29
ENDBRANCH  27  28
ENDBRANCH  26  27
ENDBRANCH  25  26
ENDBRANCH  24  25
ENDBRANCH  23  24
ENDBRANCH  19  23
ENDBRANCH   9  11
ENDBRANCH   7   9
TORSDOF 12
ENDMDL
