MODEL 1
REMARK VINA RESULT:    -7.949      0.000      0.000
REMARK INTER + INTRA:         -10.563
REMARK INTER:                  -9.440
REMARK INTRA:                  -1.123
REMARK CONF_INDEPENDENT:        1.492
REMARK UNBOUND:                -1.123
REMARK  5 active torsions:
REMARK  status: ('A' for Active; 'I' for Inactive)
REMARK    1  A    between atoms: C1_2  and  C2_3 
REMARK       I    between atoms: C1_2  and  N1_19 
REMARK    2  A    between atoms: C3_4  and  C4_5 
REMARK    3  A    between atoms: C7_8  and  C8_9 
REMARK    4  A    between atoms: C11_12  and  O2_13 
REMARK    5  A    between atoms: N1_19  and  O3_20 
ROOT
ATOM      1  C4  NON d   1      25.449 -16.920  -0.477  0.00  0.00    -0.036 A 
ATOM      2  C5  NON d   1      25.328 -18.279  -0.180  0.00  0.00     0.012 A 
ATOM      3  C6  NON d   1      24.069 -18.899  -0.094  0.00  0.00     0.013 A 
ATOM      4  C7  NON d   1      22.865 -18.199  -0.300  0.00  0.00    -0.026 A 
ATOM      5  C14 NON d   1      23.013 -16.832  -0.597  0.00  0.00     0.013 A 
ATOM      6  C15 NON d   1      24.270 -16.206  -0.686  0.00  0.00     0.012 A 
ENDROOT
BRANCH   4   7
ATOM      7  C8  NON d   1      21.522 -18.863  -0.208  0.00  0.00    -0.024 A 
ATOM      8  C9  NON d   1      20.712 -19.080  -1.345  0.00  0.00     0.015 A 
ATOM      9  C10 NON d   1      19.456 -19.700  -1.269  0.00  0.00     0.039 A 
ATOM     10  C11 NON d   1      18.970 -20.121  -0.045  0.00  0.00     0.087 A 
ATOM     11  C12 NON d   1      19.731 -19.928   1.101  0.00  0.00     0.068 A 
ATOM     12 Cl1  NON d   1      19.140 -20.450   2.636  0.00  0.00    -0.081 Cl
ATOM     13  C13 NON d   1      20.986 -19.310   1.020  0.00  0.00     0.039 A 
BRANCH  10  14
ATOM     14  O2  NON d   1      17.742 -20.719  -0.019  0.00  0.00    -0.359 OA
ATOM     15  H7  NON d   1      17.349 -20.608  -0.906  0.00  0.00     0.217 HD
ENDBRANCH  10  14
ENDBRANCH   4   7
BRANCH   1  16
ATOM     16  C3  NON d   1      26.802 -16.329  -0.553  0.00  0.00     0.017 C 
ATOM     17  C2  NON d   1      27.955 -17.000  -0.398  0.00  0.00     0.077 C 
BRANCH  17  18
ATOM     18  C1  NON d   1      29.342 -16.455  -0.468  0.00  0.00     0.264 C 
ATOM     19  O1  NON d   1      29.488 -15.285  -0.809  0.00  0.00    -0.266 OA
ATOM     20  N1  NON d   1      30.355 -17.315  -0.140  0.00  0.00    -0.234 N 
ATOM     21  H11 NON d   1      30.232 -18.280   0.129  0.00  0.00     0.197 HD
BRANCH  20  22
ATOM     22  O3  NON d   1      31.665 -16.798  -0.204  0.00  0.00    -0.287 OA
ATOM     23  H12 NON d   1      31.538 -15.838  -0.284  0.00  0.00     0.244 HD
ENDBRANCH  20  22
ENDBRANCH  17  18
ENDBRANCH   1  16
TORSDOF 5
ENDMDL
MODEL 2
REMARK VINA RESULT:    -7.675      3.959      8.795
REMARK INTER + INTRA:         -10.286
REMARK INTER:                  -9.166
REMARK INTRA:                  -1.120
REMARK CONF_INDEPENDENT:        1.492
REMARK UNBOUND:                -1.120
REMARK  5 active torsions:
REMARK  status: ('A' for Active; 'I' for Inactive)
REMARK    1  A    between atoms: C1_2  and  C2_3 
REMARK       I    between atoms: C1_2  and  N1_19 
REMARK    2  A    between atoms: C3_4  and  C4_5 
REMARK    3  A    between atoms: C7_8  and  C8_9 
REMARK    4  A    between atoms: C11_12  and  O2_13 
REMARK    5  A    between atoms: N1_19  and  O3_20 
ROOT
ATOM      1  C4  NON d   1      21.983 -18.352  -0.571  0.00  0.00    -0.036 A 
ATOM      2  C5  NON d   1      23.087 -19.130  -0.216  0.00  0.00     0.012 A 
ATOM      3  C6  NON d   1      24.378 -18.577  -0.146  0.00  0.00     0.013 A 
ATOM      4  C7  NON d   1      24.637 -17.222  -0.425  0.00  0.00    -0.026 A 
ATOM      5  C14 NON d   1      23.509 -16.459  -0.780  0.00  0.00     0.013 A 
ATOM      6  C15 NON d   1      22.214 -17.006  -0.851  0.00  0.00     0.012 A 
ENDROOT
BRANCH   4   7
ATOM      7  C8  NON d   1      26.016 -16.633  -0.350  0.00  0.00    -0.024 A 
ATOM      8  C9  NON d   1      27.179 -17.435  -0.401  0.00  0.00     0.015 A 
ATOM      9  C10 NON d   1      28.471 -16.894  -0.332  0.00  0.00     0.039 A 
ATOM     10  C11 NON d   1      28.638 -15.526  -0.210  0.00  0.00     0.087 A 
ATOM     11  C12 NON d   1      27.523 -14.699  -0.156  0.00  0.00     0.068 A 
ATOM     12 Cl1  NON d   1      27.715 -12.990  -0.004  0.00  0.00    -0.081 Cl
ATOM     13  C13 NON d   1      26.235 -15.244  -0.226  0.00  0.00     0.039 A 
BRANCH  10  14
ATOM     14  O2  NON d   1      29.915 -15.044  -0.146  0.00  0.00    -0.359 OA
ATOM     15  H7  NON d   1      30.269 -15.282   0.732  0.00  0.00     0.217 HD
ENDBRANCH  10  14
ENDBRANCH   4   7
BRANCH   1  16
ATOM     16  C3  NON d   1      20.653 -18.994  -0.626  0.00  0.00     0.017 C 
ATOM     17  C2  NON d   1      20.192 -19.910   0.242  0.00  0.00     0.077 C 
BRANCH  17  18
ATOM     18  C1  NON d   1      18.862 -20.585   0.235  0.00  0.00     0.264 C 
ATOM     19  O1  NON d   1      18.149 -20.450  -0.756  0.00  0.00    -0.266 OA
ATOM     20  N1  NON d   1      18.538 -21.312   1.348  0.00  0.00    -0.234 N 
ATOM     21  H11 NON d   1      19.121 -21.410   2.166  0.00  0.00     0.197 HD
BRANCH  20  22
ATOM     22  O3  NON d   1      17.281 -21.950   1.339  0.00  0.00    -0.287 OA
ATOM     23  H12 NON d   1      17.022 -21.951   0.402  0.00  0.00     0.244 HD
ENDBRANCH  20  22
ENDBRANCH  17  18
ENDBRANCH   1  16
TORSDOF 5
ENDMDL
MODEL 3
REMARK VINA RESULT:    -7.606      3.971      8.799
REMARK INTER + INTRA:         -10.223
REMARK INTER:                  -9.097
REMARK INTRA:                  -1.126
REMARK CONF_INDEPENDENT:        1.492
REMARK UNBOUND:                -1.126
REMARK  5 active torsions:
REMARK  status: ('A' for Active; 'I' for Inactive)
REMARK    1  A    between atoms: C1_2  and  C2_3 
REMARK       I    between atoms: C1_2  and  N1_19 
REMARK    2  A    between atoms: C3_4  and  C4_5 
REMARK    3  A    between atoms: C7_8  and  C8_9 
REMARK    4  A    between atoms: C11_12  and  O2_13 
REMARK    5  A    between atoms: N1_19  and  O3_20 
ROOT
ATOM      1  C4  NON d   1      22.022 -18.456  -0.653  0.00  0.00    -0.036 A 
ATOM      2  C5  NON d   1      23.194 -19.209  -0.555  0.00  0.00     0.012 A 
ATOM      3  C6  NON d   1      24.455 -18.591  -0.478  0.00  0.00     0.013 A 
ATOM      4  C7  NON d   1      24.615 -17.193  -0.494  0.00  0.00    -0.026 A 
ATOM      5  C14 NON d   1      23.420 -16.456  -0.593  0.00  0.00     0.013 A 
ATOM      6  C15 NON d   1      22.155 -17.068  -0.670  0.00  0.00     0.012 A 
ENDROOT
BRANCH   4   7
ATOM      7  C8  NON d   1      25.962 -16.536  -0.412  0.00  0.00    -0.024 A 
ATOM      8  C9  NON d   1      26.112 -15.170  -0.081  0.00  0.00     0.015 A 
ATOM      9  C10 NON d   1      27.366 -14.547  -0.001  0.00  0.00     0.039 A 
ATOM     10  C11 NON d   1      28.513 -15.276  -0.252  0.00  0.00     0.087 A 
ATOM     11  C12 NON d   1      28.415 -16.623  -0.580  0.00  0.00     0.068 A 
ATOM     12 Cl1  NON d   1      29.838 -17.548  -0.895  0.00  0.00    -0.081 Cl
ATOM     13  C13 NON d   1      27.160 -17.241  -0.658  0.00  0.00     0.039 A 
BRANCH  10  14
ATOM     14  O2  NON d   1      29.712 -14.628  -0.163  0.00  0.00    -0.359 OA
ATOM     15  H7  NON d   1      30.276 -15.146   0.443  0.00  0.00     0.217 HD
ENDBRANCH  10  14
ENDBRANCH   4   7
BRANCH   1  16
ATOM     16  C3  NON d   1      20.728 -19.166  -0.730  0.00  0.00     0.017 C 
ATOM     17  C2  NON d   1      20.131 -19.813   0.284  0.00  0.00     0.077 C 
BRANCH  17  18
ATOM     18  C1  NON d   1      18.829 -20.540   0.261  0.00  0.00     0.264 C 
ATOM     19  O1  NON d   1      18.133 -20.450  -0.746  0.00  0.00    -0.266 OA
ATOM     20  N1  NON d   1      18.511 -21.262   1.380  0.00  0.00    -0.234 N 
ATOM     21  H11 NON d   1      19.080 -21.324   2.211  0.00  0.00     0.197 HD
BRANCH  20  22
ATOM     22  O3  NON d   1      17.280 -21.950   1.355  0.00  0.00    -0.287 OA
ATOM     23  H12 NON d   1      17.034 -21.963   0.415  0.00  0.00     0.244 HD
ENDBRANCH  20  22
ENDBRANCH  17  18
ENDBRANCH   1  16
TORSDOF 5
ENDMDL
MODEL 4
REMARK VINA RESULT:    -7.499      4.103      8.856
REMARK INTER + INTRA:         -10.115
REMARK INTER:                  -8.990
REMARK INTRA:                  -1.125
REMARK CONF_INDEPENDENT:        1.492
REMARK UNBOUND:                -1.125
REMARK  5 active torsions:
REMARK  status: ('A' for Active; 'I' for Inactive)
REMARK    1  A    between atoms: C1_2  and  C2_3 
REMARK       I    between atoms: C1_2  and  N1_19 
REMARK    2  A    between atoms: C3_4  and  C4_5 
REMARK    3  A    between atoms: C7_8  and  C8_9 
REMARK    4  A    between atoms: C11_12  and  O2_13 
REMARK    5  A    between atoms: N1_19  and  O3_20 
ROOT
ATOM      1  C4  NON d   1      21.958 -18.700  -0.588  0.00  0.00    -0.036 A 
ATOM      2  C5  NON d   1      23.201 -19.317  -0.437  0.00  0.00     0.012 A 
ATOM      3  C6  NON d   1      24.397 -18.581  -0.519  0.00  0.00     0.013 A 
ATOM      4  C7  NON d   1      24.417 -17.195  -0.757  0.00  0.00    -0.026 A 
ATOM      5  C14 NON d   1      23.152 -16.596  -0.906  0.00  0.00     0.013 A 
ATOM      6  C15 NON d   1      21.952 -17.326  -0.824  0.00  0.00     0.012 A 
ENDROOT
BRANCH   4   7
ATOM      7  C8  NON d   1      25.694 -16.410  -0.845  0.00  0.00    -0.024 A 
ATOM      8  C9  NON d   1      26.872 -16.815  -0.177  0.00  0.00     0.015 A 
ATOM      9  C10 NON d   1      28.070 -16.090  -0.255  0.00  0.00     0.039 A 
ATOM     10  C11 NON d   1      28.124 -14.930  -1.006  0.00  0.00     0.087 A 
ATOM     11  C12 NON d   1      26.990 -14.493  -1.680  0.00  0.00     0.068 A 
ATOM     12 Cl1  NON d   1      27.042 -13.048  -2.622  0.00  0.00    -0.081 Cl
ATOM     13  C13 NON d   1      25.796 -15.222  -1.600  0.00  0.00     0.039 A 
BRANCH  10  14
ATOM     14  O2  NON d   1      29.311 -14.256  -1.051  0.00  0.00    -0.359 OA
ATOM     15  H7  NON d   1      29.866 -14.600  -0.325  0.00  0.00     0.217 HD
ENDBRANCH  10  14
ENDBRANCH   4   7
BRANCH   1  16
ATOM     16  C3  NON d   1      20.739 -19.531  -0.490  0.00  0.00     0.017 C 
ATOM     17  C2  NON d   1      20.109 -19.860   0.649  0.00  0.00     0.077 C 
BRANCH  17  18
ATOM     18  C1  NON d   1      18.878 -20.689   0.804  0.00  0.00     0.264 C 
ATOM     19  O1  NON d   1      18.669 -21.216   1.893  0.00  0.00    -0.266 OA
ATOM     20  N1  NON d   1      18.069 -20.794  -0.295  0.00  0.00    -0.234 N 
ATOM     21  H11 NON d   1      18.250 -20.369  -1.191  0.00  0.00     0.197 HD
BRANCH  20  22
ATOM     22  O3  NON d   1      16.905 -21.576  -0.145  0.00  0.00    -0.287 OA
ATOM     23  H12 NON d   1      17.063 -22.084   0.669  0.00  0.00     0.244 HD
ENDBRANCH  20  22
ENDBRANCH  17  18
ENDBRANCH   1  16
TORSDOF 5
ENDMDL
MODEL 5
REMARK VINA RESULT:    -7.454      4.050      8.898
REMARK INTER + INTRA:         -10.068
REMARK INTER:                  -8.945
REMARK INTRA:                  -1.123
REMARK CONF_INDEPENDENT:        1.492
REMARK UNBOUND:                -1.123
REMARK  5 active torsions:
REMARK  status: ('A' for Active; 'I' for Inactive)
REMARK    1  A    between atoms: C1_2  and  C2_3 
REMARK       I    between atoms: C1_2  and  N1_19 
REMARK    2  A    between atoms: C3_4  and  C4_5 
REMARK    3  A    between atoms: C7_8  and  C8_9 
REMARK    4  A    between atoms: C11_12  and  O2_13 
REMARK    5  A    between atoms: N1_19  and  O3_20 
ROOT
ATOM      1  C4  NON d   1      24.063 -17.883  -0.862  0.00  0.00    -0.036 A 
ATOM      2  C5  NON d   1      25.012 -18.572  -0.104  0.00  0.00     0.012 A 
ATOM      3  C6  NON d   1      26.203 -17.953   0.314  0.00  0.00     0.013 A 
ATOM      4  C7  NON d   1      26.511 -16.616   0.002  0.00  0.00    -0.026 A 
ATOM      5  C14 NON d   1      25.539 -15.942  -0.762  0.00  0.00     0.013 A 
ATOM      6  C15 NON d   1      24.345 -16.556  -1.183  0.00  0.00     0.012 A 
ENDROOT
BRANCH   4   7
ATOM      7  C8  NON d   1      27.783 -15.956   0.449  0.00  0.00    -0.024 A 
ATOM      8  C9  NON d   1      29.018 -16.189  -0.197  0.00  0.00     0.015 A 
ATOM      9  C10 NON d   1      30.210 -15.576   0.214  0.00  0.00     0.039 A 
ATOM     10  C11 NON d   1      30.203 -14.708   1.290  0.00  0.00     0.087 A 
ATOM     11  C12 NON d   1      29.012 -14.449   1.957  0.00  0.00     0.068 A 
ATOM     12 Cl1  NON d   1      28.985 -13.367   3.302  0.00  0.00    -0.081 Cl
ATOM     13  C13 NON d   1      27.822 -15.063   1.542  0.00  0.00     0.039 A 
BRANCH  10  14
ATOM     14  O2  NON d   1      31.388 -14.136   1.655  0.00  0.00    -0.359 OA
ATOM     15  H7  NON d   1      31.686 -14.584   2.470  0.00  0.00     0.217 HD
ENDBRANCH  10  14
ENDBRANCH   4   7
BRANCH   1  16
ATOM     16  C3  NON d   1      22.832 -18.592  -1.270  0.00  0.00     0.017 C 
ATOM     17  C2  NON d   1      21.678 -18.609  -0.584  0.00  0.00     0.077 C 
BRANCH  17  18
ATOM     18  C1  NON d   1      20.409 -19.302  -0.951  0.00  0.00     0.264 C 
ATOM     19  O1  NON d   1      20.280 -19.700  -2.106  0.00  0.00    -0.266 OA
ATOM     20  N1  NON d   1      19.478 -19.443   0.042  0.00  0.00    -0.234 N 
ATOM     21  H11 NON d   1      19.583 -19.104   0.987  0.00  0.00     0.197 HD
BRANCH  20  22
ATOM     22  O3  NON d   1      18.281 -20.101  -0.307  0.00  0.00    -0.287 OA
ATOM     23  H12 NON d   1      18.283 -20.099  -1.279  0.00  0.00     0.244 HD
ENDBRANCH  20  22
ENDBRANCH  17  18
ENDBRANCH   1  16
TORSDOF 5
ENDMDL
MODEL 6
REMARK VINA RESULT:    -7.331      3.943      8.909
REMARK INTER + INTRA:          -9.961
REMARK INTER:                  -8.822
REMARK INTRA:                  -1.139
REMARK CONF_INDEPENDENT:        1.492
REMARK UNBOUND:                -1.139
REMARK  5 active torsions:
REMARK  status: ('A' for Active; 'I' for Inactive)
REMARK    1  A    between atoms: C1_2  and  C2_3 
REMARK       I    between atoms: C1_2  and  N1_19 
REMARK    2  A    between atoms: C3_4  and  C4_5 
REMARK    3  A    between atoms: C7_8  and  C8_9 
REMARK    4  A    between atoms: C11_12  and  O2_13 
REMARK    5  A    between atoms: N1_19  and  O3_20 
ROOT
ATOM      1  C4  NON d   1      23.237 -17.882  -0.633  0.00  0.00    -0.036 A 
ATOM      2  C5  NON d   1      23.666 -16.667  -1.172  0.00  0.00     0.012 A 
ATOM      3  C6  NON d   1      24.962 -16.179  -0.932  0.00  0.00     0.013 A 
ATOM      4  C7  NON d   1      25.899 -16.873  -0.145  0.00  0.00    -0.026 A 
ATOM      5  C14 NON d   1      25.444 -18.094   0.387  0.00  0.00     0.013 A 
ATOM      6  C15 NON d   1      24.148 -18.589   0.150  0.00  0.00     0.012 A 
ENDROOT
BRANCH   4   7
ATOM      7  C8  NON d   1      27.283 -16.351   0.110  0.00  0.00    -0.024 A 
ATOM      8  C9  NON d   1      28.421 -16.896  -0.526  0.00  0.00     0.015 A 
ATOM      9  C10 NON d   1      29.717 -16.414  -0.295  0.00  0.00     0.039 A 
ATOM     10  C11 NON d   1      29.915 -15.367   0.586  0.00  0.00     0.087 A 
ATOM     11  C12 NON d   1      28.825 -14.799   1.236  0.00  0.00     0.068 A 
ATOM     12 Cl1  NON d   1      29.055 -13.490   2.337  0.00  0.00    -0.081 Cl
ATOM     13  C13 NON d   1      27.532 -15.283   1.000  0.00  0.00     0.039 A 
BRANCH  10  14
ATOM     14  O2  NON d   1      31.195 -14.931   0.781  0.00  0.00    -0.359 OA
ATOM     15  H7  NON d   1      31.469 -15.230   1.669  0.00  0.00     0.217 HD
ENDBRANCH  10  14
ENDBRANCH   4   7
BRANCH   1  16
ATOM     16  C3  NON d   1      21.861 -18.338  -0.923  0.00  0.00     0.017 C 
ATOM     17  C2  NON d   1      21.208 -19.311  -0.268  0.00  0.00     0.077 C 
BRANCH  17  18
ATOM     18  C1  NON d   1      19.823 -19.807  -0.516  0.00  0.00     0.264 C 
ATOM     19  O1  NON d   1      19.364 -19.700  -1.650  0.00  0.00    -0.266 OA
ATOM     20  N1  NON d   1      19.166 -20.351   0.555  0.00  0.00    -0.234 N 
ATOM     21  H11 NON d   1      19.542 -20.426   1.488  0.00  0.00     0.197 HD
BRANCH  20  22
ATOM     22  O3  NON d   1      17.858 -20.820   0.317  0.00  0.00    -0.287 OA
ATOM     23  H12 NON d   1      17.653 -20.510  -0.582  0.00  0.00     0.244 HD
ENDBRANCH  20  22
ENDBRANCH  17  18
ENDBRANCH   1  16
TORSDOF 5
ENDMDL
MODEL 7
REMARK VINA RESULT:    -6.944      4.222      9.064
REMARK INTER + INTRA:          -9.581
REMARK INTER:                  -8.435
REMARK INTRA:                  -1.145
REMARK CONF_INDEPENDENT:        1.492
REMARK UNBOUND:                -1.145
REMARK  5 active torsions:
REMARK  status: ('A' for Active; 'I' for Inactive)
REMARK    1  A    between atoms: C1_2  and  C2_3 
REMARK       I    between atoms: C1_2  and  N1_19 
REMARK    2  A    between atoms: C3_4  and  C4_5 
REMARK    3  A    between atoms: C7_8  and  C8_9 
REMARK    4  A    between atoms: C11_12  and  O2_13 
REMARK    5  A    between atoms: N1_19  and  O3_20 
ROOT
ATOM      1  C4  NON d   1      23.779 -17.796  -0.367  0.00  0.00    -0.036 A 
ATOM      2  C5  NON d   1      24.969 -18.219   0.227  0.00  0.00     0.012 A 
ATOM      3  C6  NON d   1      26.203 -17.637  -0.115  0.00  0.00     0.013 A 
ATOM      4  C7  NON d   1      26.315 -16.604  -1.064  0.00  0.00    -0.026 A 
ATOM      5  C14 NON d   1      25.102 -16.196  -1.648  0.00  0.00     0.013 A 
ATOM      6  C15 NON d   1      23.864 -16.773  -1.311  0.00  0.00     0.012 A 
ENDROOT
BRANCH   4   7
ATOM      7  C8  NON d   1      27.633 -15.984  -1.427  0.00  0.00    -0.024 A 
ATOM      8  C9  NON d   1      28.562 -15.565  -0.448  0.00  0.00     0.015 A 
ATOM      9  C10 NON d   1      29.795 -14.985  -0.778  0.00  0.00     0.039 A 
ATOM     10  C11 NON d   1      30.138 -14.805  -2.105  0.00  0.00     0.087 A 
ATOM     11  C12 NON d   1      29.256 -15.201  -3.103  0.00  0.00     0.068 A 
ATOM     12 Cl1  NON d   1      29.668 -14.985  -4.765  0.00  0.00    -0.081 Cl
ATOM     13  C13 NON d   1      28.025 -15.781  -2.769  0.00  0.00     0.039 A 
BRANCH  10  14
ATOM     14  O2  NON d   1      31.349 -14.236  -2.379  0.00  0.00    -0.359 OA
ATOM     15  H7  NON d   1      31.709 -13.905  -1.534  0.00  0.00     0.217 HD
ENDBRANCH  10  14
ENDBRANCH   4   7
BRANCH   1  16
ATOM     16  C3  NON d   1      22.515 -18.450   0.036  0.00  0.00     0.017 C 
ATOM     17  C2  NON d   1      21.637 -19.030  -0.798  0.00  0.00     0.077 C 
BRANCH  17  18
ATOM     18  C1  NON d   1      20.354 -19.704  -0.445  0.00  0.00     0.264 C 
ATOM     19  O1  NON d   1      19.449 -19.699  -1.276  0.00  0.00    -0.266 OA
ATOM     20  N1  NON d   1      20.287 -20.286   0.792  0.00  0.00    -0.234 N 
ATOM     21  H11 NON d   1      21.029 -20.278   1.477  0.00  0.00     0.197 HD
BRANCH  20  22
ATOM     22  O3  NON d   1      19.075 -20.925   1.122  0.00  0.00    -0.287 OA
ATOM     23  H12 NON d   1      18.506 -20.770   0.349  0.00  0.00     0.244 HD
ENDBRANCH  20  22
ENDBRANCH  17  18
ENDBRANCH   1  16
TORSDOF 5
ENDMDL
MODEL 8
REMARK VINA RESULT:    -6.883      2.675      3.230
REMARK INTER + INTRA:          -9.495
REMARK INTER:                  -8.374
REMARK INTRA:                  -1.121
REMARK CONF_INDEPENDENT:        1.492
REMARK UNBOUND:                -1.121
REMARK  5 active torsions:
REMARK  status: ('A' for Active; 'I' for Inactive)
REMARK    1  A    between atoms: C1_2  and  C2_3 
REMARK       I    between atoms: C1_2  and  N1_19 
REMARK    2  A    between atoms: C3_4  and  C4_5 
REMARK    3  A    between atoms: C7_8  and  C8_9 
REMARK    4  A    between atoms: C11_12  and  O2_13 
REMARK    5  A    between atoms: N1_19  and  O3_20 
ROOT
ATOM      1  C4  NON d   1      24.319 -16.538  -1.507  0.00  0.00    -0.036 A 
ATOM      2  C5  NON d   1      23.067 -15.967  -1.270  0.00  0.00     0.012 A 
ATOM      3  C6  NON d   1      21.985 -16.742  -0.816  0.00  0.00     0.013 A 
ATOM      4  C7  NON d   1      22.093 -18.124  -0.575  0.00  0.00    -0.026 A 
ATOM      5  C14 NON d   1      23.365 -18.676  -0.821  0.00  0.00     0.013 A 
ATOM      6  C15 NON d   1      24.452 -17.906  -1.274  0.00  0.00     0.012 A 
ENDROOT
BRANCH   4   7
ATOM      7  C8  NON d   1      20.938 -18.950  -0.090  0.00  0.00    -0.024 A 
ATOM      8  C9  NON d   1      19.928 -19.416  -0.963  0.00  0.00     0.015 A 
ATOM      9  C10 NON d   1      18.846 -20.189  -0.520  0.00  0.00     0.039 A 
ATOM     10  C11 NON d   1      18.739 -20.521   0.819  0.00  0.00     0.087 A 
ATOM     11  C12 NON d   1      19.708 -20.085   1.715  0.00  0.00     0.068 A 
ATOM     12 Cl1  NON d   1      19.591 -20.490   3.388  0.00  0.00    -0.081 Cl
ATOM     13  C13 NON d   1      20.789 -19.313   1.267  0.00  0.00     0.039 A 
BRANCH  10  14
ATOM     14  O2  NON d   1      17.668 -21.274   1.205  0.00  0.00    -0.359 OA
ATOM     15  H7  NON d   1      17.368 -21.772   0.421  0.00  0.00     0.217 HD
ENDBRANCH  10  14
ENDBRANCH   4   7
BRANCH   1  16
ATOM     16  C3  NON d   1      25.415 -15.667  -1.984  0.00  0.00     0.017 C 
ATOM     17  C2  NON d   1      25.506 -15.129  -3.211  0.00  0.00     0.077 C 
BRANCH  17  18
ATOM     18  C1  NON d   1      26.584 -14.244  -3.740  0.00  0.00     0.264 C 
ATOM     19  O1  NON d   1      27.744 -14.641  -3.675  0.00  0.00    -0.266 OA
ATOM     20  N1  NON d   1      26.188 -13.044  -4.267  0.00  0.00    -0.234 N 
ATOM     21  H11 NON d   1      25.234 -12.716  -4.308  0.00  0.00     0.197 HD
BRANCH  20  22
ATOM     22  O3  NON d   1      27.208 -12.210  -4.769  0.00  0.00    -0.287 OA
ATOM     23  H12 NON d   1      28.027 -12.599  -4.418  0.00  0.00     0.244 HD
ENDBRANCH  20  22
ENDBRANCH  17  18
ENDBRANCH   1  16
TORSDOF 5
ENDMDL
MODEL 9
REMARK VINA RESULT:    -5.620      6.426      7.872
REMARK INTER + INTRA:          -8.265
REMARK INTER:                  -7.112
REMARK INTRA:                  -1.153
REMARK CONF_INDEPENDENT:        1.492
REMARK UNBOUND:                -1.153
REMARK  5 active torsions:
REMARK  status: ('A' for Active; 'I' for Inactive)
REMARK    1  A    between atoms: C1_2  and  C2_3 
REMARK       I    between atoms: C1_2  and  N1_19 
REMARK    2  A    between atoms: C3_4  and  C4_5 
REMARK    3  A    between atoms: C7_8  and  C8_9 
REMARK    4  A    between atoms: C11_12  and  O2_13 
REMARK    5  A    between atoms: N1_19  and  O3_20 
ROOT
ATOM      1  C4  NON d   1      27.719 -13.537   3.203  0.00  0.00    -0.036 A 
ATOM      2  C5  NON d   1      27.013 -12.537   2.532  0.00  0.00     0.012 A 
ATOM      3  C6  NON d   1      26.556 -12.723   1.215  0.00  0.00     0.013 A 
ATOM      4  C7  NON d   1      26.779 -13.913   0.498  0.00  0.00    -0.026 A 
ATOM      5  C14 NON d   1      27.493 -14.905   1.195  0.00  0.00     0.013 A 
ATOM      6  C15 NON d   1      27.952 -14.726   2.513  0.00  0.00     0.012 A 
ENDROOT
BRANCH   4   7
ATOM      7  C8  NON d   1      26.291 -14.110  -0.908  0.00  0.00    -0.024 A 
ATOM      8  C9  NON d   1      25.783 -15.349  -1.361  0.00  0.00     0.015 A 
ATOM      9  C10 NON d   1      25.324 -15.542  -2.671  0.00  0.00     0.039 A 
ATOM     10  C11 NON d   1      25.362 -14.496  -3.575  0.00  0.00     0.087 A 
ATOM     11  C12 NON d   1      25.853 -13.259  -3.175  0.00  0.00     0.068 A 
ATOM     12 Cl1  NON d   1      25.905 -11.942  -4.289  0.00  0.00    -0.081 Cl
ATOM     13  C13 NON d   1      26.310 -13.070  -1.864  0.00  0.00     0.039 A 
BRANCH  10  14
ATOM     14  O2  NON d   1      24.905 -14.730  -4.840  0.00  0.00    -0.359 OA
ATOM     15  H7  NON d   1      24.204 -14.075  -5.020  0.00  0.00     0.217 HD
ENDBRANCH  10  14
ENDBRANCH   4   7
BRANCH   1  16
ATOM     16  C3  NON d   1      28.171 -13.278   4.586  0.00  0.00     0.017 C 
ATOM     17  C2  NON d   1      28.913 -14.112   5.333  0.00  0.00     0.077 C 
BRANCH  17  18
ATOM     18  C1  NON d   1      29.399 -13.899   6.728  0.00  0.00     0.264 C 
ATOM     19  O1  NON d   1      28.571 -13.904   7.636  0.00  0.00    -0.266 OA
ATOM     20  N1  NON d   1      30.745 -13.715   6.886  0.00  0.00    -0.234 N 
ATOM     21  H11 NON d   1      31.420 -13.699   6.136  0.00  0.00     0.197 HD
BRANCH  20  22
ATOM     22  O3  NON d   1      31.202 -13.516   8.206  0.00  0.00    -0.287 OA
ATOM     23  H12 NON d   1      30.405 -13.625   8.752  0.00  0.00     0.244 HD
ENDBRANCH  20  22
ENDBRANCH  17  18
ENDBRANCH   1  16
TORSDOF 5
ENDMDL
