MODEL 1
REMARK VINA RESULT:    -8.807      0.000      0.000
REMARK INTER + INTRA:         -10.526
REMARK INTER:                 -10.000
REMARK INTRA:                  -0.526
REMARK CONF_INDEPENDENT:        1.193
REMARK UNBOUND:                -0.526
REMARK  4 active torsions:
REMARK  status: ('A' for Active; 'I' for Inactive)
REMARK       I    between atoms: C1_2  and  N1_3 
REMARK    1  A    between atoms: C1_2  and  C2_5 
REMARK    2  A    between atoms: N1_3  and  O2_4 
REMARK    3  A    between atoms: C5_8  and  C6_9 
REMARK       I    between atoms: C6_9  and  N2_11 
REMARK    4  A    between atoms: N2_11  and  C7_12 
ROOT
ATOM      1  C2  NON d   1      26.163 -16.733  -0.425  0.00  0.00     0.034 A 
ATOM      2  C3  NON d   1      25.952 -17.889   0.342  0.00  0.00     0.018 A 
ATOM      3  C4  NON d   1      24.726 -18.572   0.307  0.00  0.00     0.018 A 
ATOM      4  C5  NON d   1      23.683 -18.109  -0.503  0.00  0.00     0.032 A 
ATOM      5  C13 NON d   1      23.901 -16.950  -1.270  0.00  0.00     0.018 A 
ATOM      6  C14 NON d   1      25.124 -16.267  -1.235  0.00  0.00     0.018 A 
ENDROOT
BRANCH   4   7
ATOM      7  C6  NON d   1      22.333 -18.763  -0.615  0.00  0.00     0.256 C 
ATOM      8  O3  NON d   1      21.895 -18.960  -1.744  0.00  0.00    -0.267 OA
ATOM      9  N2  NON d   1      21.687 -19.094   0.565  0.00  0.00    -0.323 N 
ATOM     10  H5  NON d   1      22.144 -18.884   1.438  0.00  0.00     0.169 HD
BRANCH   9  11
ATOM     11  C7  NON d   1      20.421 -19.711   0.702  0.00  0.00     0.035 A 
ATOM     12  C8  NON d   1      20.011 -20.045   2.000  0.00  0.00     0.029 A 
ATOM     13  C9  NON d   1      18.773 -20.658   2.224  0.00  0.00     0.002 A 
ATOM     14  C10 NON d   1      17.934 -20.943   1.152  0.00  0.00     0.000 A 
ATOM     15  C11 NON d   1      18.332 -20.615  -0.142  0.00  0.00     0.002 A 
ATOM     16  C12 NON d   1      19.570 -20.002  -0.365  0.00  0.00     0.029 A 
ENDBRANCH   9  11
ENDBRANCH   4   7
BRANCH   1  17
ATOM     17  C1  NON d   1      27.495 -16.065  -0.331  0.00  0.00     0.275 C 
ATOM     18  O1  NON d   1      27.655 -14.919  -0.749  0.00  0.00    -0.265 OA
ATOM     19  N1  NON d   1      28.534 -16.765   0.234  0.00  0.00    -0.233 N 
ATOM     20  H1  NON d   1      28.514 -17.705   0.607  0.00  0.00     0.197 HD
BRANCH  19  21
ATOM     21  O2  NON d   1      29.773 -16.088   0.299  0.00  0.00    -0.287 OA
ATOM     22  H2  NON d   1      29.987 -16.145   1.257  0.00  0.00     0.244 HD
ENDBRANCH  19  21
ENDBRANCH   1  17
TORSDOF 4
ENDMDL
MODEL 2
REMARK VINA RESULT:    -8.374      0.818      1.370
REMARK INTER + INTRA:         -10.827
REMARK INTER:                  -9.568
REMARK INTRA:                  -1.259
REMARK CONF_INDEPENDENT:        1.193
REMARK UNBOUND:                -1.259
REMARK  4 active torsions:
REMARK  status: ('A' for Active; 'I' for Inactive)
REMARK       I    between atoms: C1_2  and  N1_3 
REMARK    1  A    between atoms: C1_2  and  C2_5 
REMARK    2  A    between atoms: N1_3  and  O2_4 
REMARK    3  A    between atoms: C5_8  and  C6_9 
REMARK       I    between atoms: C6_9  and  N2_11 
REMARK    4  A    between atoms: N2_11  and  C7_12 
ROOT
ATOM      1  C2  NON d   1      26.372 -17.126  -0.879  0.00  0.00     0.034 A 
ATOM      2  C3  NON d   1      25.431 -16.406  -1.631  0.00  0.00     0.018 A 
ATOM      3  C4  NON d   1      24.057 -16.666  -1.519  0.00  0.00     0.018 A 
ATOM      4  C5  NON d   1      23.594 -17.658  -0.647  0.00  0.00     0.032 A 
ATOM      5  C13 NON d   1      24.542 -18.377   0.105  0.00  0.00     0.018 A 
ATOM      6  C14 NON d   1      25.914 -18.118  -0.006  0.00  0.00     0.018 A 
ENDROOT
BRANCH   4   7
ATOM      7  C6  NON d   1      22.147 -18.017  -0.451  0.00  0.00     0.256 C 
ATOM      8  O3  NON d   1      21.308 -17.238  -0.895  0.00  0.00    -0.267 OA
ATOM      9  N2  NON d   1      21.869 -19.198   0.216  0.00  0.00    -0.323 N 
ATOM     10  H5  NON d   1      22.641 -19.761   0.538  0.00  0.00     0.169 HD
BRANCH   9  11
ATOM     11  C7  NON d   1      20.593 -19.733   0.513  0.00  0.00     0.035 A 
ATOM     12  C8  NON d   1      20.280 -19.926   1.865  0.00  0.00     0.029 A 
ATOM     13  C9  NON d   1      19.040 -20.450   2.245  0.00  0.00     0.002 A 
ATOM     14  C10 NON d   1      18.100 -20.787   1.276  0.00  0.00     0.000 A 
ATOM     15  C11 NON d   1      18.402 -20.599  -0.071  0.00  0.00     0.002 A 
ATOM     16  C12 NON d   1      19.642 -20.075  -0.450  0.00  0.00     0.029 A 
ENDBRANCH   9  11
ENDBRANCH   4   7
BRANCH   1  17
ATOM     17  C1  NON d   1      27.815 -16.789  -1.056  0.00  0.00     0.275 C 
ATOM     18  O1  NON d   1      28.170 -15.973  -1.906  0.00  0.00    -0.265 OA
ATOM     19  N1  NON d   1      28.732 -17.413  -0.245  0.00  0.00    -0.233 N 
ATOM     20  H1  NON d   1      28.552 -18.094   0.481  0.00  0.00     0.197 HD
BRANCH  19  21
ATOM     21  O2  NON d   1      30.084 -17.058  -0.453  0.00  0.00    -0.287 OA
ATOM     22  H2  NON d   1      30.004 -16.292  -1.065  0.00  0.00     0.244 HD
ENDBRANCH  19  21
ENDBRANCH   1  17
TORSDOF 4
ENDMDL
MODEL 3
REMARK VINA RESULT:    -7.027      2.245      8.160
REMARK INTER + INTRA:          -9.417
REMARK INTER:                  -8.220
REMARK INTRA:                  -1.196
REMARK CONF_INDEPENDENT:        1.193
REMARK UNBOUND:                -1.196
REMARK  4 active torsions:
REMARK  status: ('A' for Active; 'I' for Inactive)
REMARK       I    between atoms: C1_2  and  N1_3 
REMARK    1  A    between atoms: C1_2  and  C2_5 
REMARK    2  A    between atoms: N1_3  and  O2_4 
REMARK    3  A    between atoms: C5_8  and  C6_9 
REMARK       I    between atoms: C6_9  and  N2_11 
REMARK    4  A    between atoms: N2_11  and  C7_12 
ROOT
ATOM      1  C2  NON d   1      21.833 -18.615  -0.861  0.00  0.00     0.034 A 
ATOM      2  C3  NON d   1      21.826 -17.212  -0.895  0.00  0.00     0.018 A 
ATOM      3  C4  NON d   1      23.008 -16.473  -0.730  0.00  0.00     0.018 A 
ATOM      4  C5  NON d   1      24.228 -17.129  -0.528  0.00  0.00     0.032 A 
ATOM      5  C13 NON d   1      24.229 -18.536  -0.495  0.00  0.00     0.018 A 
ATOM      6  C14 NON d   1      23.049 -19.274  -0.659  0.00  0.00     0.018 A 
ENDROOT
BRANCH   4   7
ATOM      7  C6  NON d   1      25.550 -16.437  -0.341  0.00  0.00     0.256 C 
ATOM      8  O3  NON d   1      25.529 -15.222  -0.165  0.00  0.00    -0.267 OA
ATOM      9  N2  NON d   1      26.690 -17.222  -0.381  0.00  0.00    -0.323 N 
ATOM     10  H5  NON d   1      26.586 -18.212  -0.533  0.00  0.00     0.169 HD
BRANCH   9  11
ATOM     11  C7  NON d   1      28.030 -16.791  -0.231  0.00  0.00     0.035 A 
ATOM     12  C8  NON d   1      28.257 -15.689   0.605  0.00  0.00     0.029 A 
ATOM     13  C9  NON d   1      29.552 -15.199   0.808  0.00  0.00     0.002 A 
ATOM     14  C10 NON d   1      30.632 -15.807   0.177  0.00  0.00     0.000 A 
ATOM     15  C11 NON d   1      30.417 -16.902  -0.656  0.00  0.00     0.002 A 
ATOM     16  C12 NON d   1      29.123 -17.391  -0.859  0.00  0.00     0.029 A 
ENDBRANCH   9  11
ENDBRANCH   4   7
BRANCH   1  17
ATOM     17  C1  NON d   1      20.534 -19.325  -1.045  0.00  0.00     0.275 C 
ATOM     18  O1  NON d   1      20.280 -19.912  -2.096  0.00  0.00    -0.265 OA
ATOM     19  N1  NON d   1      19.631 -19.306  -0.009  0.00  0.00    -0.233 N 
ATOM     20  H1  NON d   1      19.735 -18.859   0.892  0.00  0.00     0.197 HD
BRANCH  19  21
ATOM     21  O2  NON d   1      18.417 -19.993  -0.233  0.00  0.00    -0.287 OA
ATOM     22  H2  NON d   1      18.312 -19.912  -1.208  0.00  0.00     0.244 HD
ENDBRANCH  19  21
ENDBRANCH   1  17
TORSDOF 4
ENDMDL
MODEL 4
REMARK VINA RESULT:    -7.016      2.245      8.188
REMARK INTER + INTRA:          -9.432
REMARK INTER:                  -8.209
REMARK INTRA:                  -1.222
REMARK CONF_INDEPENDENT:        1.193
REMARK UNBOUND:                -1.222
REMARK  4 active torsions:
REMARK  status: ('A' for Active; 'I' for Inactive)
REMARK       I    between atoms: C1_2  and  N1_3 
REMARK    1  A    between atoms: C1_2  and  C2_5 
REMARK    2  A    between atoms: N1_3  and  O2_4 
REMARK    3  A    between atoms: C5_8  and  C6_9 
REMARK       I    between atoms: C6_9  and  N2_11 
REMARK    4  A    between atoms: N2_11  and  C7_12 
ROOT
ATOM      1  C2  NON d   1      21.820 -18.454  -0.848  0.00  0.00     0.034 A 
ATOM      2  C3  NON d   1      22.975 -19.221  -0.627  0.00  0.00     0.018 A 
ATOM      3  C4  NON d   1      24.229 -18.616  -0.456  0.00  0.00     0.018 A 
ATOM      4  C5  NON d   1      24.353 -17.222  -0.502  0.00  0.00     0.032 A 
ATOM      5  C13 NON d   1      23.193 -16.459  -0.724  0.00  0.00     0.018 A 
ATOM      6  C14 NON d   1      21.940 -17.062  -0.895  0.00  0.00     0.018 A 
ENDROOT
BRANCH   4   7
ATOM      7  C6  NON d   1      25.646 -16.473  -0.331  0.00  0.00     0.256 C 
ATOM      8  O3  NON d   1      25.577 -15.256  -0.186  0.00  0.00    -0.267 OA
ATOM      9  N2  NON d   1      26.817 -17.213  -0.350  0.00  0.00    -0.323 N 
ATOM     10  H5  NON d   1      26.752 -18.210  -0.476  0.00  0.00     0.169 HD
BRANCH   9  11
ATOM     11  C7  NON d   1      28.138 -16.726  -0.210  0.00  0.00     0.035 A 
ATOM     12  C8  NON d   1      29.149 -17.418  -0.890  0.00  0.00     0.029 A 
ATOM     13  C9  NON d   1      30.483 -17.003  -0.805  0.00  0.00     0.002 A 
ATOM     14  C10 NON d   1      30.818 -15.892  -0.038  0.00  0.00     0.000 A 
ATOM     15  C11 NON d   1      29.820 -15.197   0.642  0.00  0.00     0.002 A 
ATOM     16  C12 NON d   1      28.487 -15.613   0.556  0.00  0.00     0.029 A 
ENDBRANCH   9  11
ENDBRANCH   4   7
BRANCH   1  17
ATOM     17  C1  NON d   1      20.525 -19.174  -1.021  0.00  0.00     0.275 C 
ATOM     18  O1  NON d   1      20.280 -19.790  -2.058  0.00  0.00    -0.265 OA
ATOM     19  N1  NON d   1      19.616 -19.132   0.008  0.00  0.00    -0.233 N 
ATOM     20  H1  NON d   1      19.712 -18.660   0.898  0.00  0.00     0.197 HD
BRANCH  19  21
ATOM     21  O2  NON d   1      18.405 -19.830  -0.206  0.00  0.00    -0.287 OA
ATOM     22  H2  NON d   1      18.294 -19.754  -1.180  0.00  0.00     0.244 HD
ENDBRANCH  19  21
ENDBRANCH   1  17
TORSDOF 4
ENDMDL
MODEL 5
REMARK VINA RESULT:    -6.768      2.288      8.192
REMARK INTER + INTRA:          -9.213
REMARK INTER:                  -7.961
REMARK INTRA:                  -1.252
REMARK CONF_INDEPENDENT:        1.193
REMARK UNBOUND:                -1.252
REMARK  4 active torsions:
REMARK  status: ('A' for Active; 'I' for Inactive)
REMARK       I    between atoms: C1_2  and  N1_3 
REMARK    1  A    between atoms: C1_2  and  C2_5 
REMARK    2  A    between atoms: N1_3  and  O2_4 
REMARK    3  A    between atoms: C5_8  and  C6_9 
REMARK       I    between atoms: C6_9  and  N2_11 
REMARK    4  A    between atoms: N2_11  and  C7_12 
ROOT
ATOM      1  C2  NON d   1      21.997 -18.575  -0.810  0.00  0.00     0.034 A 
ATOM      2  C3  NON d   1      22.119 -17.179  -0.890  0.00  0.00     0.018 A 
ATOM      3  C4  NON d   1      23.353 -16.544  -0.683  0.00  0.00     0.018 A 
ATOM      4  C5  NON d   1      24.496 -17.298  -0.392  0.00  0.00     0.032 A 
ATOM      5  C13 NON d   1      24.367 -18.696  -0.314  0.00  0.00     0.018 A 
ATOM      6  C14 NON d   1      23.135 -19.332  -0.520  0.00  0.00     0.018 A 
ENDROOT
BRANCH   4   7
ATOM      7  C6  NON d   1      25.863 -16.719  -0.154  0.00  0.00     0.256 C 
ATOM      8  O3  NON d   1      26.811 -17.499  -0.143  0.00  0.00    -0.267 OA
ATOM      9  N2  NON d   1      25.950 -15.350   0.036  0.00  0.00    -0.323 N 
ATOM     10  H5  NON d   1      25.103 -14.806   0.007  0.00  0.00     0.169 HD
BRANCH   9  11
ATOM     11  C7  NON d   1      27.122 -14.593   0.274  0.00  0.00     0.035 A 
ATOM     12  C8  NON d   1      27.788 -14.811   1.488  0.00  0.00     0.029 A 
ATOM     13  C9  NON d   1      28.953 -14.104   1.803  0.00  0.00     0.002 A 
ATOM     14  C10 NON d   1      29.464 -13.172   0.906  0.00  0.00     0.000 A 
ATOM     15  C11 NON d   1      28.810 -12.947  -0.303  0.00  0.00     0.002 A 
ATOM     16  C12 NON d   1      27.645 -13.654  -0.617  0.00  0.00     0.029 A 
ENDBRANCH   9  11
ENDBRANCH   4   7
BRANCH   1  17
ATOM     17  C1  NON d   1      20.649 -19.173  -1.043  0.00  0.00     0.275 C 
ATOM     18  O1  NON d   1      20.372 -19.700  -2.120  0.00  0.00    -0.265 OA
ATOM     19  N1  NON d   1      19.730 -19.119  -0.023  0.00  0.00    -0.233 N 
ATOM     20  H1  NON d   1      19.850 -18.714   0.895  0.00  0.00     0.197 HD
BRANCH  19  21
ATOM     21  O2  NON d   1      18.470 -19.700  -0.295  0.00  0.00    -0.287 OA
ATOM     22  H2  NON d   1      18.401 -19.594  -1.270  0.00  0.00     0.244 HD
ENDBRANCH  19  21
ENDBRANCH   1  17
TORSDOF 4
ENDMDL
MODEL 6
REMARK VINA RESULT:    -6.586      2.616      8.230
REMARK INTER + INTRA:          -9.017
REMARK INTER:                  -7.780
REMARK INTRA:                  -1.237
REMARK CONF_INDEPENDENT:        1.193
REMARK UNBOUND:                -1.237
REMARK  4 active torsions:
REMARK  status: ('A' for Active; 'I' for Inactive)
REMARK       I    between atoms: C1_2  and  N1_3 
REMARK    1  A    between atoms: C1_2  and  C2_5 
REMARK    2  A    between atoms: N1_3  and  O2_4 
REMARK    3  A    between atoms: C5_8  and  C6_9 
REMARK       I    between atoms: C6_9  and  N2_11 
REMARK    4  A    between atoms: N2_11  and  C7_12 
ROOT
ATOM      1  C2  NON d   1      21.856 -18.739  -0.644  0.00  0.00     0.034 A 
ATOM      2  C3  NON d   1      23.121 -19.325  -0.476  0.00  0.00     0.018 A 
ATOM      3  C4  NON d   1      24.292 -18.553  -0.521  0.00  0.00     0.018 A 
ATOM      4  C5  NON d   1      24.220 -17.172  -0.738  0.00  0.00     0.032 A 
ATOM      5  C13 NON d   1      22.950 -16.591  -0.906  0.00  0.00     0.018 A 
ATOM      6  C14 NON d   1      21.780 -17.361  -0.861  0.00  0.00     0.018 A 
ENDROOT
BRANCH   4   7
ATOM      7  C6  NON d   1      25.410 -16.255  -0.805  0.00  0.00     0.256 C 
ATOM      8  O3  NON d   1      26.311 -16.440   0.008  0.00  0.00    -0.267 OA
ATOM      9  N2  NON d   1      25.399 -15.270  -1.779  0.00  0.00    -0.323 N 
ATOM     10  H5  NON d   1      24.603 -15.211  -2.394  0.00  0.00     0.169 HD
BRANCH   9  11
ATOM     11  C7  NON d   1      26.401 -14.302  -2.027  0.00  0.00     0.035 A 
ATOM     12  C8  NON d   1      26.019 -13.154  -2.735  0.00  0.00     0.029 A 
ATOM     13  C9  NON d   1      26.948 -12.148  -3.022  0.00  0.00     0.002 A 
ATOM     14  C10 NON d   1      28.268 -12.280  -2.604  0.00  0.00     0.000 A 
ATOM     15  C11 NON d   1      28.658 -13.417  -1.900  0.00  0.00     0.002 A 
ATOM     16  C12 NON d   1      27.729 -14.422  -1.613  0.00  0.00     0.029 A 
ENDBRANCH   9  11
ENDBRANCH   4   7
BRANCH   1  17
ATOM     17  C1  NON d   1      20.660 -19.630  -0.582  0.00  0.00     0.275 C 
ATOM     18  O1  NON d   1      19.878 -19.700  -1.530  0.00  0.00    -0.265 OA
ATOM     19  N1  NON d   1      20.457 -20.366   0.561  0.00  0.00    -0.233 N 
ATOM     20  H1  NON d   1      21.031 -20.384   1.393  0.00  0.00     0.197 HD
BRANCH  19  21
ATOM     21  O2  NON d   1      19.310 -21.192   0.569  0.00  0.00    -0.287 OA
ATOM     22  H2  NON d   1      18.800 -20.843  -0.196  0.00  0.00     0.244 HD
ENDBRANCH  19  21
ENDBRANCH   1  17
TORSDOF 4
ENDMDL
MODEL 7
REMARK VINA RESULT:    -5.993      5.331      7.245
REMARK INTER + INTRA:          -8.397
REMARK INTER:                  -7.186
REMARK INTRA:                  -1.210
REMARK CONF_INDEPENDENT:        1.193
REMARK UNBOUND:                -1.210
REMARK  4 active torsions:
REMARK  status: ('A' for Active; 'I' for Inactive)
REMARK       I    between atoms: C1_2  and  N1_3 
REMARK    1  A    between atoms: C1_2  and  C2_5 
REMARK    2  A    between atoms: N1_3  and  O2_4 
REMARK    3  A    between atoms: C5_8  and  C6_9 
REMARK       I    between atoms: C6_9  and  N2_11 
REMARK    4  A    between atoms: N2_11  and  C7_12 
ROOT
ATOM      1  C2  NON d   1      27.973 -12.915  -6.422  0.00  0.00     0.034 A 
ATOM      2  C3  NON d   1      27.036 -12.137  -5.723  0.00  0.00     0.018 A 
ATOM      3  C4  NON d   1      26.190 -12.708  -4.760  0.00  0.00     0.018 A 
ATOM      4  C5  NON d   1      26.265 -14.077  -4.477  0.00  0.00     0.032 A 
ATOM      5  C13 NON d   1      27.206 -14.851  -5.181  0.00  0.00     0.018 A 
ATOM      6  C14 NON d   1      28.051 -14.282  -6.143  0.00  0.00     0.018 A 
ENDROOT
BRANCH   4   7
ATOM      7  C6  NON d   1      25.408 -14.789  -3.467  0.00  0.00     0.256 C 
ATOM      8  O3  NON d   1      24.231 -14.448  -3.387  0.00  0.00    -0.267 OA
ATOM      9  N2  NON d   1      26.011 -15.775  -2.704  0.00  0.00    -0.323 N 
ATOM     10  H5  NON d   1      26.987 -15.971  -2.856  0.00  0.00     0.169 HD
BRANCH   9  11
ATOM     11  C7  NON d   1      25.405 -16.570  -1.701  0.00  0.00     0.035 A 
ATOM     12  C8  NON d   1      26.257 -17.327  -0.885  0.00  0.00     0.029 A 
ATOM     13  C9  NON d   1      25.741 -18.139   0.130  0.00  0.00     0.002 A 
ATOM     14  C10 NON d   1      24.367 -18.203   0.339  0.00  0.00     0.000 A 
ATOM     15  C11 NON d   1      23.512 -17.455  -0.467  0.00  0.00     0.002 A 
ATOM     16  C12 NON d   1      24.029 -16.643  -1.481  0.00  0.00     0.029 A 
ENDBRANCH   9  11
ENDBRANCH   4   7
BRANCH   1  17
ATOM     17  C1  NON d   1      28.835 -12.231  -7.430  0.00  0.00     0.275 C 
ATOM     18  O1  NON d   1      29.176 -11.058  -7.275  0.00  0.00    -0.265 OA
ATOM     19  N1  NON d   1      29.238 -12.945  -8.533  0.00  0.00    -0.233 N 
ATOM     20  H1  NON d   1      29.019 -13.907  -8.759  0.00  0.00     0.197 HD
BRANCH  19  21
ATOM     21  O2  NON d   1      30.053 -12.252  -9.456  0.00  0.00    -0.287 OA
ATOM     22  H2  NON d   1      29.765 -11.321  -9.325  0.00  0.00     0.244 HD
ENDBRANCH  19  21
ENDBRANCH   1  17
TORSDOF 4
ENDMDL
