MODEL 1
REMARK VINA RESULT:   -32.672      0.000      0.000
REMARK INTER + INTRA:         -40.303
REMARK INTER:                 -37.445
REMARK INTRA:                  -2.858
REMARK CONF_INDEPENDENT:        4.773
REMARK UNBOUND:                -2.858
REMARK  16 active torsions:
REMARK  status: ('A' for Active; 'I' for Inactive)
REMARK       I    between atoms: C1_2  and  N1_3 
REMARK    1  A    between atoms: C1_2  and  O3_33 
REMARK    2  A    between atoms: C2_4  and  N1_3 
REMARK    3  A    between atoms: C2_4  and  C3_5 
REMARK    4  A    between atoms: C2_4  and  C14_19 
REMARK    5  A    between atoms: C3_5  and  C4_6 
REMARK    6  A    between atoms: C4_6  and  C5_7 
REMARK    7  A    between atoms: C5_7  and  C6_8 
REMARK    8  A    between atoms: C6_8  and  C7_9 
REMARK    9  A    between atoms: C7_9  and  C8_10 
REMARK   10  A    between atoms: C8_10  and  S1_11 
REMARK   11  A    between atoms: S1_11  and  S2_12 
REMARK   12  A    between atoms: S2_12  and  C9_13 
REMARK       I    between atoms: C14_19  and  N3_21 
REMARK   13  A    between atoms: N3_21  and  C15_22 
REMARK   14  A    between atoms: C16_24  and  C17_25 
REMARK   15  A    between atoms: O3_33  and  C24_34 
REMARK   16  A    between atoms: C24_34  and  C25_35 
ROOT
ATOM      1  C2  NON d   1      28.946 -16.306   0.277  0.00  0.00     0.157 C 
ENDROOT
BRANCH   1   2
ATOM      2  N1  NON d   1      30.155 -15.559   0.778  0.00  0.00    -0.224 NA
ATOM      3  C1  NON d   1      30.506 -14.310   0.303  0.00  0.00     0.339 C 
ATOM      4  O1  NON d   1      30.401 -13.974  -0.867  0.00  0.00    -0.245 OA
ATOM      5  H1  NON d   1      30.200 -15.546   1.790  0.00  0.00     0.133 HD
BRANCH   3   6
ATOM      6  O3  NON d   1      30.716 -13.459   1.353  0.00  0.00    -0.304 OA
BRANCH   6   7
ATOM      7  C24 NON d   1      29.498 -12.928   1.925  0.00  0.00     0.218 C 
BRANCH   7   8
ATOM      8  C25 NON d   1      29.160 -13.375   3.337  0.00  0.00    -0.034 A 
ATOM      9  C26 NON d   1      29.870 -14.454   3.893  0.00  0.00     0.009 A 
ATOM     10  C27 NON d   1      29.569 -14.951   5.166  0.00  0.00     0.001 A 
ATOM     11  C28 NON d   1      28.548 -14.369   5.909  0.00  0.00     0.000 A 
ATOM     12  C29 NON d   1      27.840 -13.288   5.382  0.00  0.00     0.001 A 
ATOM     13  C30 NON d   1      28.141 -12.792   4.104  0.00  0.00     0.009 A 
ENDBRANCH   7   8
ENDBRANCH   6   7
ENDBRANCH   3   6
ENDBRANCH   1   2
BRANCH   1  14
ATOM     14  C3  NON d   1      27.372 -16.385   0.474  0.00  0.00     0.029 C 
BRANCH  14  15
ATOM     15  C4  NON d   1      26.617 -15.083  -0.035  0.00  0.00     0.002 C 
BRANCH  15  16
ATOM     16  C5  NON d   1      26.267 -15.026  -1.549  0.00  0.00     0.000 C 
BRANCH  16  17
ATOM     17  C6  NON d   1      24.820 -15.322  -1.963  0.00  0.00     0.001 C 
BRANCH  17  18
ATOM     18  C7  NON d   1      24.469 -16.813  -2.056  0.00  0.00     0.011 C 
BRANCH  18  19
ATOM     19  C8  NON d   1      25.074 -17.643  -0.932  0.00  0.00     0.086 C 
BRANCH  19  20
ATOM     20  S1  NON d   1      23.828 -18.665  -0.075  0.00  0.00    -0.091 SA
BRANCH  20  21
ATOM     21  S2  NON d   1      22.037 -17.934  -0.769  0.00  0.00    -0.038 SA
BRANCH  21  22
ATOM     22  C9  NON d   1      20.733 -18.980  -0.146  0.00  0.00     0.103 A 
ATOM     23  C10 NON d   1      20.663 -19.465   1.156  0.00  0.00     0.040 A 
ATOM     24  C11 NON d   1      19.577 -20.257   1.532  0.00  0.00     0.004 A 
ATOM     25  C12 NON d   1      18.605 -20.572   0.593  0.00  0.00     0.019 A 
ATOM     26  C13 NON d   1      18.756 -20.074  -0.686  0.00  0.00     0.118 A 
ATOM     27  N2  NON d   1      19.784 -19.284  -1.064  0.00  0.00    -0.253 NA
ENDBRANCH  21  22
ENDBRANCH  20  21
ENDBRANCH  19  20
ENDBRANCH  18  19
ENDBRANCH  17  18
ENDBRANCH  16  17
ENDBRANCH  15  16
ENDBRANCH  14  15
ENDBRANCH   1  14
BRANCH   1  28
ATOM     28  C14 NON d   1      29.310 -16.670  -1.174  0.00  0.00     0.241 C 
ATOM     29  O2  NON d   1      29.920 -17.745  -1.285  0.00  0.00    -0.271 OA
ATOM     30  N3  NON d   1      29.113 -15.826  -2.240  0.00  0.00    -0.304 N 
ATOM     31  H19 NON d   1      28.851 -14.865  -2.071  0.00  0.00     0.171 HD
BRANCH  30  32
ATOM     32  C15 NON d   1      29.480 -16.149  -3.547  0.00  0.00     0.173 C 
ATOM     33  N4  NON d   1      29.937 -17.324  -3.942  0.00  0.00    -0.223 NA
ATOM     34  C16 NON d   1      30.163 -17.315  -5.335  0.00  0.00     0.076 C 
ATOM     35  C23 NON d   1      29.892 -16.102  -5.938  0.00  0.00     0.085 C 
ATOM     36  S3  NON d   1      29.441 -14.953  -4.780  0.00  0.00    -0.061 SA
BRANCH  34  37
ATOM     37  C17 NON d   1      30.658 -18.473  -6.096  0.00  0.00    -0.007 A 
ATOM     38  C18 NON d   1      31.054 -18.334  -7.434  0.00  0.00     0.014 A 
ATOM     39  C19 NON d   1      31.502 -19.443  -8.166  0.00  0.00     0.001 A 
ATOM     40  C20 NON d   1      31.562 -20.707  -7.577  0.00  0.00     0.000 A 
ATOM     41  C21 NON d   1      31.180 -20.865  -6.251  0.00  0.00     0.001 A 
ATOM     42  C22 NON d   1      30.734 -19.758  -5.522  0.00  0.00     0.014 A 
ENDBRANCH  34  37
ENDBRANCH  30  32
ENDBRANCH   1  28
TORSDOF 16
ENDMDL
MODEL 2
REMARK VINA RESULT:   -32.582      2.028      7.757
REMARK INTER + INTRA:         -39.955
REMARK INTER:                 -37.355
REMARK INTRA:                  -2.600
REMARK CONF_INDEPENDENT:        4.773
REMARK UNBOUND:                -2.600
REMARK  16 active torsions:
REMARK  status: ('A' for Active; 'I' for Inactive)
REMARK       I    between atoms: C1_2  and  N1_3 
REMARK    1  A    between atoms: C1_2  and  O3_33 
REMARK    2  A    between atoms: C2_4  and  N1_3 
REMARK    3  A    between atoms: C2_4  and  C3_5 
REMARK    4  A    between atoms: C2_4  and  C14_19 
REMARK    5  A    between atoms: C3_5  and  C4_6 
REMARK    6  A    between atoms: C4_6  and  C5_7 
REMARK    7  A    between atoms: C5_7  and  C6_8 
REMARK    8  A    between atoms: C6_8  and  C7_9 
REMARK    9  A    between atoms: C7_9  and  C8_10 
REMARK   10  A    between atoms: C8_10  and  S1_11 
REMARK   11  A    between atoms: S1_11  and  S2_12 
REMARK   12  A    between atoms: S2_12  and  C9_13 
REMARK       I    between atoms: C14_19  and  N3_21 
REMARK   13  A    between atoms: N3_21  and  C15_22 
REMARK   14  A    between atoms: C16_24  and  C17_25 
REMARK   15  A    between atoms: O3_33  and  C24_34 
REMARK   16  A    between atoms: C24_34  and  C25_35 
ROOT
ATOM      1  C2  NON d   1      27.849 -13.652  -3.874  0.00  0.00     0.157 C 
ENDROOT
BRANCH   1   2
ATOM      2  N1  NON d   1      28.811 -14.643  -4.478  0.00  0.00    -0.224 NA
ATOM      3  C1  NON d   1      28.609 -15.208  -5.722  0.00  0.00     0.339 C 
ATOM      4  O1  NON d   1      27.515 -15.546  -6.147  0.00  0.00    -0.245 OA
ATOM      5  H1  NON d   1      29.771 -14.324  -4.418  0.00  0.00     0.133 HD
BRANCH   3   6
ATOM      6  O3  NON d   1      29.742 -15.077  -6.478  0.00  0.00    -0.304 OA
BRANCH   6   7
ATOM      7  C24 NON d   1      30.893 -15.757  -5.924  0.00  0.00     0.218 C 
BRANCH   7   8
ATOM      8  C25 NON d   1      30.814 -17.272  -5.846  0.00  0.00    -0.034 A 
ATOM      9  C26 NON d   1      30.819 -17.885  -4.580  0.00  0.00     0.009 A 
ATOM     10  C27 NON d   1      30.805 -19.277  -4.440  0.00  0.00     0.001 A 
ATOM     11  C28 NON d   1      30.783 -20.083  -5.573  0.00  0.00     0.000 A 
ATOM     12  C29 NON d   1      30.763 -19.496  -6.838  0.00  0.00     0.001 A 
ATOM     13  C30 NON d   1      30.780 -18.099  -6.977  0.00  0.00     0.009 A 
ENDBRANCH   7   8
ENDBRANCH   6   7
ENDBRANCH   3   6
ENDBRANCH   1   2
BRANCH   1  14
ATOM     14  C3  NON d   1      26.332 -13.189  -3.964  0.00  0.00     0.029 C 
BRANCH  14  15
ATOM     15  C4  NON d   1      25.319 -14.263  -3.376  0.00  0.00     0.002 C 
BRANCH  15  16
ATOM     16  C5  NON d   1      25.930 -15.395  -2.502  0.00  0.00     0.000 C 
BRANCH  16  17
ATOM     17  C6  NON d   1      25.624 -15.385  -0.999  0.00  0.00     0.001 C 
BRANCH  17  18
ATOM     18  C7  NON d   1      24.611 -16.443  -0.541  0.00  0.00     0.011 C 
BRANCH  18  19
ATOM     19  C8  NON d   1      25.124 -17.869  -0.687  0.00  0.00     0.086 C 
BRANCH  19  20
ATOM     20  S1  NON d   1      23.792 -19.106  -0.514  0.00  0.00    -0.091 SA
BRANCH  20  21
ATOM     21  S2  NON d   1      22.075 -17.978  -0.514  0.00  0.00    -0.038 SA
BRANCH  21  22
ATOM     22  C9  NON d   1      20.735 -19.008   0.058  0.00  0.00     0.103 A 
ATOM     23  C10 NON d   1      20.611 -19.495   1.355  0.00  0.00     0.040 A 
ATOM     24  C11 NON d   1      19.502 -20.274   1.688  0.00  0.00     0.004 A 
ATOM     25  C12 NON d   1      18.561 -20.573   0.714  0.00  0.00     0.019 A 
ATOM     26  C13 NON d   1      18.765 -20.073  -0.557  0.00  0.00     0.118 A 
ATOM     27  N2  NON d   1      19.816 -19.296  -0.895  0.00  0.00    -0.253 NA
ENDBRANCH  21  22
ENDBRANCH  20  21
ENDBRANCH  19  20
ENDBRANCH  18  19
ENDBRANCH  17  18
ENDBRANCH  16  17
ENDBRANCH  15  16
ENDBRANCH  14  15
ENDBRANCH   1  14
BRANCH   1  28
ATOM     28  C14 NON d   1      28.371 -13.456  -2.439  0.00  0.00     0.241 C 
ATOM     29  O2  NON d   1      28.307 -12.283  -2.037  0.00  0.00    -0.271 OA
ATOM     30  N3  NON d   1      28.987 -14.447  -1.713  0.00  0.00    -0.304 N 
ATOM     31  H19 NON d   1      29.247 -15.310  -2.171  0.00  0.00     0.171 HD
BRANCH  30  32
ATOM     32  C15 NON d   1      29.491 -14.250  -0.428  0.00  0.00     0.173 C 
ATOM     33  N4  NON d   1      28.783 -14.308   0.686  0.00  0.00    -0.223 NA
ATOM     34  C16 NON d   1      29.619 -14.105   1.805  0.00  0.00     0.076 C 
ATOM     35  C23 NON d   1      30.941 -13.869   1.481  0.00  0.00     0.085 C 
ATOM     36  S3  NON d   1      31.137 -13.811  -0.200  0.00  0.00    -0.061 SA
BRANCH  34  37
ATOM     37  C17 NON d   1      29.148 -14.124   3.199  0.00  0.00    -0.007 A 
ATOM     38  C18 NON d   1      27.824 -13.788   3.512  0.00  0.00     0.014 A 
ATOM     39  C19 NON d   1      27.381 -13.782   4.843  0.00  0.00     0.001 A 
ATOM     40  C20 NON d   1      28.253 -14.110   5.883  0.00  0.00     0.000 A 
ATOM     41  C21 NON d   1      29.569 -14.452   5.594  0.00  0.00     0.001 A 
ATOM     42  C22 NON d   1      30.007 -14.458   4.266  0.00  0.00     0.014 A 
ENDBRANCH  34  37
ENDBRANCH  30  32
ENDBRANCH   1  28
TORSDOF 16
ENDMDL
MODEL 3
REMARK VINA RESULT:   -32.508      4.477      8.283
REMARK INTER + INTRA:         -40.431
REMARK INTER:                 -37.281
REMARK INTRA:                  -3.150
REMARK CONF_INDEPENDENT:        4.773
REMARK UNBOUND:                -3.150
REMARK  16 active torsions:
REMARK  status: ('A' for Active; 'I' for Inactive)
REMARK       I    between atoms: C1_2  and  N1_3 
REMARK    1  A    between atoms: C1_2  and  O3_33 
REMARK    2  A    between atoms: C2_4  and  N1_3 
REMARK    3  A    between atoms: C2_4  and  C3_5 
REMARK    4  A    between atoms: C2_4  and  C14_19 
REMARK    5  A    between atoms: C3_5  and  C4_6 
REMARK    6  A    between atoms: C4_6  and  C5_7 
REMARK    7  A    between atoms: C5_7  and  C6_8 
REMARK    8  A    between atoms: C6_8  and  C7_9 
REMARK    9  A    between atoms: C7_9  and  C8_10 
REMARK   10  A    between atoms: C8_10  and  S1_11 
REMARK   11  A    between atoms: S1_11  and  S2_12 
REMARK   12  A    between atoms: S2_12  and  C9_13 
REMARK       I    between atoms: C14_19  and  N3_21 
REMARK   13  A    between atoms: N3_21  and  C15_22 
REMARK   14  A    between atoms: C16_24  and  C17_25 
REMARK   15  A    between atoms: O3_33  and  C24_34 
REMARK   16  A    between atoms: C24_34  and  C25_35 
ROOT
ATOM      1  C2  NON d   1      26.556 -14.871  -2.919  0.00  0.00     0.157 C 
ENDROOT
BRANCH   1   2
ATOM      2  N1  NON d   1      27.920 -15.055  -3.533  0.00  0.00    -0.224 NA
ATOM      3  C1  NON d   1      28.137 -14.981  -4.895  0.00  0.00     0.339 C 
ATOM      4  O1  NON d   1      27.363 -15.421  -5.732  0.00  0.00    -0.245 OA
ATOM      5  H1  NON d   1      28.626 -14.502  -3.061  0.00  0.00     0.133 HD
BRANCH   3   6
ATOM      6  O3  NON d   1      29.175 -14.128  -5.152  0.00  0.00    -0.304 OA
BRANCH   6   7
ATOM      7  C24 NON d   1      30.472 -14.769  -5.139  0.00  0.00     0.218 C 
BRANCH   7   8
ATOM      8  C25 NON d   1      30.510 -16.232  -5.549  0.00  0.00    -0.034 A 
ATOM      9  C26 NON d   1      30.673 -17.209  -4.551  0.00  0.00     0.009 A 
ATOM     10  C27 NON d   1      30.773 -18.568  -4.867  0.00  0.00     0.001 A 
ATOM     11  C28 NON d   1      30.708 -18.973  -6.196  0.00  0.00     0.000 A 
ATOM     12  C29 NON d   1      30.532 -18.021  -7.201  0.00  0.00     0.001 A 
ATOM     13  C30 NON d   1      30.435 -16.658  -6.882  0.00  0.00     0.009 A 
ENDBRANCH   7   8
ENDBRANCH   6   7
ENDBRANCH   3   6
ENDBRANCH   1   2
BRANCH   1  14
ATOM     14  C3  NON d   1      25.740 -15.203  -1.597  0.00  0.00     0.029 C 
BRANCH  14  15
ATOM     15  C4  NON d   1      26.590 -14.982  -0.272  0.00  0.00     0.002 C 
BRANCH  15  16
ATOM     16  C5  NON d   1      27.779 -15.956  -0.034  0.00  0.00     0.000 C 
BRANCH  16  17
ATOM     17  C6  NON d   1      27.549 -17.448  -0.301  0.00  0.00     0.001 C 
BRANCH  17  18
ATOM     18  C7  NON d   1      26.297 -18.036   0.364  0.00  0.00     0.011 C 
BRANCH  18  19
ATOM     19  C8  NON d   1      25.119 -18.174  -0.591  0.00  0.00     0.086 C 
BRANCH  19  20
ATOM     20  S1  NON d   1      23.531 -17.742   0.199  0.00  0.00    -0.091 SA
BRANCH  20  21
ATOM     21  S2  NON d   1      22.129 -18.236  -1.220  0.00  0.00    -0.038 SA
BRANCH  21  22
ATOM     22  C9  NON d   1      20.766 -19.040  -0.396  0.00  0.00     0.103 A 
ATOM     23  C10 NON d   1      20.742 -19.367   0.956  0.00  0.00     0.040 A 
ATOM     24  C11 NON d   1      19.606 -19.976   1.491  0.00  0.00     0.004 A 
ATOM     25  C12 NON d   1      18.535 -20.271   0.660  0.00  0.00     0.019 A 
ATOM     26  C13 NON d   1      18.642 -19.938  -0.676  0.00  0.00     0.118 A 
ATOM     27  N2  NON d   1      19.721 -19.325  -1.210  0.00  0.00    -0.253 NA
ENDBRANCH  21  22
ENDBRANCH  20  21
ENDBRANCH  19  20
ENDBRANCH  18  19
ENDBRANCH  17  18
ENDBRANCH  16  17
ENDBRANCH  15  16
ENDBRANCH  14  15
ENDBRANCH   1  14
BRANCH   1  28
ATOM     28  C14 NON d   1      26.049 -13.552  -3.528  0.00  0.00     0.241 C 
ATOM     29  O2  NON d   1      24.828 -13.535  -3.748  0.00  0.00    -0.271 OA
ATOM     30  N3  NON d   1      26.880 -12.534  -3.931  0.00  0.00    -0.304 N 
ATOM     31  H19 NON d   1      27.877 -12.692  -3.970  0.00  0.00     0.171 HD
BRANCH  30  32
ATOM     32  C15 NON d   1      26.414 -11.356  -4.517  0.00  0.00     0.173 C 
ATOM     33  N4  NON d   1      25.960 -10.305  -3.859  0.00  0.00    -0.223 NA
ATOM     34  C16 NON d   1      25.617  -9.276  -4.762  0.00  0.00     0.076 C 
ATOM     35  C23 NON d   1      25.803  -9.612  -6.090  0.00  0.00     0.085 C 
ATOM     36  S3  NON d   1      26.316 -11.219  -6.227  0.00  0.00    -0.061 SA
BRANCH  34  37
ATOM     37  C17 NON d   1      25.094  -7.963  -4.355  0.00  0.00    -0.007 A 
ATOM     38  C18 NON d   1      25.587  -7.319  -3.211  0.00  0.00     0.014 A 
ATOM     39  C19 NON d   1      25.070  -6.079  -2.809  0.00  0.00     0.001 A 
ATOM     40  C20 NON d   1      24.054  -5.462  -3.540  0.00  0.00     0.000 A 
ATOM     41  C21 NON d   1      23.555  -6.079  -4.680  0.00  0.00     0.001 A 
ATOM     42  C22 NON d   1      24.072  -7.316  -5.080  0.00  0.00     0.014 A 
ENDBRANCH  34  37
ENDBRANCH  30  32
ENDBRANCH   1  28
TORSDOF 16
ENDMDL
MODEL 4
REMARK VINA RESULT:   -32.453      3.471      6.252
REMARK INTER + INTRA:         -40.373
REMARK INTER:                 -37.226
REMARK INTRA:                  -3.147
REMARK CONF_INDEPENDENT:        4.773
REMARK UNBOUND:                -3.147
REMARK  16 active torsions:
REMARK  status: ('A' for Active; 'I' for Inactive)
REMARK       I    between atoms: C1_2  and  N1_3 
REMARK    1  A    between atoms: C1_2  and  O3_33 
REMARK    2  A    between atoms: C2_4  and  N1_3 
REMARK    3  A    between atoms: C2_4  and  C3_5 
REMARK    4  A    between atoms: C2_4  and  C14_19 
REMARK    5  A    between atoms: C3_5  and  C4_6 
REMARK    6  A    between atoms: C4_6  and  C5_7 
REMARK    7  A    between atoms: C5_7  and  C6_8 
REMARK    8  A    between atoms: C6_8  and  C7_9 
REMARK    9  A    between atoms: C7_9  and  C8_10 
REMARK   10  A    between atoms: C8_10  and  S1_11 
REMARK   11  A    between atoms: S1_11  and  S2_12 
REMARK   12  A    between atoms: S2_12  and  C9_13 
REMARK       I    between atoms: C14_19  and  N3_21 
REMARK   13  A    between atoms: N3_21  and  C15_22 
REMARK   14  A    between atoms: C16_24  and  C17_25 
REMARK   15  A    between atoms: O3_33  and  C24_34 
REMARK   16  A    between atoms: C24_34  and  C25_35 
ROOT
ATOM      1  C2  NON d   1      25.508 -15.038  -3.176  0.00  0.00     0.157 C 
ENDROOT
BRANCH   1   2
ATOM      2  N1  NON d   1      24.882 -14.035  -4.112  0.00  0.00    -0.224 NA
ATOM      3  C1  NON d   1      25.257 -12.706  -4.133  0.00  0.00     0.339 C 
ATOM      4  O1  NON d   1      25.532 -12.061  -3.133  0.00  0.00    -0.245 OA
ATOM      5  H1  NON d   1      24.844 -14.378  -5.065  0.00  0.00     0.133 HD
BRANCH   3   6
ATOM      6  O3  NON d   1      25.527 -12.323  -5.419  0.00  0.00    -0.304 OA
BRANCH   6   7
ATOM      7  C24 NON d   1      26.519 -11.275  -5.517  0.00  0.00     0.218 C 
BRANCH   7   8
ATOM      8  C25 NON d   1      26.987 -10.911  -6.917  0.00  0.00    -0.034 A 
ATOM      9  C26 NON d   1      26.312  -9.891  -7.610  0.00  0.00     0.009 A 
ATOM     10  C27 NON d   1      26.656  -9.546  -8.922  0.00  0.00     0.001 A 
ATOM     11  C28 NON d   1      27.689 -10.221  -9.563  0.00  0.00     0.000 A 
ATOM     12  C29 NON d   1      28.381 -11.228  -8.888  0.00  0.00     0.001 A 
ATOM     13  C30 NON d   1      28.033 -11.574  -7.573  0.00  0.00     0.009 A 
ENDBRANCH   7   8
ENDBRANCH   6   7
ENDBRANCH   3   6
ENDBRANCH   1   2
BRANCH   1  14
ATOM     14  C3  NON d   1      25.114 -16.161  -2.124  0.00  0.00     0.029 C 
BRANCH  14  15
ATOM     15  C4  NON d   1      25.305 -15.694  -0.617  0.00  0.00     0.002 C 
BRANCH  15  16
ATOM     16  C5  NON d   1      26.665 -16.039   0.054  0.00  0.00     0.000 C 
BRANCH  16  17
ATOM     17  C6  NON d   1      26.866 -17.467   0.574  0.00  0.00     0.001 C 
BRANCH  17  18
ATOM     18  C7  NON d   1      26.018 -18.535  -0.131  0.00  0.00     0.011 C 
BRANCH  18  19
ATOM     19  C8  NON d   1      24.536 -18.445   0.209  0.00  0.00     0.086 C 
BRANCH  19  20
ATOM     20  S1  NON d   1      23.473 -18.911  -1.200  0.00  0.00    -0.091 SA
BRANCH  20  21
ATOM     21  S2  NON d   1      21.741 -17.854  -0.875  0.00  0.00    -0.038 SA
BRANCH  21  22
ATOM     22  C9  NON d   1      20.546 -18.959  -0.145  0.00  0.00     0.103 A 
ATOM     23  C10 NON d   1      20.603 -19.432   1.162  0.00  0.00     0.040 A 
ATOM     24  C11 NON d   1      19.593 -20.275   1.628  0.00  0.00     0.004 A 
ATOM     25  C12 NON d   1      18.569 -20.651   0.771  0.00  0.00     0.019 A 
ATOM     26  C13 NON d   1      18.594 -20.160  -0.520  0.00  0.00     0.118 A 
ATOM     27  N2  NON d   1      19.546 -19.323  -0.984  0.00  0.00    -0.253 NA
ENDBRANCH  21  22
ENDBRANCH  20  21
ENDBRANCH  19  20
ENDBRANCH  18  19
ENDBRANCH  17  18
ENDBRANCH  16  17
ENDBRANCH  15  16
ENDBRANCH  14  15
ENDBRANCH   1  14
BRANCH   1  28
ATOM     28  C14 NON d   1      26.836 -15.406  -3.862  0.00  0.00     0.241 C 
ATOM     29  O2  NON d   1      27.561 -16.152  -3.185  0.00  0.00    -0.271 OA
ATOM     30  N3  NON d   1      27.256 -14.854  -5.048  0.00  0.00    -0.304 N 
ATOM     31  H19 NON d   1      26.756 -14.065  -5.434  0.00  0.00     0.171 HD
BRANCH  30  32
ATOM     32  C15 NON d   1      28.479 -15.166  -5.644  0.00  0.00     0.173 C 
ATOM     33  N4  NON d   1      29.078 -16.342  -5.584  0.00  0.00    -0.223 NA
ATOM     34  C16 NON d   1      30.272 -16.319  -6.336  0.00  0.00     0.076 C 
ATOM     35  C23 NON d   1      30.543 -15.095  -6.917  0.00  0.00     0.085 C 
ATOM     36  S3  NON d   1      29.376 -13.954  -6.468  0.00  0.00    -0.061 SA
BRANCH  34  37
ATOM     37  C17 NON d   1      31.171 -17.473  -6.489  0.00  0.00    -0.007 A 
ATOM     38  C18 NON d   1      31.654 -18.159  -5.367  0.00  0.00     0.014 A 
ATOM     39  C19 NON d   1      32.530 -19.244  -5.513  0.00  0.00     0.001 A 
ATOM     40  C20 NON d   1      32.939 -19.662  -6.781  0.00  0.00     0.000 A 
ATOM     41  C21 NON d   1      32.467 -19.000  -7.907  0.00  0.00     0.001 A 
ATOM     42  C22 NON d   1      31.593 -17.918  -7.759  0.00  0.00     0.014 A 
ENDBRANCH  34  37
ENDBRANCH  30  32
ENDBRANCH   1  28
TORSDOF 16
ENDMDL
MODEL 5
REMARK VINA RESULT:   -32.190      3.992      9.269
REMARK INTER + INTRA:         -40.476
REMARK INTER:                 -36.962
REMARK INTRA:                  -3.514
REMARK CONF_INDEPENDENT:        4.773
REMARK UNBOUND:                -3.514
REMARK  16 active torsions:
REMARK  status: ('A' for Active; 'I' for Inactive)
REMARK       I    between atoms: C1_2  and  N1_3 
REMARK    1  A    between atoms: C1_2  and  O3_33 
REMARK    2  A    between atoms: C2_4  and  N1_3 
REMARK    3  A    between atoms: C2_4  and  C3_5 
REMARK    4  A    between atoms: C2_4  and  C14_19 
REMARK    5  A    between atoms: C3_5  and  C4_6 
REMARK    6  A    between atoms: C4_6  and  C5_7 
REMARK    7  A    between atoms: C5_7  and  C6_8 
REMARK    8  A    between atoms: C6_8  and  C7_9 
REMARK    9  A    between atoms: C7_9  and  C8_10 
REMARK   10  A    between atoms: C8_10  and  S1_11 
REMARK   11  A    between atoms: S1_11  and  S2_12 
REMARK   12  A    between atoms: S2_12  and  C9_13 
REMARK       I    between atoms: C14_19  and  N3_21 
REMARK   13  A    between atoms: N3_21  and  C15_22 
REMARK   14  A    between atoms: C16_24  and  C17_25 
REMARK   15  A    between atoms: O3_33  and  C24_34 
REMARK   16  A    between atoms: C24_34  and  C25_35 
ROOT
ATOM      1  C2  NON d   1      27.380 -13.888   2.020  0.00  0.00     0.157 C 
ENDROOT
BRANCH   1   2
ATOM      2  N1  NON d   1      26.941 -12.616   1.342  0.00  0.00    -0.224 NA
ATOM      3  C1  NON d   1      27.837 -11.652   0.922  0.00  0.00     0.339 C 
ATOM      4  O1  NON d   1      28.838 -11.336   1.546  0.00  0.00    -0.245 OA
ATOM      5  H1  NON d   1      26.280 -12.793   0.594  0.00  0.00     0.133 HD
BRANCH   3   6
ATOM      6  O3  NON d   1      27.582 -11.320  -0.381  0.00  0.00    -0.304 OA
BRANCH   6   7
ATOM      7  C24 NON d   1      28.275 -12.153  -1.339  0.00  0.00     0.218 C 
BRANCH   7   8
ATOM      8  C25 NON d   1      27.410 -13.048  -2.212  0.00  0.00    -0.034 A 
ATOM      9  C26 NON d   1      26.044 -13.176  -1.904  0.00  0.00     0.009 A 
ATOM     10  C27 NON d   1      25.206 -14.027  -2.633  0.00  0.00     0.001 A 
ATOM     11  C28 NON d   1      25.726 -14.766  -3.690  0.00  0.00     0.000 A 
ATOM     12  C29 NON d   1      27.076 -14.643  -4.021  0.00  0.00     0.001 A 
ATOM     13  C30 NON d   1      27.916 -13.791  -3.288  0.00  0.00     0.009 A 
ENDBRANCH   7   8
ENDBRANCH   6   7
ENDBRANCH   3   6
ENDBRANCH   1   2
BRANCH   1  14
ATOM     14  C3  NON d   1      28.185 -15.227   1.734  0.00  0.00     0.029 C 
BRANCH  14  15
ATOM     15  C4  NON d   1      28.890 -15.235   0.310  0.00  0.00     0.002 C 
BRANCH  15  16
ATOM     16  C5  NON d   1      28.320 -16.226  -0.746  0.00  0.00     0.000 C 
BRANCH  16  17
ATOM     17  C6  NON d   1      27.180 -17.156  -0.314  0.00  0.00     0.001 C 
BRANCH  17  18
ATOM     18  C7  NON d   1      25.774 -16.557  -0.446  0.00  0.00     0.011 C 
BRANCH  18  19
ATOM     19  C8  NON d   1      24.796 -17.474  -1.168  0.00  0.00     0.086 C 
BRANCH  19  20
ATOM     20  S1  NON d   1      23.595 -18.243  -0.027  0.00  0.00    -0.091 SA
BRANCH  20  21
ATOM     21  S2  NON d   1      21.777 -17.876  -0.911  0.00  0.00    -0.038 SA
BRANCH  21  22
ATOM     22  C9  NON d   1      20.568 -18.950  -0.158  0.00  0.00     0.103 A 
ATOM     23  C10 NON d   1      20.648 -19.442   1.141  0.00  0.00     0.040 A 
ATOM     24  C11 NON d   1      19.625 -20.257   1.626  0.00  0.00     0.004 A 
ATOM     25  C12 NON d   1      18.563 -20.587   0.796  0.00  0.00     0.019 A 
ATOM     26  C13 NON d   1      18.566 -20.080  -0.489  0.00  0.00     0.118 A 
ATOM     27  N2  NON d   1      19.532 -19.269  -0.971  0.00  0.00    -0.253 NA
ENDBRANCH  21  22
ENDBRANCH  20  21
ENDBRANCH  19  20
ENDBRANCH  18  19
ENDBRANCH  17  18
ENDBRANCH  16  17
ENDBRANCH  15  16
ENDBRANCH  14  15
ENDBRANCH   1  14
BRANCH   1  28
ATOM     28  C14 NON d   1      27.543 -13.485   3.496  0.00  0.00     0.241 C 
ATOM     29  O2  NON d   1      26.665 -13.944   4.244  0.00  0.00    -0.271 OA
ATOM     30  N3  NON d   1      28.484 -12.585   3.937  0.00  0.00    -0.304 N 
ATOM     31  H19 NON d   1      29.008 -12.044   3.264  0.00  0.00     0.171 HD
BRANCH  30  32
ATOM     32  C15 NON d   1      28.601 -12.197   5.272  0.00  0.00     0.173 C 
ATOM     33  N4  NON d   1      28.493 -13.003   6.313  0.00  0.00    -0.223 NA
ATOM     34  C16 NON d   1      28.713 -12.286   7.509  0.00  0.00     0.076 C 
ATOM     35  C23 NON d   1      28.951 -10.938   7.318  0.00  0.00     0.085 C 
ATOM     36  S3  NON d   1      28.820 -10.541   5.677  0.00  0.00    -0.061 SA
BRANCH  34  37
ATOM     37  C17 NON d   1      28.681 -12.891   8.850  0.00  0.00    -0.007 A 
ATOM     38  C18 NON d   1      29.232 -14.160   9.076  0.00  0.00     0.014 A 
ATOM     39  C19 NON d   1      29.179 -14.747  10.348  0.00  0.00     0.001 A 
ATOM     40  C20 NON d   1      28.575 -14.079  11.415  0.00  0.00     0.000 A 
ATOM     41  C21 NON d   1      28.028 -12.818  11.214  0.00  0.00     0.001 A 
ATOM     42  C22 NON d   1      28.082 -12.234   9.944  0.00  0.00     0.014 A 
ENDBRANCH  34  37
ENDBRANCH  30  32
ENDBRANCH   1  28
TORSDOF 16
ENDMDL
MODEL 6
REMARK VINA RESULT:   -32.144      3.849      8.201
REMARK INTER + INTRA:         -40.125
REMARK INTER:                 -36.916
REMARK INTRA:                  -3.208
REMARK CONF_INDEPENDENT:        4.773
REMARK UNBOUND:                -3.208
REMARK  16 active torsions:
REMARK  status: ('A' for Active; 'I' for Inactive)
REMARK       I    between atoms: C1_2  and  N1_3 
REMARK    1  A    between atoms: C1_2  and  O3_33 
REMARK    2  A    between atoms: C2_4  and  N1_3 
REMARK    3  A    between atoms: C2_4  and  C3_5 
REMARK    4  A    between atoms: C2_4  and  C14_19 
REMARK    5  A    between atoms: C3_5  and  C4_6 
REMARK    6  A    between atoms: C4_6  and  C5_7 
REMARK    7  A    between atoms: C5_7  and  C6_8 
REMARK    8  A    between atoms: C6_8  and  C7_9 
REMARK    9  A    between atoms: C7_9  and  C8_10 
REMARK   10  A    between atoms: C8_10  and  S1_11 
REMARK   11  A    between atoms: S1_11  and  S2_12 
REMARK   12  A    between atoms: S2_12  and  C9_13 
REMARK       I    between atoms: C14_19  and  N3_21 
REMARK   13  A    between atoms: N3_21  and  C15_22 
REMARK   14  A    between atoms: C16_24  and  C17_25 
REMARK   15  A    between atoms: O3_33  and  C24_34 
REMARK   16  A    between atoms: C24_34  and  C25_35 
ROOT
ATOM      1  C2  NON d   1      28.763 -14.848   0.957  0.00  0.00     0.157 C 
ENDROOT
BRANCH   1   2
ATOM      2  N1  NON d   1      30.185 -15.345   1.032  0.00  0.00    -0.224 NA
ATOM      3  C1  NON d   1      31.271 -14.492   1.009  0.00  0.00     0.339 C 
ATOM      4  O1  NON d   1      31.334 -13.489   0.314  0.00  0.00    -0.245 OA
ATOM      5  H1  NON d   1      30.313 -16.015   1.781  0.00  0.00     0.133 HD
BRANCH   3   6
ATOM      6  O3  NON d   1      32.111 -14.786   2.048  0.00  0.00    -0.304 OA
BRANCH   6   7
ATOM      7  C24 NON d   1      32.962 -13.683   2.438  0.00  0.00     0.218 C 
BRANCH   7   8
ATOM      8  C25 NON d   1      32.285 -12.520   3.144  0.00  0.00    -0.034 A 
ATOM      9  C26 NON d   1      33.010 -11.804   4.113  0.00  0.00     0.009 A 
ATOM     10  C27 NON d   1      32.427 -10.759   4.839  0.00  0.00     0.001 A 
ATOM     11  C28 NON d   1      31.101 -10.411   4.602  0.00  0.00     0.000 A 
ATOM     12  C29 NON d   1      30.368 -11.100   3.635  0.00  0.00     0.001 A 
ATOM     13  C30 NON d   1      30.954 -12.149   2.910  0.00  0.00     0.009 A 
ENDBRANCH   7   8
ENDBRANCH   6   7
ENDBRANCH   3   6
ENDBRANCH   1   2
BRANCH   1  14
ATOM     14  C3  NON d   1      27.394 -15.128   0.203  0.00  0.00     0.029 C 
BRANCH  14  15
ATOM     15  C4  NON d   1      27.589 -15.441  -1.343  0.00  0.00     0.002 C 
BRANCH  15  16
ATOM     16  C5  NON d   1      26.621 -14.726  -2.328  0.00  0.00     0.000 C 
BRANCH  16  17
ATOM     17  C6  NON d   1      25.312 -15.437  -2.690  0.00  0.00     0.001 C 
BRANCH  17  18
ATOM     18  C7  NON d   1      24.537 -16.007  -1.495  0.00  0.00     0.011 C 
BRANCH  18  19
ATOM     19  C8  NON d   1      25.128 -17.304  -0.959  0.00  0.00     0.086 C 
BRANCH  19  20
ATOM     20  S1  NON d   1      23.913 -18.279  -0.007  0.00  0.00    -0.091 SA
BRANCH  20  21
ATOM     21  S2  NON d   1      22.178 -18.088  -1.091  0.00  0.00    -0.038 SA
BRANCH  21  22
ATOM     22  C9  NON d   1      20.891 -18.982  -0.238  0.00  0.00     0.103 A 
ATOM     23  C10 NON d   1      20.925 -19.322   1.111  0.00  0.00     0.040 A 
ATOM     24  C11 NON d   1      19.843 -20.003   1.671  0.00  0.00     0.004 A 
ATOM     25  C12 NON d   1      18.769 -20.356   0.867  0.00  0.00     0.019 A 
ATOM     26  C13 NON d   1      18.819 -20.006  -0.468  0.00  0.00     0.118 A 
ATOM     27  N2  NON d   1      19.842 -19.324  -1.025  0.00  0.00    -0.253 NA
ENDBRANCH  21  22
ENDBRANCH  20  21
ENDBRANCH  19  20
ENDBRANCH  18  19
ENDBRANCH  17  18
ENDBRANCH  16  17
ENDBRANCH  15  16
ENDBRANCH  14  15
ENDBRANCH   1  14
BRANCH   1  28
ATOM     28  C14 NON d   1      28.481 -14.318   2.374  0.00  0.00     0.241 C 
ATOM     29  O2  NON d   1      27.577 -13.469   2.422  0.00  0.00    -0.271 OA
ATOM     30  N3  NON d   1      29.246 -14.637   3.470  0.00  0.00    -0.304 N 
ATOM     31  H19 NON d   1      30.121 -15.125   3.341  0.00  0.00     0.171 HD
BRANCH  30  32
ATOM     32  C15 NON d   1      29.005 -14.121   4.744  0.00  0.00     0.173 C 
ATOM     33  N4  NON d   1      29.511 -14.597   5.868  0.00  0.00    -0.223 NA
ATOM     34  C16 NON d   1      29.097 -13.807   6.961  0.00  0.00     0.076 C 
ATOM     35  C23 NON d   1      28.255 -12.768   6.614  0.00  0.00     0.085 C 
ATOM     36  S3  NON d   1      27.908 -12.816   4.958  0.00  0.00    -0.061 SA
BRANCH  34  37
ATOM     37  C17 NON d   1      29.497 -14.056   8.355  0.00  0.00    -0.007 A 
ATOM     38  C18 NON d   1      28.541 -14.098   9.379  0.00  0.00     0.014 A 
ATOM     39  C19 NON d   1      28.925 -14.311  10.710  0.00  0.00     0.001 A 
ATOM     40  C20 NON d   1      30.270 -14.483  11.043  0.00  0.00     0.000 A 
ATOM     41  C21 NON d   1      31.234 -14.451  10.043  0.00  0.00     0.001 A 
ATOM     42  C22 NON d   1      30.848 -14.240   8.715  0.00  0.00     0.014 A 
ENDBRANCH  34  37
ENDBRANCH  30  32
ENDBRANCH   1  28
TORSDOF 16
ENDMDL
MODEL 7
REMARK VINA RESULT:   -31.796      3.432      5.538
REMARK INTER + INTRA:         -40.737
REMARK INTER:                 -36.569
REMARK INTRA:                  -4.169
REMARK CONF_INDEPENDENT:        4.773
REMARK UNBOUND:                -4.169
REMARK  16 active torsions:
REMARK  status: ('A' for Active; 'I' for Inactive)
REMARK       I    between atoms: C1_2  and  N1_3 
REMARK    1  A    between atoms: C1_2  and  O3_33 
REMARK    2  A    between atoms: C2_4  and  N1_3 
REMARK    3  A    between atoms: C2_4  and  C3_5 
REMARK    4  A    between atoms: C2_4  and  C14_19 
REMARK    5  A    between atoms: C3_5  and  C4_6 
REMARK    6  A    between atoms: C4_6  and  C5_7 
REMARK    7  A    between atoms: C5_7  and  C6_8 
REMARK    8  A    between atoms: C6_8  and  C7_9 
REMARK    9  A    between atoms: C7_9  and  C8_10 
REMARK   10  A    between atoms: C8_10  and  S1_11 
REMARK   11  A    between atoms: S1_11  and  S2_12 
REMARK   12  A    between atoms: S2_12  and  C9_13 
REMARK       I    between atoms: C14_19  and  N3_21 
REMARK   13  A    between atoms: N3_21  and  C15_22 
REMARK   14  A    between atoms: C16_24  and  C17_25 
REMARK   15  A    between atoms: O3_33  and  C24_34 
REMARK   16  A    between atoms: C24_34  and  C25_35 
ROOT
ATOM      1  C2  NON d   1      26.492 -13.440  -4.502  0.00  0.00     0.157 C 
ENDROOT
BRANCH   1   2
ATOM      2  N1  NON d   1      27.250 -12.343  -5.204  0.00  0.00    -0.224 NA
ATOM      3  C1  NON d   1      28.584 -12.085  -4.953  0.00  0.00     0.339 C 
ATOM      4  O1  NON d   1      29.091 -12.145  -3.844  0.00  0.00    -0.245 OA
ATOM      5  H1  NON d   1      27.106 -12.365  -6.207  0.00  0.00     0.133 HD
BRANCH   3   6
ATOM      6  O3  NON d   1      29.273 -12.025  -6.134  0.00  0.00    -0.304 OA
BRANCH   6   7
ATOM      7  C24 NON d   1      30.709 -11.997  -5.969  0.00  0.00     0.218 C 
BRANCH   7   8
ATOM      8  C25 NON d   1      31.448 -13.300  -6.222  0.00  0.00    -0.034 A 
ATOM      9  C26 NON d   1      30.965 -14.168  -7.218  0.00  0.00     0.009 A 
ATOM     10  C27 NON d   1      31.565 -15.408  -7.462  0.00  0.00     0.001 A 
ATOM     11  C28 NON d   1      32.667 -15.801  -6.710  0.00  0.00     0.000 A 
ATOM     12  C29 NON d   1      33.171 -14.949  -5.726  0.00  0.00     0.001 A 
ATOM     13  C30 NON d   1      32.566 -13.706  -5.480  0.00  0.00     0.009 A 
ENDBRANCH   7   8
ENDBRANCH   6   7
ENDBRANCH   3   6
ENDBRANCH   1   2
BRANCH   1  14
ATOM     14  C3  NON d   1      25.010 -13.884  -4.142  0.00  0.00     0.029 C 
BRANCH  14  15
ATOM     15  C4  NON d   1      24.951 -14.967  -2.980  0.00  0.00     0.002 C 
BRANCH  15  16
ATOM     16  C5  NON d   1      25.914 -14.754  -1.778  0.00  0.00     0.000 C 
BRANCH  16  17
ATOM     17  C6  NON d   1      26.764 -15.945  -1.320  0.00  0.00     0.001 C 
BRANCH  17  18
ATOM     18  C7  NON d   1      26.007 -17.276  -1.220  0.00  0.00     0.011 C 
BRANCH  18  19
ATOM     19  C8  NON d   1      24.749 -17.189  -0.367  0.00  0.00     0.086 C 
BRANCH  19  20
ATOM     20  S1  NON d   1      23.679 -18.657  -0.557  0.00  0.00    -0.091 SA
BRANCH  20  21
ATOM     21  S2  NON d   1      21.813 -17.861  -0.883  0.00  0.00    -0.038 SA
BRANCH  21  22
ATOM     22  C9  NON d   1      20.609 -18.952  -0.145  0.00  0.00     0.103 A 
ATOM     23  C10 NON d   1      20.654 -19.405   1.169  0.00  0.00     0.040 A 
ATOM     24  C11 NON d   1      19.638 -20.238   1.639  0.00  0.00     0.004 A 
ATOM     25  C12 NON d   1      18.619 -20.624   0.779  0.00  0.00     0.019 A 
ATOM     26  C13 NON d   1      18.656 -20.153  -0.518  0.00  0.00     0.118 A 
ATOM     27  N2  NON d   1      19.615 -19.325  -0.987  0.00  0.00    -0.253 NA
ENDBRANCH  21  22
ENDBRANCH  20  21
ENDBRANCH  19  20
ENDBRANCH  18  19
ENDBRANCH  17  18
ENDBRANCH  16  17
ENDBRANCH  15  16
ENDBRANCH  14  15
ENDBRANCH   1  14
BRANCH   1  28
ATOM     28  C14 NON d   1      27.379 -14.684  -4.691  0.00  0.00     0.241 C 
ATOM     29  O2  NON d   1      26.868 -15.562  -5.404  0.00  0.00    -0.271 OA
ATOM     30  N3  NON d   1      28.564 -14.879  -4.023  0.00  0.00    -0.304 N 
ATOM     31  H19 NON d   1      28.814 -14.261  -3.264  0.00  0.00     0.171 HD
BRANCH  30  32
ATOM     32  C15 NON d   1      29.343 -16.027  -4.172  0.00  0.00     0.173 C 
ATOM     33  N4  NON d   1      29.464 -16.727  -5.286  0.00  0.00    -0.223 NA
ATOM     34  C16 NON d   1      30.365 -17.796  -5.094  0.00  0.00     0.076 C 
ATOM     35  C23 NON d   1      30.873 -17.876  -3.811  0.00  0.00     0.085 C 
ATOM     36  S3  NON d   1      30.175 -16.692  -2.823  0.00  0.00    -0.061 SA
BRANCH  34  37
ATOM     37  C17 NON d   1      30.736 -18.759  -6.143  0.00  0.00    -0.007 A 
ATOM     38  C18 NON d   1      30.796 -18.367  -7.487  0.00  0.00     0.014 A 
ATOM     39  C19 NON d   1      31.125 -19.291  -8.489  0.00  0.00     0.001 A 
ATOM     40  C20 NON d   1      31.399 -20.621  -8.166  0.00  0.00     0.000 A 
ATOM     41  C21 NON d   1      31.351 -21.030  -6.839  0.00  0.00     0.001 A 
ATOM     42  C22 NON d   1      31.024 -20.106  -5.841  0.00  0.00     0.014 A 
ENDBRANCH  34  37
ENDBRANCH  30  32
ENDBRANCH   1  28
TORSDOF 16
ENDMDL
MODEL 8
REMARK VINA RESULT:   -31.386      2.933      4.502
REMARK INTER + INTRA:         -40.058
REMARK INTER:                 -36.159
REMARK INTRA:                  -3.899
REMARK CONF_INDEPENDENT:        4.773
REMARK UNBOUND:                -3.899
REMARK  16 active torsions:
REMARK  status: ('A' for Active; 'I' for Inactive)
REMARK       I    between atoms: C1_2  and  N1_3 
REMARK    1  A    between atoms: C1_2  and  O3_33 
REMARK    2  A    between atoms: C2_4  and  N1_3 
REMARK    3  A    between atoms: C2_4  and  C3_5 
REMARK    4  A    between atoms: C2_4  and  C14_19 
REMARK    5  A    between atoms: C3_5  and  C4_6 
REMARK    6  A    between atoms: C4_6  and  C5_7 
REMARK    7  A    between atoms: C5_7  and  C6_8 
REMARK    8  A    between atoms: C6_8  and  C7_9 
REMARK    9  A    between atoms: C7_9  and  C8_10 
REMARK   10  A    between atoms: C8_10  and  S1_11 
REMARK   11  A    between atoms: S1_11  and  S2_12 
REMARK   12  A    between atoms: S2_12  and  C9_13 
REMARK       I    between atoms: C14_19  and  N3_21 
REMARK   13  A    between atoms: N3_21  and  C15_22 
REMARK   14  A    between atoms: C16_24  and  C17_25 
REMARK   15  A    between atoms: O3_33  and  C24_34 
REMARK   16  A    between atoms: C24_34  and  C25_35 
ROOT
ATOM      1  C2  NON d   1      28.107 -14.379  -3.624  0.00  0.00     0.157 C 
ENDROOT
BRANCH   1   2
ATOM      2  N1  NON d   1      29.149 -14.401  -2.535  0.00  0.00    -0.224 NA
ATOM      3  C1  NON d   1      29.048 -15.220  -1.428  0.00  0.00     0.339 C 
ATOM      4  O1  NON d   1      27.998 -15.458  -0.850  0.00  0.00    -0.245 OA
ATOM      5  H1  NON d   1      30.088 -14.475  -2.910  0.00  0.00     0.133 HD
BRANCH   3   6
ATOM      6  O3  NON d   1      30.217 -15.912  -1.257  0.00  0.00    -0.304 OA
BRANCH   6   7
ATOM      7  C24 NON d   1      30.133 -17.301  -1.654  0.00  0.00     0.218 C 
BRANCH   7   8
ATOM      8  C25 NON d   1      31.444 -17.993  -1.986  0.00  0.00    -0.034 A 
ATOM      9  C26 NON d   1      32.275 -17.430  -2.971  0.00  0.00     0.009 A 
ATOM     10  C27 NON d   1      33.468 -18.047  -3.363  0.00  0.00     0.001 A 
ATOM     11  C28 NON d   1      33.852 -19.244  -2.769  0.00  0.00     0.000 A 
ATOM     12  C29 NON d   1      33.049 -19.813  -1.780  0.00  0.00     0.001 A 
ATOM     13  C30 NON d   1      31.851 -19.194  -1.389  0.00  0.00     0.009 A 
ENDBRANCH   7   8
ENDBRANCH   6   7
ENDBRANCH   3   6
ENDBRANCH   1   2
BRANCH   1  14
ATOM     14  C3  NON d   1      27.029 -13.418  -4.284  0.00  0.00     0.029 C 
BRANCH  14  15
ATOM     15  C4  NON d   1      25.609 -14.109  -4.464  0.00  0.00     0.002 C 
BRANCH  15  16
ATOM     16  C5  NON d   1      24.836 -14.466  -3.162  0.00  0.00     0.000 C 
BRANCH  16  17
ATOM     17  C6  NON d   1      25.411 -15.570  -2.267  0.00  0.00     0.001 C 
BRANCH  17  18
ATOM     18  C7  NON d   1      24.390 -16.247  -1.342  0.00  0.00     0.011 C 
BRANCH  18  19
ATOM     19  C8  NON d   1      24.982 -17.390  -0.528  0.00  0.00     0.086 C 
BRANCH  19  20
ATOM     20  S1  NON d   1      23.799 -18.761  -0.295  0.00  0.00    -0.091 SA
BRANCH  20  21
ATOM     21  S2  NON d   1      21.989 -17.936  -0.811  0.00  0.00    -0.038 SA
BRANCH  21  22
ATOM     22  C9  NON d   1      20.698 -18.942  -0.098  0.00  0.00     0.103 A 
ATOM     23  C10 NON d   1      20.643 -19.325   1.238  0.00  0.00     0.040 A 
ATOM     24  C11 NON d   1      19.567 -20.096   1.683  0.00  0.00     0.004 A 
ATOM     25  C12 NON d   1      18.591 -20.490   0.779  0.00  0.00     0.019 A 
ATOM     26  C13 NON d   1      18.728 -20.091  -0.536  0.00  0.00     0.118 A 
ATOM     27  N2  NON d   1      19.746 -19.324  -0.983  0.00  0.00    -0.253 NA
ENDBRANCH  21  22
ENDBRANCH  20  21
ENDBRANCH  19  20
ENDBRANCH  18  19
ENDBRANCH  17  18
ENDBRANCH  16  17
ENDBRANCH  15  16
ENDBRANCH  14  15
ENDBRANCH   1  14
BRANCH   1  28
ATOM     28  C14 NON d   1      28.654 -15.356  -4.681  0.00  0.00     0.241 C 
ATOM     29  O2  NON d   1      27.946 -15.447  -5.696  0.00  0.00    -0.271 OA
ATOM     30  N3  NON d   1      29.745 -16.165  -4.473  0.00  0.00    -0.304 N 
ATOM     31  H19 NON d   1      30.136 -16.244  -3.545  0.00  0.00     0.171 HD
BRANCH  30  32
ATOM     32  C15 NON d   1      30.212 -17.074  -5.423  0.00  0.00     0.173 C 
ATOM     33  N4  NON d   1      30.543 -18.329  -5.180  0.00  0.00    -0.223 NA
ATOM     34  C16 NON d   1      30.928 -18.972  -6.375  0.00  0.00     0.076 C 
ATOM     35  C23 NON d   1      30.898 -18.152  -7.487  0.00  0.00     0.085 C 
ATOM     36  S3  NON d   1      30.481 -16.572  -7.044  0.00  0.00    -0.061 SA
BRANCH  34  37
ATOM     37  C17 NON d   1      31.341 -20.382  -6.456  0.00  0.00    -0.007 A 
ATOM     38  C18 NON d   1      31.583 -20.988  -7.697  0.00  0.00     0.014 A 
ATOM     39  C19 NON d   1      31.953 -22.338  -7.774  0.00  0.00     0.001 A 
ATOM     40  C20 NON d   1      32.086 -23.106  -6.616  0.00  0.00     0.000 A 
ATOM     41  C21 NON d   1      31.857 -22.524  -5.376  0.00  0.00     0.001 A 
ATOM     42  C22 NON d   1      31.489 -21.177  -5.300  0.00  0.00     0.014 A 
ENDBRANCH  34  37
ENDBRANCH  30  32
ENDBRANCH   1  28
TORSDOF 16
ENDMDL
MODEL 9
REMARK VINA RESULT:   -31.040      3.049      3.776
REMARK INTER + INTRA:         -39.945
REMARK INTER:                 -35.813
REMARK INTRA:                  -4.132
REMARK CONF_INDEPENDENT:        4.773
REMARK UNBOUND:                -4.132
REMARK  16 active torsions:
REMARK  status: ('A' for Active; 'I' for Inactive)
REMARK       I    between atoms: C1_2  and  N1_3 
REMARK    1  A    between atoms: C1_2  and  O3_33 
REMARK    2  A    between atoms: C2_4  and  N1_3 
REMARK    3  A    between atoms: C2_4  and  C3_5 
REMARK    4  A    between atoms: C2_4  and  C14_19 
REMARK    5  A    between atoms: C3_5  and  C4_6 
REMARK    6  A    between atoms: C4_6  and  C5_7 
REMARK    7  A    between atoms: C5_7  and  C6_8 
REMARK    8  A    between atoms: C6_8  and  C7_9 
REMARK    9  A    between atoms: C7_9  and  C8_10 
REMARK   10  A    between atoms: C8_10  and  S1_11 
REMARK   11  A    between atoms: S1_11  and  S2_12 
REMARK   12  A    between atoms: S2_12  and  C9_13 
REMARK       I    between atoms: C14_19  and  N3_21 
REMARK   13  A    between atoms: N3_21  and  C15_22 
REMARK   14  A    between atoms: C16_24  and  C17_25 
REMARK   15  A    between atoms: O3_33  and  C24_34 
REMARK   16  A    between atoms: C24_34  and  C25_35 
ROOT
ATOM      1  C2  NON d   1      26.453 -13.737  -3.847  0.00  0.00     0.157 C 
ENDROOT
BRANCH   1   2
ATOM      2  N1  NON d   1      27.162 -12.407  -3.792  0.00  0.00    -0.224 NA
ATOM      3  C1  NON d   1      27.855 -11.982  -2.676  0.00  0.00     0.339 C 
ATOM      4  O1  NON d   1      27.484 -12.177  -1.529  0.00  0.00    -0.245 OA
ATOM      5  H1  NON d   1      27.737 -12.251  -4.611  0.00  0.00     0.133 HD
BRANCH   3   6
ATOM      6  O3  NON d   1      29.108 -11.568  -3.040  0.00  0.00    -0.304 OA
BRANCH   6   7
ATOM      7  C24 NON d   1      30.156 -12.048  -2.166  0.00  0.00     0.218 C 
BRANCH   7   8
ATOM      8  C25 NON d   1      30.202 -13.547  -1.921  0.00  0.00    -0.034 A 
ATOM      9  C26 NON d   1      31.300 -14.278  -2.409  0.00  0.00     0.009 A 
ATOM     10  C27 NON d   1      31.376 -15.668  -2.266  0.00  0.00     0.001 A 
ATOM     11  C28 NON d   1      30.348 -16.352  -1.627  0.00  0.00     0.000 A 
ATOM     12  C29 NON d   1      29.256 -15.644  -1.123  0.00  0.00     0.001 A 
ATOM     13  C30 NON d   1      29.180 -14.250  -1.269  0.00  0.00     0.009 A 
ENDBRANCH   7   8
ENDBRANCH   6   7
ENDBRANCH   3   6
ENDBRANCH   1   2
BRANCH   1  14
ATOM     14  C3  NON d   1      24.992 -14.359  -3.872  0.00  0.00     0.029 C 
BRANCH  14  15
ATOM     15  C4  NON d   1      24.603 -15.084  -2.512  0.00  0.00     0.002 C 
BRANCH  15  16
ATOM     16  C5  NON d   1      25.757 -15.344  -1.503  0.00  0.00     0.000 C 
BRANCH  16  17
ATOM     17  C6  NON d   1      26.447 -16.713  -1.539  0.00  0.00     0.001 C 
BRANCH  17  18
ATOM     18  C7  NON d   1      26.110 -17.635  -0.360  0.00  0.00     0.011 C 
BRANCH  18  19
ATOM     19  C8  NON d   1      24.663 -17.518   0.100  0.00  0.00     0.086 C 
BRANCH  19  20
ATOM     20  S1  NON d   1      23.620 -18.873  -0.538  0.00  0.00    -0.091 SA
BRANCH  20  21
ATOM     21  S2  NON d   1      21.803 -17.975  -0.873  0.00  0.00    -0.038 SA
BRANCH  21  22
ATOM     22  C9  NON d   1      20.543 -18.959  -0.080  0.00  0.00     0.103 A 
ATOM     23  C10 NON d   1      20.569 -19.348   1.255  0.00  0.00     0.040 A 
ATOM     24  C11 NON d   1      19.511 -20.100   1.768  0.00  0.00     0.004 A 
ATOM     25  C12 NON d   1      18.469 -20.470   0.930  0.00  0.00     0.019 A 
ATOM     26  C13 NON d   1      18.525 -20.067  -0.390  0.00  0.00     0.118 A 
ATOM     27  N2  NON d   1      19.526 -19.318  -0.900  0.00  0.00    -0.253 NA
ENDBRANCH  21  22
ENDBRANCH  20  21
ENDBRANCH  19  20
ENDBRANCH  18  19
ENDBRANCH  17  18
ENDBRANCH  16  17
ENDBRANCH  15  16
ENDBRANCH  14  15
ENDBRANCH   1  14
BRANCH   1  28
ATOM     28  C14 NON d   1      27.419 -14.640  -4.634  0.00  0.00     0.241 C 
ATOM     29  O2  NON d   1      26.890 -15.666  -5.090  0.00  0.00    -0.271 OA
ATOM     30  N3  NON d   1      28.773 -14.419  -4.710  0.00  0.00    -0.304 N 
ATOM     31  H19 NON d   1      29.197 -13.720  -4.115  0.00  0.00     0.171 HD
BRANCH  30  32
ATOM     32  C15 NON d   1      29.647 -15.264  -5.395  0.00  0.00     0.173 C 
ATOM     33  N4  NON d   1      29.711 -16.575  -5.249  0.00  0.00    -0.223 NA
ATOM     34  C16 NON d   1      30.671 -17.117  -6.129  0.00  0.00     0.076 C 
ATOM     35  C23 NON d   1      31.326 -16.171  -6.895  0.00  0.00     0.085 C 
ATOM     36  S3  NON d   1      30.819 -14.613  -6.469  0.00  0.00    -0.061 SA
BRANCH  34  37
ATOM     37  C17 NON d   1      30.978 -18.553  -6.230  0.00  0.00    -0.007 A 
ATOM     38  C18 NON d   1      30.387 -19.475  -5.356  0.00  0.00     0.014 A 
ATOM     39  C19 NON d   1      30.699 -20.840  -5.437  0.00  0.00     0.001 A 
ATOM     40  C20 NON d   1      31.606 -21.307  -6.390  0.00  0.00     0.000 A 
ATOM     41  C21 NON d   1      32.198 -20.410  -7.271  0.00  0.00     0.001 A 
ATOM     42  C22 NON d   1      31.886 -19.049  -7.189  0.00  0.00     0.014 A 
ENDBRANCH  34  37
ENDBRANCH  30  32
ENDBRANCH   1  28
TORSDOF 16
ENDMDL
