MODEL 1
REMARK VINA RESULT:    -7.911      0.000      0.000
REMARK INTER + INTRA:         -10.845
REMARK INTER:                  -9.701
REMARK INTRA:                  -1.144
REMARK CONF_INDEPENDENT:        1.790
REMARK UNBOUND:                -1.144
REMARK  6 active torsions:
REMARK  status: ('A' for Active; 'I' for Inactive)
REMARK    1  A    between atoms: C1_2  and  C2_3 
REMARK       I    between atoms: C1_2  and  N1_19 
REMARK    2  A    between atoms: C3_4  and  C4_5 
REMARK    3  A    between atoms: C7_8  and  C8_9 
REMARK    4  A    between atoms: C11_12  and  C12_13 
REMARK    5  A    between atoms: C12_13  and  O2_14 
REMARK    6  A    between atoms: N1_19  and  O3_20 
ROOT
ATOM      1  C4  NON d   1      22.058 -18.363  -0.538  0.00  0.00    -0.036 A 
ATOM      2  C5  NON d   1      23.194 -19.159  -0.369  0.00  0.00     0.012 A 
ATOM      3  C6  NON d   1      24.476 -18.592  -0.295  0.00  0.00     0.013 A 
ATOM      4  C7  NON d   1      24.693 -17.204  -0.368  0.00  0.00    -0.026 A 
ATOM      5  C15 NON d   1      23.533 -16.421  -0.533  0.00  0.00     0.013 A 
ATOM      6  C16 NON d   1      22.247 -16.983  -0.621  0.00  0.00     0.012 A 
ENDROOT
BRANCH   4   7
ATOM      7  C8  NON d   1      26.063 -16.608  -0.273  0.00  0.00    -0.026 A 
ATOM      8  C9  NON d   1      26.272 -15.218  -0.183  0.00  0.00     0.013 A 
ATOM      9  C10 NON d   1      27.551 -14.655  -0.065  0.00  0.00     0.010 A 
ATOM     10  C11 NON d   1      28.694 -15.460  -0.049  0.00  0.00    -0.035 A 
ATOM     11  C13 NON d   1      28.515 -16.841  -0.144  0.00  0.00     0.010 A 
ATOM     12  C14 NON d   1      27.230 -17.398  -0.255  0.00  0.00     0.013 A 
BRANCH  10  13
ATOM     13  C12 NON d   1      30.045 -14.808   0.105  0.00  0.00     0.202 C 
BRANCH  13  14
ATOM     14  O2  NON d   1      30.763 -15.278   1.237  0.00  0.00    -0.396 OA
ATOM     15  H9  NON d   1      30.237 -16.006   1.608  0.00  0.00     0.209 HD
ENDBRANCH  13  14
ENDBRANCH  10  13
ENDBRANCH   4   7
BRANCH   1  16
ATOM     16  C3  NON d   1      20.744 -19.031  -0.577  0.00  0.00     0.017 C 
ATOM     17  C2  NON d   1      20.219 -19.804   0.384  0.00  0.00     0.077 C 
BRANCH  17  18
ATOM     18  C1  NON d   1      18.915 -20.508   0.264  0.00  0.00     0.264 C 
ATOM     19  O1  NON d   1      18.269 -20.450  -0.779  0.00  0.00    -0.266 OA
ATOM     20  N1  NON d   1      18.505 -21.242   1.341  0.00  0.00    -0.234 N 
ATOM     21  H14 NON d   1      19.067 -21.457   2.154  0.00  0.00     0.197 HD
BRANCH  20  22
ATOM     22  O3  NON d   1      17.290 -21.950   1.202  0.00  0.00    -0.287 OA
ATOM     23  H15 NON d   1      17.238 -22.083   0.229  0.00  0.00     0.244 HD
ENDBRANCH  20  22
ENDBRANCH  17  18
ENDBRANCH   1  16
TORSDOF 6
ENDMDL
MODEL 2
REMARK VINA RESULT:    -7.903      0.130      1.075
REMARK INTER + INTRA:         -10.824
REMARK INTER:                  -9.693
REMARK INTRA:                  -1.131
REMARK CONF_INDEPENDENT:        1.790
REMARK UNBOUND:                -1.131
REMARK  6 active torsions:
REMARK  status: ('A' for Active; 'I' for Inactive)
REMARK    1  A    between atoms: C1_2  and  C2_3 
REMARK       I    between atoms: C1_2  and  N1_19 
REMARK    2  A    between atoms: C3_4  and  C4_5 
REMARK    3  A    between atoms: C7_8  and  C8_9 
REMARK    4  A    between atoms: C11_12  and  C12_13 
REMARK    5  A    between atoms: C12_13  and  O2_14 
REMARK    6  A    between atoms: N1_19  and  O3_20 
ROOT
ATOM      1  C4  NON d   1      22.064 -18.389  -0.533  0.00  0.00    -0.036 A 
ATOM      2  C5  NON d   1      23.200 -19.186  -0.365  0.00  0.00     0.012 A 
ATOM      3  C6  NON d   1      24.481 -18.620  -0.289  0.00  0.00     0.013 A 
ATOM      4  C7  NON d   1      24.699 -17.232  -0.358  0.00  0.00    -0.026 A 
ATOM      5  C15 NON d   1      23.540 -16.447  -0.522  0.00  0.00     0.013 A 
ATOM      6  C16 NON d   1      22.254 -17.010  -0.613  0.00  0.00     0.012 A 
ENDROOT
BRANCH   4   7
ATOM      7  C8  NON d   1      26.070 -16.637  -0.261  0.00  0.00    -0.026 A 
ATOM      8  C9  NON d   1      27.230 -17.434  -0.207  0.00  0.00     0.013 A 
ATOM      9  C10 NON d   1      28.519 -16.883  -0.145  0.00  0.00     0.010 A 
ATOM     10  C11 NON d   1      28.710 -15.499  -0.116  0.00  0.00    -0.035 A 
ATOM     11  C13 NON d   1      27.576 -14.687  -0.163  0.00  0.00     0.010 A 
ATOM     12  C14 NON d   1      26.289 -15.246  -0.232  0.00  0.00     0.013 A 
BRANCH  10  13
ATOM     13  C12 NON d   1      30.117 -14.957  -0.075  0.00  0.00     0.202 C 
BRANCH  13  14
ATOM     14  O2  NON d   1      30.932 -15.596   0.896  0.00  0.00    -0.396 OA
ATOM     15  H9  NON d   1      30.352 -16.216   1.371  0.00  0.00     0.209 HD
ENDBRANCH  13  14
ENDBRANCH  10  13
ENDBRANCH   4   7
BRANCH   1  16
ATOM     16  C3  NON d   1      20.750 -19.056  -0.575  0.00  0.00     0.017 C 
ATOM     17  C2  NON d   1      20.207 -19.801   0.399  0.00  0.00     0.077 C 
BRANCH  17  18
ATOM     18  C1  NON d   1      18.905 -20.507   0.277  0.00  0.00     0.264 C 
ATOM     19  O1  NON d   1      18.260 -20.450  -0.767  0.00  0.00    -0.266 OA
ATOM     20  N1  NON d   1      18.494 -21.241   1.354  0.00  0.00    -0.234 N 
ATOM     21  H14 NON d   1      19.055 -21.455   2.168  0.00  0.00     0.197 HD
BRANCH  20  22
ATOM     22  O3  NON d   1      17.280 -21.950   1.213  0.00  0.00    -0.287 OA
ATOM     23  H15 NON d   1      17.238 -22.100   0.242  0.00  0.00     0.244 HD
ENDBRANCH  20  22
ENDBRANCH  17  18
ENDBRANCH   1  16
TORSDOF 6
ENDMDL
MODEL 3
REMARK VINA RESULT:    -7.627      1.009      1.588
REMARK INTER + INTRA:         -10.580
REMARK INTER:                  -9.417
REMARK INTRA:                  -1.163
REMARK CONF_INDEPENDENT:        1.790
REMARK UNBOUND:                -1.163
REMARK  6 active torsions:
REMARK  status: ('A' for Active; 'I' for Inactive)
REMARK    1  A    between atoms: C1_2  and  C2_3 
REMARK       I    between atoms: C1_2  and  N1_19 
REMARK    2  A    between atoms: C3_4  and  C4_5 
REMARK    3  A    between atoms: C7_8  and  C8_9 
REMARK    4  A    between atoms: C11_12  and  C12_13 
REMARK    5  A    between atoms: C12_13  and  O2_14 
REMARK    6  A    between atoms: N1_19  and  O3_20 
ROOT
ATOM      1  C4  NON d   1      23.068 -18.134  -0.633  0.00  0.00    -0.036 A 
ATOM      2  C5  NON d   1      23.383 -16.800  -0.906  0.00  0.00     0.012 A 
ATOM      3  C6  NON d   1      24.676 -16.299  -0.688  0.00  0.00     0.013 A 
ATOM      4  C7  NON d   1      25.726 -17.102  -0.205  0.00  0.00    -0.026 A 
ATOM      5  C15 NON d   1      25.387 -18.444   0.056  0.00  0.00     0.013 A 
ATOM      6  C16 NON d   1      24.090 -18.949  -0.146  0.00  0.00     0.012 A 
ENDROOT
BRANCH   4   7
ATOM      7  C8  NON d   1      27.105 -16.560   0.009  0.00  0.00    -0.026 A 
ATOM      8  C9  NON d   1      27.343 -15.393   0.762  0.00  0.00     0.013 A 
ATOM      9  C10 NON d   1      28.635 -14.896   0.991  0.00  0.00     0.010 A 
ATOM     10  C11 NON d   1      29.758 -15.537   0.460  0.00  0.00    -0.035 A 
ATOM     11  C13 NON d   1      29.549 -16.692  -0.294  0.00  0.00     0.010 A 
ATOM     12  C14 NON d   1      28.252 -17.188  -0.513  0.00  0.00     0.013 A 
BRANCH  10  13
ATOM     13  C12 NON d   1      31.127 -14.978   0.757  0.00  0.00     0.202 C 
BRANCH  13  14
ATOM     14  O2  NON d   1      31.513 -15.142   2.114  0.00  0.00    -0.396 OA
ATOM     15  H9  NON d   1      30.783 -15.615   2.548  0.00  0.00     0.209 HD
ENDBRANCH  13  14
ENDBRANCH  10  13
ENDBRANCH   4   7
BRANCH   1  16
ATOM     16  C3  NON d   1      21.695 -18.593  -0.916  0.00  0.00     0.017 C 
ATOM     17  C2  NON d   1      20.961 -19.414  -0.151  0.00  0.00     0.077 C 
BRANCH  17  18
ATOM     18  C1  NON d   1      19.604 -19.898  -0.519  0.00  0.00     0.264 C 
ATOM     19  O1  NON d   1      19.155 -19.699  -1.645  0.00  0.00    -0.266 OA
ATOM     20  N1  NON d   1      18.917 -20.598   0.433  0.00  0.00    -0.234 N 
ATOM     21  H14 NON d   1      19.299 -20.930   1.309  0.00  0.00     0.197 HD
BRANCH  20  22
ATOM     22  O3  NON d   1      17.650 -21.099   0.060  0.00  0.00    -0.287 OA
ATOM     23  H15 NON d   1      17.541 -20.737  -0.847  0.00  0.00     0.244 HD
ENDBRANCH  20  22
ENDBRANCH  17  18
ENDBRANCH   1  16
TORSDOF 6
ENDMDL
MODEL 4
REMARK VINA RESULT:    -7.580      3.088      9.135
REMARK INTER + INTRA:         -10.535
REMARK INTER:                  -9.370
REMARK INTRA:                  -1.165
REMARK CONF_INDEPENDENT:        1.790
REMARK UNBOUND:                -1.165
REMARK  6 active torsions:
REMARK  status: ('A' for Active; 'I' for Inactive)
REMARK    1  A    between atoms: C1_2  and  C2_3 
REMARK       I    between atoms: C1_2  and  N1_19 
REMARK    2  A    between atoms: C3_4  and  C4_5 
REMARK    3  A    between atoms: C7_8  and  C8_9 
REMARK    4  A    between atoms: C11_12  and  C12_13 
REMARK    5  A    between atoms: C12_13  and  O2_14 
REMARK    6  A    between atoms: N1_19  and  O3_20 
ROOT
ATOM      1  C4  NON d   1      25.302 -16.676  -0.525  0.00  0.00    -0.036 A 
ATOM      2  C5  NON d   1      24.097 -16.080  -0.906  0.00  0.00     0.012 A 
ATOM      3  C6  NON d   1      22.879 -16.768  -0.799  0.00  0.00     0.013 A 
ATOM      4  C7  NON d   1      22.793 -18.077  -0.290  0.00  0.00    -0.026 A 
ATOM      5  C15 NON d   1      24.019 -18.656   0.093  0.00  0.00     0.013 A 
ATOM      6  C16 NON d   1      25.246 -17.977  -0.026  0.00  0.00     0.012 A 
ENDROOT
BRANCH   4   7
ATOM      7  C8  NON d   1      21.486 -18.796  -0.166  0.00  0.00    -0.026 A 
ATOM      8  C9  NON d   1      20.636 -19.001  -1.270  0.00  0.00     0.013 A 
ATOM      9  C10 NON d   1      19.423 -19.700  -1.166  0.00  0.00     0.010 A 
ATOM     10  C11 NON d   1      18.991 -20.216   0.059  0.00  0.00    -0.035 A 
ATOM     11  C13 NON d   1      19.813 -20.021   1.170  0.00  0.00     0.010 A 
ATOM     12  C14 NON d   1      21.030 -19.327   1.057  0.00  0.00     0.013 A 
BRANCH  10  13
ATOM     13  C12 NON d   1      17.693 -20.981   0.113  0.00  0.00     0.202 C 
BRANCH  13  14
ATOM     14  O2  NON d   1      17.824 -22.255   0.726  0.00  0.00    -0.396 OA
ATOM     15  H9  NON d   1      16.920 -22.553   0.927  0.00  0.00     0.209 HD
ENDBRANCH  13  14
ENDBRANCH  10  13
ENDBRANCH   4   7
BRANCH   1  16
ATOM     16  C3  NON d   1      26.537 -15.878  -0.641  0.00  0.00     0.017 C 
ATOM     17  C2  NON d   1      27.318 -15.474   0.371  0.00  0.00     0.077 C 
BRANCH  17  18
ATOM     18  C1  NON d   1      28.517 -14.613   0.202  0.00  0.00     0.264 C 
ATOM     19  O1  NON d   1      28.431 -13.529  -0.371  0.00  0.00    -0.266 OA
ATOM     20  N1  NON d   1      29.687 -15.065   0.745  0.00  0.00    -0.234 N 
ATOM     21  H14 NON d   1      29.780 -15.861   1.363  0.00  0.00     0.197 HD
BRANCH  20  22
ATOM     22  O3  NON d   1      30.812 -14.218   0.625  0.00  0.00    -0.287 OA
ATOM     23  H15 NON d   1      30.501 -13.550  -0.026  0.00  0.00     0.244 HD
ENDBRANCH  20  22
ENDBRANCH  17  18
ENDBRANCH   1  16
TORSDOF 6
ENDMDL
MODEL 5
REMARK VINA RESULT:    -7.578      1.056      1.341
REMARK INTER + INTRA:         -10.534
REMARK INTER:                  -9.368
REMARK INTRA:                  -1.165
REMARK CONF_INDEPENDENT:        1.790
REMARK UNBOUND:                -1.165
REMARK  6 active torsions:
REMARK  status: ('A' for Active; 'I' for Inactive)
REMARK    1  A    between atoms: C1_2  and  C2_3 
REMARK       I    between atoms: C1_2  and  N1_19 
REMARK    2  A    between atoms: C3_4  and  C4_5 
REMARK    3  A    between atoms: C7_8  and  C8_9 
REMARK    4  A    between atoms: C11_12  and  C12_13 
REMARK    5  A    between atoms: C12_13  and  O2_14 
REMARK    6  A    between atoms: N1_19  and  O3_20 
ROOT
ATOM      1  C4  NON d   1      23.109 -17.769  -0.735  0.00  0.00    -0.036 A 
ATOM      2  C5  NON d   1      24.034 -18.578  -0.070  0.00  0.00     0.012 A 
ATOM      3  C6  NON d   1      25.351 -18.147   0.152  0.00  0.00     0.013 A 
ATOM      4  C7  NON d   1      25.811 -16.882  -0.260  0.00  0.00    -0.026 A 
ATOM      5  C15 NON d   1      24.861 -16.082  -0.923  0.00  0.00     0.013 A 
ATOM      6  C16 NON d   1      23.543 -16.514  -1.161  0.00  0.00     0.012 A 
ENDROOT
BRANCH   4   7
ATOM      7  C8  NON d   1      27.214 -16.426  -0.004  0.00  0.00    -0.026 A 
ATOM      8  C9  NON d   1      27.502 -15.278   0.760  0.00  0.00     0.013 A 
ATOM      9  C10 NON d   1      28.814 -14.861   1.027  0.00  0.00     0.010 A 
ATOM     10  C11 NON d   1      29.911 -15.568   0.525  0.00  0.00    -0.035 A 
ATOM     11  C13 NON d   1      29.654 -16.706  -0.240  0.00  0.00     0.010 A 
ATOM     12  C14 NON d   1      28.336 -17.122  -0.497  0.00  0.00     0.013 A 
BRANCH  10  13
ATOM     13  C12 NON d   1      31.302 -15.094   0.862  0.00  0.00     0.202 C 
BRANCH  13  14
ATOM     14  O2  NON d   1      31.628 -15.256   2.235  0.00  0.00    -0.396 OA
ATOM     15  H9  NON d   1      31.037 -15.950   2.574  0.00  0.00     0.209 HD
ENDBRANCH  13  14
ENDBRANCH  10  13
ENDBRANCH   4   7
BRANCH   1  16
ATOM     16  C3  NON d   1      21.737 -18.281  -0.905  0.00  0.00     0.017 C 
ATOM     17  C2  NON d   1      21.195 -19.325  -0.261  0.00  0.00     0.077 C 
BRANCH  17  18
ATOM     18  C1  NON d   1      19.825 -19.840  -0.520  0.00  0.00     0.264 C 
ATOM     19  O1  NON d   1      19.305 -19.700  -1.624  0.00  0.00    -0.266 OA
ATOM     20  N1  NON d   1      19.208 -20.501   0.504  0.00  0.00    -0.234 N 
ATOM     21  H14 NON d   1      19.647 -20.787   1.369  0.00  0.00     0.197 HD
BRANCH  20  22
ATOM     22  O3  NON d   1      17.926 -21.033   0.235  0.00  0.00    -0.287 OA
ATOM     23  H15 NON d   1      17.693 -20.594  -0.613  0.00  0.00     0.244 HD
ENDBRANCH  20  22
ENDBRANCH  17  18
ENDBRANCH   1  16
TORSDOF 6
ENDMDL
MODEL 6
REMARK VINA RESULT:    -7.088      1.119      1.546
REMARK INTER + INTRA:         -10.016
REMARK INTER:                  -8.878
REMARK INTRA:                  -1.138
REMARK CONF_INDEPENDENT:        1.790
REMARK UNBOUND:                -1.138
REMARK  6 active torsions:
REMARK  status: ('A' for Active; 'I' for Inactive)
REMARK    1  A    between atoms: C1_2  and  C2_3 
REMARK       I    between atoms: C1_2  and  N1_19 
REMARK    2  A    between atoms: C3_4  and  C4_5 
REMARK    3  A    between atoms: C7_8  and  C8_9 
REMARK    4  A    between atoms: C11_12  and  C12_13 
REMARK    5  A    between atoms: C12_13  and  O2_14 
REMARK    6  A    between atoms: N1_19  and  O3_20 
ROOT
ATOM      1  C4  NON d   1      22.143 -18.688  -0.591  0.00  0.00    -0.036 A 
ATOM      2  C5  NON d   1      22.155 -17.320  -0.875  0.00  0.00     0.012 A 
ATOM      3  C6  NON d   1      23.353 -16.590  -0.892  0.00  0.00     0.013 A 
ATOM      4  C7  NON d   1      24.604 -17.186  -0.644  0.00  0.00    -0.026 A 
ATOM      5  C15 NON d   1      24.569 -18.566  -0.365  0.00  0.00     0.013 A 
ATOM      6  C16 NON d   1      23.370 -19.301  -0.333  0.00  0.00     0.012 A 
ENDROOT
BRANCH   4   7
ATOM      7  C8  NON d   1      25.878 -16.400  -0.679  0.00  0.00    -0.026 A 
ATOM      8  C9  NON d   1      26.054 -15.296  -1.535  0.00  0.00     0.013 A 
ATOM      9  C10 NON d   1      27.235 -14.538  -1.553  0.00  0.00     0.010 A 
ATOM     10  C11 NON d   1      28.311 -14.861  -0.721  0.00  0.00    -0.035 A 
ATOM     11  C13 NON d   1      28.164 -15.955   0.133  0.00  0.00     0.010 A 
ATOM     12  C14 NON d   1      26.975 -16.705   0.150  0.00  0.00     0.013 A 
BRANCH  10  13
ATOM     13  C12 NON d   1      29.548 -14.000  -0.758  0.00  0.00     0.202 C 
BRANCH  13  14
ATOM     14  O2  NON d   1      29.503 -13.004  -1.771  0.00  0.00    -0.396 OA
ATOM     15  H9  NON d   1      30.111 -12.301  -1.486  0.00  0.00     0.209 HD
ENDBRANCH  13  14
ENDBRANCH  10  13
ENDBRANCH   4   7
BRANCH   1  16
ATOM     16  C3  NON d   1      20.847 -19.391  -0.621  0.00  0.00     0.017 C 
ATOM     17  C2  NON d   1      20.077 -19.679   0.438  0.00  0.00     0.077 C 
BRANCH  17  18
ATOM     18  C1  NON d   1      18.809 -20.450   0.356  0.00  0.00     0.264 C 
ATOM     19  O1  NON d   1      18.144 -20.450  -0.677  0.00  0.00    -0.266 OA
ATOM     20  N1  NON d   1      18.455 -21.179   1.457  0.00  0.00    -0.234 N 
ATOM     21  H14 NON d   1      19.040 -21.346   2.265  0.00  0.00     0.197 HD
BRANCH  20  22
ATOM     22  O3  NON d   1      17.275 -21.950   1.355  0.00  0.00    -0.287 OA
ATOM     23  H15 NON d   1      17.228 -22.132   0.390  0.00  0.00     0.244 HD
ENDBRANCH  20  22
ENDBRANCH  17  18
ENDBRANCH   1  16
TORSDOF 6
ENDMDL
MODEL 7
REMARK VINA RESULT:    -6.450      2.146      2.827
REMARK INTER + INTRA:          -9.414
REMARK INTER:                  -8.239
REMARK INTRA:                  -1.175
REMARK CONF_INDEPENDENT:        1.790
REMARK UNBOUND:                -1.175
REMARK  6 active torsions:
REMARK  status: ('A' for Active; 'I' for Inactive)
REMARK    1  A    between atoms: C1_2  and  C2_3 
REMARK       I    between atoms: C1_2  and  N1_19 
REMARK    2  A    between atoms: C3_4  and  C4_5 
REMARK    3  A    between atoms: C7_8  and  C8_9 
REMARK    4  A    between atoms: C11_12  and  C12_13 
REMARK    5  A    between atoms: C12_13  and  O2_14 
REMARK    6  A    between atoms: N1_19  and  O3_20 
ROOT
ATOM      1  C4  NON d   1      23.952 -18.136  -0.442  0.00  0.00    -0.036 A 
ATOM      2  C5  NON d   1      24.017 -17.386  -1.619  0.00  0.00     0.012 A 
ATOM      3  C6  NON d   1      25.192 -16.716  -1.991  0.00  0.00     0.013 A 
ATOM      4  C7  NON d   1      26.369 -16.771  -1.221  0.00  0.00    -0.026 A 
ATOM      5  C15 NON d   1      26.282 -17.537  -0.042  0.00  0.00     0.013 A 
ATOM      6  C16 NON d   1      25.103 -18.200   0.344  0.00  0.00     0.012 A 
ENDROOT
BRANCH   4   7
ATOM      7  C8  NON d   1      27.622 -16.064  -1.635  0.00  0.00    -0.026 A 
ATOM      8  C9  NON d   1      28.890 -16.443  -1.153  0.00  0.00     0.013 A 
ATOM      9  C10 NON d   1      30.071 -15.804  -1.559  0.00  0.00     0.010 A 
ATOM     10  C11 NON d   1      30.039 -14.735  -2.459  0.00  0.00    -0.035 A 
ATOM     11  C13 NON d   1      28.794 -14.335  -2.947  0.00  0.00     0.010 A 
ATOM     12  C14 NON d   1      27.616 -14.985  -2.542  0.00  0.00     0.013 A 
BRANCH  10  13
ATOM     13  C12 NON d   1      31.338 -14.098  -2.884  0.00  0.00     0.202 C 
BRANCH  13  14
ATOM     14  O2  NON d   1      31.163 -12.819  -3.476  0.00  0.00    -0.396 OA
ATOM     15  H9  NON d   1      31.786 -12.224  -3.025  0.00  0.00     0.209 HD
ENDBRANCH  13  14
ENDBRANCH  10  13
ENDBRANCH   4   7
BRANCH   1  16
ATOM     16  C3  NON d   1      22.690 -18.835  -0.135  0.00  0.00     0.017 C 
ATOM     17  C2  NON d   1      21.612 -18.911  -0.928  0.00  0.00     0.077 C 
BRANCH  17  18
ATOM     18  C1  NON d   1      20.340 -19.574  -0.539  0.00  0.00     0.264 C 
ATOM     19  O1  NON d   1      19.428 -19.700  -1.353  0.00  0.00    -0.266 OA
ATOM     20  N1  NON d   1      20.260 -20.063   0.734  0.00  0.00    -0.234 N 
ATOM     21  H14 NON d   1      21.030 -20.134   1.387  0.00  0.00     0.197 HD
BRANCH  20  22
ATOM     22  O3  NON d   1      19.068 -20.738   1.081  0.00  0.00    -0.287 OA
ATOM     23  H15 NON d   1      18.441 -20.420   0.394  0.00  0.00     0.244 HD
ENDBRANCH  20  22
ENDBRANCH  17  18
ENDBRANCH   1  16
TORSDOF 6
ENDMDL
MODEL 8
REMARK VINA RESULT:    -6.033      6.193      7.838
REMARK INTER + INTRA:          -8.996
REMARK INTER:                  -7.822
REMARK INTRA:                  -1.174
REMARK CONF_INDEPENDENT:        1.790
REMARK UNBOUND:                -1.174
REMARK  6 active torsions:
REMARK  status: ('A' for Active; 'I' for Inactive)
REMARK    1  A    between atoms: C1_2  and  C2_3 
REMARK       I    between atoms: C1_2  and  N1_19 
REMARK    2  A    between atoms: C3_4  and  C4_5 
REMARK    3  A    between atoms: C7_8  and  C8_9 
REMARK    4  A    between atoms: C11_12  and  C12_13 
REMARK    5  A    between atoms: C12_13  and  O2_14 
REMARK    6  A    between atoms: N1_19  and  O3_20 
ROOT
ATOM      1  C4  NON d   1      27.050 -13.777  -0.144  0.00  0.00    -0.036 A 
ATOM      2  C5  NON d   1      27.539 -14.908   0.515  0.00  0.00     0.012 A 
ATOM      3  C6  NON d   1      27.853 -14.874   1.882  0.00  0.00     0.013 A 
ATOM      4  C7  NON d   1      27.679 -13.720   2.669  0.00  0.00    -0.026 A 
ATOM      5  C15 NON d   1      27.179 -12.595   1.985  0.00  0.00     0.013 A 
ATOM      6  C16 NON d   1      26.877 -12.618   0.611  0.00  0.00     0.012 A 
ENDROOT
BRANCH   4   7
ATOM      7  C8  NON d   1      28.003 -13.700   4.130  0.00  0.00    -0.026 A 
ATOM      8  C9  NON d   1      28.558 -14.813   4.791  0.00  0.00     0.013 A 
ATOM      9  C10 NON d   1      28.890 -14.791   6.154  0.00  0.00     0.010 A 
ATOM     10  C11 NON d   1      28.666 -13.652   6.932  0.00  0.00    -0.035 A 
ATOM     11  C13 NON d   1      28.110 -12.536   6.303  0.00  0.00     0.010 A 
ATOM     12  C14 NON d   1      27.787 -12.564   4.935  0.00  0.00     0.013 A 
BRANCH  10  13
ATOM     13  C12 NON d   1      29.064 -13.670   8.386  0.00  0.00     0.202 C 
BRANCH  13  14
ATOM     14  O2  NON d   1      28.531 -14.779   9.095  0.00  0.00    -0.396 OA
ATOM     15  H9  NON d   1      28.891 -15.573   8.666  0.00  0.00     0.209 HD
ENDBRANCH  13  14
ENDBRANCH  10  13
ENDBRANCH   4   7
BRANCH   1  16
ATOM     16  C3  NON d   1      26.717 -13.900  -1.576  0.00  0.00     0.017 C 
ATOM     17  C2  NON d   1      25.863 -14.780  -2.118  0.00  0.00     0.077 C 
BRANCH  17  18
ATOM     18  C1  NON d   1      25.614 -14.904  -3.578  0.00  0.00     0.264 C 
ATOM     19  O1  NON d   1      24.589 -14.447  -4.077  0.00  0.00    -0.266 OA
ATOM     20  N1  NON d   1      26.589 -15.505  -4.324  0.00  0.00    -0.234 N 
ATOM     21  H14 NON d   1      27.514 -15.749  -3.996  0.00  0.00     0.197 HD
BRANCH  20  22
ATOM     22  O3  NON d   1      26.369 -15.574  -5.718  0.00  0.00    -0.287 OA
ATOM     23  H15 NON d   1      25.469 -15.188  -5.806  0.00  0.00     0.244 HD
ENDBRANCH  20  22
ENDBRANCH  17  18
ENDBRANCH   1  16
TORSDOF 6
ENDMDL
MODEL 9
REMARK VINA RESULT:    -5.437      5.939      6.681
REMARK INTER + INTRA:          -8.379
REMARK INTER:                  -7.227
REMARK INTRA:                  -1.152
REMARK CONF_INDEPENDENT:        1.790
REMARK UNBOUND:                -1.152
REMARK  6 active torsions:
REMARK  status: ('A' for Active; 'I' for Inactive)
REMARK    1  A    between atoms: C1_2  and  C2_3 
REMARK       I    between atoms: C1_2  and  N1_19 
REMARK    2  A    between atoms: C3_4  and  C4_5 
REMARK    3  A    between atoms: C7_8  and  C8_9 
REMARK    4  A    between atoms: C11_12  and  C12_13 
REMARK    5  A    between atoms: C12_13  and  O2_14 
REMARK    6  A    between atoms: N1_19  and  O3_20 
ROOT
ATOM      1  C4  NON d   1      25.134 -15.327  -2.721  0.00  0.00    -0.036 A 
ATOM      2  C5  NON d   1      26.292 -15.951  -3.193  0.00  0.00     0.012 A 
ATOM      3  C6  NON d   1      27.063 -15.377  -4.216  0.00  0.00     0.013 A 
ATOM      4  C7  NON d   1      26.733 -14.144  -4.809  0.00  0.00    -0.026 A 
ATOM      5  C15 NON d   1      25.566 -13.530  -4.314  0.00  0.00     0.013 A 
ATOM      6  C16 NON d   1      24.780 -14.107  -3.299  0.00  0.00     0.012 A 
ENDROOT
BRANCH   4   7
ATOM      7  C8  NON d   1      27.571 -13.533  -5.889  0.00  0.00    -0.026 A 
ATOM      8  C9  NON d   1      27.394 -12.201  -6.311  0.00  0.00     0.013 A 
ATOM      9  C10 NON d   1      28.194 -11.613  -7.302  0.00  0.00     0.010 A 
ATOM     10  C11 NON d   1      29.206 -12.340  -7.936  0.00  0.00    -0.035 A 
ATOM     11  C13 NON d   1      29.399 -13.664  -7.540  0.00  0.00     0.010 A 
ATOM     12  C14 NON d   1      28.597 -14.244  -6.541  0.00  0.00     0.013 A 
BRANCH  10  13
ATOM     13  C12 NON d   1      30.056 -11.655  -8.976  0.00  0.00     0.202 C 
BRANCH  13  14
ATOM     14  O2  NON d   1      31.053 -12.504  -9.527  0.00  0.00    -0.396 OA
ATOM     15  H9  NON d   1      30.588 -13.299  -9.840  0.00  0.00     0.209 HD
ENDBRANCH  13  14
ENDBRANCH  10  13
ENDBRANCH   4   7
BRANCH   1  16
ATOM     16  C3  NON d   1      24.394 -15.978  -1.625  0.00  0.00     0.017 C 
ATOM     17  C2  NON d   1      24.188 -17.295  -1.480  0.00  0.00     0.077 C 
BRANCH  17  18
ATOM     18  C1  NON d   1      23.376 -17.894  -0.389  0.00  0.00     0.264 C 
ATOM     19  O1  NON d   1      23.856 -18.055   0.730  0.00  0.00    -0.266 OA
ATOM     20  N1  NON d   1      22.078 -18.208  -0.682  0.00  0.00    -0.234 N 
ATOM     21  H14 NON d   1      21.587 -17.948  -1.528  0.00  0.00     0.197 HD
BRANCH  20  22
ATOM     22  O3  NON d   1      21.297 -18.729   0.373  0.00  0.00    -0.287 OA
ATOM     23  H15 NON d   1      21.979 -19.119   0.964  0.00  0.00     0.244 HD
ENDBRANCH  20  22
ENDBRANCH  17  18
ENDBRANCH   1  16
TORSDOF 6
ENDMDL
