MODEL 1
REMARK VINA RESULT:    -8.447      0.000      0.000
REMARK INTER + INTRA:         -12.451
REMARK INTER:                 -10.535
REMARK INTRA:                  -1.916
REMARK CONF_INDEPENDENT:        2.088
REMARK UNBOUND:                -1.916
REMARK  7 active torsions:
REMARK  status: ('A' for Active; 'I' for Inactive)
REMARK    1  A    between atoms: O1_2  and  C2_3 
REMARK       I    between atoms: C2_3  and  N1_5 
REMARK    2  A    between atoms: N1_5  and  C3_6 
REMARK    3  A    between atoms: C3_6  and  C4_7 
REMARK    4  A    between atoms: C7_10  and  C8_11 
REMARK       I    between atoms: C8_11  and  N2_13 
REMARK    5  A    between atoms: N2_13  and  C9_14 
REMARK    6  A    between atoms: C11_16  and  C12_17 
REMARK    7  A    between atoms: C20_25  and  N3_26 
ROOT
ATOM      1  C8  NON d   1      27.502 -16.119   0.441  0.00  0.00     0.256 C 
ATOM      2  O3  NON d   1      28.542 -16.448  -0.126  0.00  0.00    -0.267 OA
ATOM      3  N2  NON d   1      27.405 -15.181   1.456  0.00  0.00    -0.321 N 
ATOM      4  H9  NON d   1      26.480 -14.888   1.731  0.00  0.00     0.169 HD
ENDROOT
BRANCH   3   5
ATOM      5  C9  NON d   1      28.478 -14.499   2.116  0.00  0.00     0.057 A 
ATOM      6  C10 NON d   1      28.291 -14.240   3.499  0.00  0.00     0.043 A 
ATOM      7  C11 NON d   1      29.244 -13.571   4.308  0.00  0.00    -0.024 A 
ATOM      8  C18 NON d   1      30.429 -13.202   3.655  0.00  0.00     0.014 A 
ATOM      9  C19 NON d   1      30.653 -13.479   2.305  0.00  0.00     0.026 A 
ATOM     10  C20 NON d   1      29.682 -14.091   1.508  0.00  0.00     0.033 A 
BRANCH   7  11
ATOM     11  C12 NON d   1      29.030 -13.275   5.767  0.00  0.00    -0.026 A 
ATOM     12  C13 NON d   1      29.479 -14.135   6.790  0.00  0.00     0.012 A 
ATOM     13  C14 NON d   1      29.279 -13.849   8.150  0.00  0.00     0.001 A 
ATOM     14  C15 NON d   1      28.617 -12.691   8.536  0.00  0.00     0.000 A 
ATOM     15  C16 NON d   1      28.155 -11.820   7.563  0.00  0.00     0.001 A 
ATOM     16  C17 NON d   1      28.358 -12.112   6.206  0.00  0.00     0.012 A 
ENDBRANCH   7  11
BRANCH  10  17
ATOM     17  N3  NON d   1      30.103 -14.512   0.231  0.00  0.00    -0.301 NA
ATOM     18  H18 NON d   1      30.450 -15.476   0.275  0.00  0.00     0.124 HD
ATOM     19  H19 NON d   1      29.372 -14.457  -0.467  0.00  0.00     0.124 HD
ENDBRANCH  10  17
ENDBRANCH   3   5
BRANCH   1  20
ATOM     20  C7  NON d   1      26.245 -16.780  -0.030  0.00  0.00     0.032 A 
ATOM     21  C6  NON d   1      25.859 -18.075   0.320  0.00  0.00     0.017 A 
ATOM     22  C5  NON d   1      24.616 -18.575  -0.105  0.00  0.00     0.010 A 
ATOM     23  C4  NON d   1      23.733 -17.797  -0.880  0.00  0.00    -0.040 A 
ATOM     24  C22 NON d   1      24.150 -16.516  -1.258  0.00  0.00     0.010 A 
ATOM     25  C21 NON d   1      25.382 -16.012  -0.826  0.00  0.00     0.017 A 
BRANCH  23  26
ATOM     26  C3  NON d   1      22.394 -18.386  -1.270  0.00  0.00     0.163 C 
BRANCH  26  27
ATOM     27  N1  NON d   1      21.687 -19.060  -0.209  0.00  0.00    -0.333 N 
ATOM     28  C2  NON d   1      20.517 -19.717  -0.449  0.00  0.00     0.360 C 
ATOM     29  O2  NON d   1      19.904 -19.700  -1.504  0.00  0.00    -0.239 OA
ATOM     30  H4  NON d   1      22.173 -19.371   0.618  0.00  0.00     0.165 HD
BRANCH  28  31
ATOM     31  O1  NON d   1      20.167 -20.405   0.664  0.00  0.00    -0.309 OA
ATOM     32  C1  NON d   1      18.770 -20.460   0.970  0.00  0.00     0.215 C 
ENDBRANCH  28  31
ENDBRANCH  26  27
ENDBRANCH  23  26
ENDBRANCH   1  20
TORSDOF 7
ENDMDL
MODEL 2
REMARK VINA RESULT:    -8.378      3.446      9.513
REMARK INTER + INTRA:         -11.502
REMARK INTER:                 -10.466
REMARK INTRA:                  -1.036
REMARK CONF_INDEPENDENT:        2.088
REMARK UNBOUND:                -1.036
REMARK  7 active torsions:
REMARK  status: ('A' for Active; 'I' for Inactive)
REMARK    1  A    between atoms: O1_2  and  C2_3 
REMARK       I    between atoms: C2_3  and  N1_5 
REMARK    2  A    between atoms: N1_5  and  C3_6 
REMARK    3  A    between atoms: C3_6  and  C4_7 
REMARK    4  A    between atoms: C7_10  and  C8_11 
REMARK       I    between atoms: C8_11  and  N2_13 
REMARK    5  A    between atoms: N2_13  and  C9_14 
REMARK    6  A    between atoms: C11_16  and  C12_17 
REMARK    7  A    between atoms: C20_25  and  N3_26 
ROOT
ATOM      1  C8  NON d   1      27.790 -14.139   2.315  0.00  0.00     0.256 C 
ATOM      2  O3  NON d   1      26.906 -13.305   2.127  0.00  0.00    -0.267 OA
ATOM      3  N2  NON d   1      28.167 -15.123   1.415  0.00  0.00    -0.321 N 
ATOM      4  H9  NON d   1      29.005 -15.645   1.621  0.00  0.00     0.169 HD
ENDROOT
BRANCH   3   5
ATOM      5  C9  NON d   1      27.550 -15.438   0.161  0.00  0.00     0.057 A 
ATOM      6  C10 NON d   1      26.301 -16.108   0.236  0.00  0.00     0.043 A 
ATOM      7  C11 NON d   1      25.553 -16.502  -0.903  0.00  0.00    -0.024 A 
ATOM      8  C18 NON d   1      26.115 -16.152  -2.139  0.00  0.00     0.014 A 
ATOM      9  C19 NON d   1      27.324 -15.459  -2.238  0.00  0.00     0.026 A 
ATOM     10  C20 NON d   1      28.075 -15.125  -1.108  0.00  0.00     0.033 A 
BRANCH   7  11
ATOM     11  C12 NON d   1      24.242 -17.235  -0.819  0.00  0.00    -0.026 A 
ATOM     12  C13 NON d   1      22.999 -16.588  -0.970  0.00  0.00     0.012 A 
ATOM     13  C14 NON d   1      21.780 -17.281  -0.895  0.00  0.00     0.001 A 
ATOM     14  C15 NON d   1      21.761 -18.649  -0.663  0.00  0.00     0.000 A 
ATOM     15  C16 NON d   1      22.961 -19.325  -0.505  0.00  0.00     0.001 A 
ATOM     16  C17 NON d   1      24.174 -18.627  -0.580  0.00  0.00     0.012 A 
ENDBRANCH   7  11
BRANCH  10  17
ATOM     17  N3  NON d   1      29.154 -14.245  -1.320  0.00  0.00    -0.301 NA
ATOM     18  H18 NON d   1      28.954 -13.333  -0.894  0.00  0.00     0.124 HD
ATOM     19  H19 NON d   1      30.031 -14.594  -0.952  0.00  0.00     0.124 HD
ENDBRANCH  10  17
ENDBRANCH   3   5
BRANCH   1  20
ATOM     20  C7  NON d   1      28.522 -14.057   3.616  0.00  0.00     0.032 A 
ATOM     21  C6  NON d   1      29.558 -13.159   3.881  0.00  0.00     0.017 A 
ATOM     22  C5  NON d   1      30.125 -13.102   5.166  0.00  0.00     0.010 A 
ATOM     23  C4  NON d   1      29.670 -13.929   6.211  0.00  0.00    -0.040 A 
ATOM     24  C22 NON d   1      28.660 -14.853   5.922  0.00  0.00     0.010 A 
ATOM     25  C21 NON d   1      28.086 -14.904   4.647  0.00  0.00     0.017 A 
BRANCH  23  26
ATOM     26  C3  NON d   1      30.301 -13.787   7.580  0.00  0.00     0.163 C 
BRANCH  26  27
ATOM     27  N1  NON d   1      29.479 -14.219   8.684  0.00  0.00    -0.333 N 
ATOM     28  C2  NON d   1      28.530 -13.400   9.218  0.00  0.00     0.360 C 
ATOM     29  O2  NON d   1      28.367 -12.226   8.924  0.00  0.00    -0.239 OA
ATOM     30  H4  NON d   1      29.322 -15.200   8.855  0.00  0.00     0.165 HD
BRANCH  28  31
ATOM     31  O1  NON d   1      27.791 -14.108  10.104  0.00  0.00    -0.309 OA
ATOM     32  C1  NON d   1      27.878 -13.708  11.476  0.00  0.00     0.215 C 
ENDBRANCH  28  31
ENDBRANCH  26  27
ENDBRANCH  23  26
ENDBRANCH   1  20
TORSDOF 7
ENDMDL
MODEL 3
REMARK VINA RESULT:    -7.987      5.849      8.477
REMARK INTER + INTRA:         -11.634
REMARK INTER:                 -10.075
REMARK INTRA:                  -1.559
REMARK CONF_INDEPENDENT:        2.088
REMARK UNBOUND:                -1.559
REMARK  7 active torsions:
REMARK  status: ('A' for Active; 'I' for Inactive)
REMARK    1  A    between atoms: O1_2  and  C2_3 
REMARK       I    between atoms: C2_3  and  N1_5 
REMARK    2  A    between atoms: N1_5  and  C3_6 
REMARK    3  A    between atoms: C3_6  and  C4_7 
REMARK    4  A    between atoms: C7_10  and  C8_11 
REMARK       I    between atoms: C8_11  and  N2_13 
REMARK    5  A    between atoms: N2_13  and  C9_14 
REMARK    6  A    between atoms: C11_16  and  C12_17 
REMARK    7  A    between atoms: C20_25  and  N3_26 
ROOT
ATOM      1  C8  NON d   1      25.803 -14.817  -2.437  0.00  0.00     0.256 C 
ATOM      2  O3  NON d   1      25.928 -13.783  -1.784  0.00  0.00    -0.267 OA
ATOM      3  N2  NON d   1      26.323 -15.033  -3.703  0.00  0.00    -0.321 N 
ATOM      4  H9  NON d   1      26.284 -15.973  -4.067  0.00  0.00     0.169 HD
ENDROOT
BRANCH   3   5
ATOM      5  C9  NON d   1      26.999 -14.087  -4.540  0.00  0.00     0.057 A 
ATOM      6  C10 NON d   1      28.104 -14.589  -5.276  0.00  0.00     0.043 A 
ATOM      7  C11 NON d   1      28.892 -13.795  -6.147  0.00  0.00    -0.024 A 
ATOM      8  C18 NON d   1      28.485 -12.459  -6.272  0.00  0.00     0.014 A 
ATOM      9  C19 NON d   1      27.378 -11.951  -5.587  0.00  0.00     0.026 A 
ATOM     10  C20 NON d   1      26.644 -12.732  -4.691  0.00  0.00     0.033 A 
BRANCH   7  11
ATOM     11  C12 NON d   1      30.078 -14.325  -6.905  0.00  0.00    -0.026 A 
ATOM     12  C13 NON d   1      30.919 -13.496  -7.674  0.00  0.00     0.012 A 
ATOM     13  C14 NON d   1      32.028 -13.998  -8.376  0.00  0.00     0.001 A 
ATOM     14  C15 NON d   1      32.333 -15.352  -8.334  0.00  0.00     0.000 A 
ATOM     15  C16 NON d   1      31.529 -16.203  -7.592  0.00  0.00     0.001 A 
ATOM     16  C17 NON d   1      30.424 -15.695  -6.895  0.00  0.00     0.012 A 
ENDBRANCH   7  11
BRANCH  10  17
ATOM     17  N3  NON d   1      25.432 -12.178  -4.234  0.00  0.00    -0.301 NA
ATOM     18  H18 NON d   1      24.679 -12.384  -4.899  0.00  0.00     0.124 HD
ATOM     19  H19 NON d   1      25.163 -12.512  -3.317  0.00  0.00     0.124 HD
ENDBRANCH  10  17
ENDBRANCH   3   5
BRANCH   1  20
ATOM     20  C7  NON d   1      25.043 -15.930  -1.789  0.00  0.00     0.032 A 
ATOM     21  C6  NON d   1      23.655 -15.950  -1.636  0.00  0.00     0.017 A 
ATOM     22  C5  NON d   1      23.027 -17.082  -1.089  0.00  0.00     0.010 A 
ATOM     23  C4  NON d   1      23.763 -18.215  -0.690  0.00  0.00    -0.040 A 
ATOM     24  C22 NON d   1      25.156 -18.166  -0.810  0.00  0.00     0.010 A 
ATOM     25  C21 NON d   1      25.783 -17.044  -1.364  0.00  0.00     0.017 A 
BRANCH  23  26
ATOM     26  C3  NON d   1      23.016 -19.414  -0.145  0.00  0.00     0.163 C 
BRANCH  26  27
ATOM     27  N1  NON d   1      21.645 -19.166   0.227  0.00  0.00    -0.333 N 
ATOM     28  C2  NON d   1      20.638 -19.270  -0.684  0.00  0.00     0.360 C 
ATOM     29  O2  NON d   1      20.789 -19.449  -1.883  0.00  0.00    -0.239 OA
ATOM     30  H4  NON d   1      21.346 -19.262   1.186  0.00  0.00     0.165 HD
BRANCH  28  31
ATOM     31  O1  NON d   1      19.452 -19.169  -0.039  0.00  0.00    -0.309 OA
ATOM     32  C1  NON d   1      18.824 -20.396   0.345  0.00  0.00     0.215 C 
ENDBRANCH  28  31
ENDBRANCH  26  27
ENDBRANCH  23  26
ENDBRANCH   1  20
TORSDOF 7
ENDMDL
MODEL 4
REMARK VINA RESULT:    -7.931      5.746      8.352
REMARK INTER + INTRA:         -11.993
REMARK INTER:                 -10.019
REMARK INTRA:                  -1.974
REMARK CONF_INDEPENDENT:        2.088
REMARK UNBOUND:                -1.974
REMARK  7 active torsions:
REMARK  status: ('A' for Active; 'I' for Inactive)
REMARK    1  A    between atoms: O1_2  and  C2_3 
REMARK       I    between atoms: C2_3  and  N1_5 
REMARK    2  A    between atoms: N1_5  and  C3_6 
REMARK    3  A    between atoms: C3_6  and  C4_7 
REMARK    4  A    between atoms: C7_10  and  C8_11 
REMARK       I    between atoms: C8_11  and  N2_13 
REMARK    5  A    between atoms: N2_13  and  C9_14 
REMARK    6  A    between atoms: C11_16  and  C12_17 
REMARK    7  A    between atoms: C20_25  and  N3_26 
ROOT
ATOM      1  C8  NON d   1      26.550 -15.360  -3.261  0.00  0.00     0.256 C 
ATOM      2  O3  NON d   1      27.728 -15.703  -3.340  0.00  0.00    -0.267 OA
ATOM      3  N2  NON d   1      25.940 -14.401  -4.054  0.00  0.00    -0.321 N 
ATOM      4  H9  NON d   1      24.937 -14.320  -3.997  0.00  0.00     0.169 HD
ENDROOT
BRANCH   3   5
ATOM      5  C9  NON d   1      26.562 -13.554  -5.028  0.00  0.00     0.057 A 
ATOM      6  C10 NON d   1      26.062 -12.227  -5.103  0.00  0.00     0.043 A 
ATOM      7  C11 NON d   1      26.553 -11.255  -6.012  0.00  0.00    -0.024 A 
ATOM      8  C18 NON d   1      27.613 -11.678  -6.827  0.00  0.00     0.014 A 
ATOM      9  C19 NON d   1      28.146 -12.966  -6.745  0.00  0.00     0.026 A 
ATOM     10  C20 NON d   1      27.616 -13.929  -5.882  0.00  0.00     0.033 A 
BRANCH   7  11
ATOM     11  C12 NON d   1      26.003  -9.858  -6.107  0.00  0.00    -0.026 A 
ATOM     12  C13 NON d   1      26.298  -8.998  -7.183  0.00  0.00     0.012 A 
ATOM     13  C14 NON d   1      25.777  -7.696  -7.267  0.00  0.00     0.001 A 
ATOM     14  C15 NON d   1      24.942  -7.207  -6.271  0.00  0.00     0.000 A 
ATOM     15  C16 NON d   1      24.630  -8.018  -5.192  0.00  0.00     0.001 A 
ATOM     16  C17 NON d   1      25.154  -9.316  -5.115  0.00  0.00     0.012 A 
ENDBRANCH   7  11
BRANCH  10  17
ATOM     17  N3  NON d   1      28.371 -15.110  -5.732  0.00  0.00    -0.301 NA
ATOM     18  H18 NON d   1      29.058 -14.994  -4.980  0.00  0.00     0.124 HD
ATOM     19  H19 NON d   1      27.802 -15.924  -5.537  0.00  0.00     0.124 HD
ENDBRANCH  10  17
ENDBRANCH   3   5
BRANCH   1  20
ATOM     20  C7  NON d   1      25.717 -16.058  -2.235  0.00  0.00     0.032 A 
ATOM     21  C6  NON d   1      24.360 -15.808  -2.019  0.00  0.00     0.017 A 
ATOM     22  C5  NON d   1      23.644 -16.580  -1.088  0.00  0.00     0.010 A 
ATOM     23  C4  NON d   1      24.260 -17.617  -0.360  0.00  0.00    -0.040 A 
ATOM     24  C22 NON d   1      25.628 -17.830  -0.554  0.00  0.00     0.010 A 
ATOM     25  C21 NON d   1      26.341 -17.071  -1.489  0.00  0.00     0.017 A 
BRANCH  23  26
ATOM     26  C3  NON d   1      23.418 -18.432   0.599  0.00  0.00     0.163 C 
BRANCH  26  27
ATOM     27  N1  NON d   1      21.992 -18.319   0.414  0.00  0.00    -0.333 N 
ATOM     28  C2  NON d   1      21.381 -18.841  -0.687  0.00  0.00     0.360 C 
ATOM     29  O2  NON d   1      21.957 -19.324  -1.649  0.00  0.00    -0.239 OA
ATOM     30  H4  NON d   1      21.379 -18.188   1.204  0.00  0.00     0.165 HD
BRANCH  28  31
ATOM     31  O1  NON d   1      20.039 -18.758  -0.522  0.00  0.00    -0.309 OA
ATOM     32  C1  NON d   1      19.386 -19.916   0.007  0.00  0.00     0.215 C 
ENDBRANCH  28  31
ENDBRANCH  26  27
ENDBRANCH  23  26
ENDBRANCH   1  20
TORSDOF 7
ENDMDL
MODEL 5
REMARK VINA RESULT:    -7.800      6.033      8.715
REMARK INTER + INTRA:         -11.906
REMARK INTER:                  -9.888
REMARK INTRA:                  -2.018
REMARK CONF_INDEPENDENT:        2.088
REMARK UNBOUND:                -2.018
REMARK  7 active torsions:
REMARK  status: ('A' for Active; 'I' for Inactive)
REMARK    1  A    between atoms: O1_2  and  C2_3 
REMARK       I    between atoms: C2_3  and  N1_5 
REMARK    2  A    between atoms: N1_5  and  C3_6 
REMARK    3  A    between atoms: C3_6  and  C4_7 
REMARK    4  A    between atoms: C7_10  and  C8_11 
REMARK       I    between atoms: C8_11  and  N2_13 
REMARK    5  A    between atoms: N2_13  and  C9_14 
REMARK    6  A    between atoms: C11_16  and  C12_17 
REMARK    7  A    between atoms: C20_25  and  N3_26 
ROOT
ATOM      1  C8  NON d   1      25.846 -15.213  -3.613  0.00  0.00     0.256 C 
ATOM      2  O3  NON d   1      25.156 -14.450  -4.288  0.00  0.00    -0.267 OA
ATOM      3  N2  NON d   1      27.197 -15.451  -3.804  0.00  0.00    -0.321 N 
ATOM      4  H9  NON d   1      27.681 -15.977  -3.092  0.00  0.00     0.169 HD
ENDROOT
BRANCH   3   5
ATOM      5  C9  NON d   1      28.026 -14.961  -4.864  0.00  0.00     0.057 A 
ATOM      6  C10 NON d   1      29.038 -15.846  -5.319  0.00  0.00     0.043 A 
ATOM      7  C11 NON d   1      29.953 -15.526  -6.354  0.00  0.00    -0.024 A 
ATOM      8  C18 NON d   1      29.774 -14.266  -6.943  0.00  0.00     0.014 A 
ATOM      9  C19 NON d   1      28.761 -13.393  -6.539  0.00  0.00     0.026 A 
ATOM     10  C20 NON d   1      27.902 -13.701  -5.482  0.00  0.00     0.033 A 
BRANCH   7  11
ATOM     11  C12 NON d   1      31.041 -16.456  -6.815  0.00  0.00    -0.026 A 
ATOM     12  C13 NON d   1      30.780 -17.765  -7.269  0.00  0.00     0.012 A 
ATOM     13  C14 NON d   1      31.801 -18.626  -7.701  0.00  0.00     0.001 A 
ATOM     14  C15 NON d   1      33.125 -18.208  -7.693  0.00  0.00     0.000 A 
ATOM     15  C16 NON d   1      33.427 -16.929  -7.251  0.00  0.00     0.001 A 
ATOM     16  C17 NON d   1      32.403 -16.075  -6.820  0.00  0.00     0.012 A 
ENDBRANCH   7  11
BRANCH  10  17
ATOM     17  N3  NON d   1      26.794 -12.846  -5.313  0.00  0.00    -0.301 NA
ATOM     18  H18 NON d   1      25.995 -13.195  -5.854  0.00  0.00     0.124 HD
ATOM     19  H19 NON d   1      26.516 -12.741  -4.345  0.00  0.00     0.124 HD
ENDBRANCH  10  17
ENDBRANCH   3   5
BRANCH   1  20
ATOM     20  C7  NON d   1      25.158 -15.916  -2.487  0.00  0.00     0.032 A 
ATOM     21  C6  NON d   1      23.894 -15.575  -2.001  0.00  0.00     0.017 A 
ATOM     22  C5  NON d   1      23.297 -16.353  -0.995  0.00  0.00     0.010 A 
ATOM     23  C4  NON d   1      23.940 -17.485  -0.457  0.00  0.00    -0.040 A 
ATOM     24  C22 NON d   1      25.224 -17.791  -0.922  0.00  0.00     0.010 A 
ATOM     25  C21 NON d   1      25.815 -17.025  -1.932  0.00  0.00     0.017 A 
BRANCH  23  26
ATOM     26  C3  NON d   1      23.221 -18.298   0.599  0.00  0.00     0.163 C 
BRANCH  26  27
ATOM     27  N1  NON d   1      21.789 -18.376   0.444  0.00  0.00    -0.333 N 
ATOM     28  C2  NON d   1      21.229 -18.950  -0.658  0.00  0.00     0.360 C 
ATOM     29  O2  NON d   1      21.843 -19.325  -1.644  0.00  0.00    -0.239 OA
ATOM     30  H4  NON d   1      21.182 -18.350   1.249  0.00  0.00     0.165 HD
BRANCH  28  31
ATOM     31  O1  NON d   1      19.893 -19.054  -0.465  0.00  0.00    -0.309 OA
ATOM     32  C1  NON d   1      19.431 -20.242   0.186  0.00  0.00     0.215 C 
ENDBRANCH  28  31
ENDBRANCH  26  27
ENDBRANCH  23  26
ENDBRANCH   1  20
TORSDOF 7
ENDMDL
MODEL 6
REMARK VINA RESULT:    -7.608      5.735      9.687
REMARK INTER + INTRA:         -11.483
REMARK INTER:                  -9.697
REMARK INTRA:                  -1.786
REMARK CONF_INDEPENDENT:        2.088
REMARK UNBOUND:                -1.786
REMARK  7 active torsions:
REMARK  status: ('A' for Active; 'I' for Inactive)
REMARK    1  A    between atoms: O1_2  and  C2_3 
REMARK       I    between atoms: C2_3  and  N1_5 
REMARK    2  A    between atoms: N1_5  and  C3_6 
REMARK    3  A    between atoms: C3_6  and  C4_7 
REMARK    4  A    between atoms: C7_10  and  C8_11 
REMARK       I    between atoms: C8_11  and  N2_13 
REMARK    5  A    between atoms: N2_13  and  C9_14 
REMARK    6  A    between atoms: C11_16  and  C12_17 
REMARK    7  A    between atoms: C20_25  and  N3_26 
ROOT
ATOM      1  C8  NON d   1      26.047 -14.290  -1.948  0.00  0.00     0.256 C 
ATOM      2  O3  NON d   1      26.930 -14.202  -1.097  0.00  0.00    -0.267 OA
ATOM      3  N2  NON d   1      25.039 -15.239  -1.961  0.00  0.00    -0.321 N 
ATOM      4  H9  NON d   1      24.289 -15.112  -2.624  0.00  0.00     0.169 HD
ENDROOT
BRANCH   3   5
ATOM      5  C9  NON d   1      24.881 -16.354  -1.075  0.00  0.00     0.057 A 
ATOM      6  C10 NON d   1      23.588 -16.939  -1.038  0.00  0.00     0.043 A 
ATOM      7  C11 NON d   1      23.249 -18.043  -0.216  0.00  0.00    -0.024 A 
ATOM      8  C18 NON d   1      24.301 -18.561   0.553  0.00  0.00     0.014 A 
ATOM      9  C19 NON d   1      25.591 -18.027   0.506  0.00  0.00     0.026 A 
ATOM     10  C20 NON d   1      25.896 -16.905  -0.269  0.00  0.00     0.033 A 
BRANCH   7  11
ATOM     11  C12 NON d   1      21.871 -18.643  -0.161  0.00  0.00    -0.026 A 
ATOM     12  C13 NON d   1      21.123 -18.934  -1.319  0.00  0.00     0.012 A 
ATOM     13  C14 NON d   1      19.838 -19.498  -1.259  0.00  0.00     0.001 A 
ATOM     14  C15 NON d   1      19.254 -19.790  -0.033  0.00  0.00     0.000 A 
ATOM     15  C16 NON d   1      19.954 -19.516   1.131  0.00  0.00     0.001 A 
ATOM     16  C17 NON d   1      21.236 -18.952   1.064  0.00  0.00     0.012 A 
ENDBRANCH   7  11
BRANCH  10  17
ATOM     17  N3  NON d   1      27.264 -16.598  -0.403  0.00  0.00    -0.301 NA
ATOM     18  H18 NON d   1      27.494 -16.441  -1.390  0.00  0.00     0.124 HD
ATOM     19  H19 NON d   1      27.544 -15.786   0.135  0.00  0.00     0.124 HD
ENDBRANCH  10  17
ENDBRANCH   3   5
BRANCH   1  20
ATOM     20  C7  NON d   1      26.067 -13.269  -3.040  0.00  0.00     0.032 A 
ATOM     21  C6  NON d   1      25.543 -13.473  -4.318  0.00  0.00     0.017 A 
ATOM     22  C5  NON d   1      25.533 -12.419  -5.248  0.00  0.00     0.010 A 
ATOM     23  C4  NON d   1      26.037 -11.144  -4.925  0.00  0.00    -0.040 A 
ATOM     24  C22 NON d   1      26.598 -10.964  -3.656  0.00  0.00     0.010 A 
ATOM     25  C21 NON d   1      26.599 -12.008  -2.724  0.00  0.00     0.017 A 
BRANCH  23  26
ATOM     26  C3  NON d   1      25.959 -10.045  -5.964  0.00  0.00     0.163 C 
BRANCH  26  27
ATOM     27  N1  NON d   1      24.757  -9.249  -5.928  0.00  0.00    -0.333 N 
ATOM     28  C2  NON d   1      24.449  -8.486  -4.841  0.00  0.00     0.360 C 
ATOM     29  O2  NON d   1      25.058  -8.491  -3.783  0.00  0.00    -0.239 OA
ATOM     30  H4  NON d   1      24.311  -8.951  -6.782  0.00  0.00     0.165 HD
BRANCH  28  31
ATOM     31  O1  NON d   1      23.380  -7.712  -5.141  0.00  0.00    -0.309 OA
ATOM     32  C1  NON d   1      23.549  -6.770  -6.205  0.00  0.00     0.215 C 
ENDBRANCH  28  31
ENDBRANCH  26  27
ENDBRANCH  23  26
ENDBRANCH   1  20
TORSDOF 7
ENDMDL
MODEL 7
REMARK VINA RESULT:    -7.480      3.111      3.761
REMARK INTER + INTRA:         -11.315
REMARK INTER:                  -9.568
REMARK INTRA:                  -1.747
REMARK CONF_INDEPENDENT:        2.088
REMARK UNBOUND:                -1.747
REMARK  7 active torsions:
REMARK  status: ('A' for Active; 'I' for Inactive)
REMARK    1  A    between atoms: O1_2  and  C2_3 
REMARK       I    between atoms: C2_3  and  N1_5 
REMARK    2  A    between atoms: N1_5  and  C3_6 
REMARK    3  A    between atoms: C3_6  and  C4_7 
REMARK    4  A    between atoms: C7_10  and  C8_11 
REMARK       I    between atoms: C8_11  and  N2_13 
REMARK    5  A    between atoms: N2_13  and  C9_14 
REMARK    6  A    between atoms: C11_16  and  C12_17 
REMARK    7  A    between atoms: C20_25  and  N3_26 
ROOT
ATOM      1  C8  NON d   1      27.201 -15.520   0.516  0.00  0.00     0.256 C 
ATOM      2  O3  NON d   1      28.364 -15.917   0.453  0.00  0.00    -0.267 OA
ATOM      3  N2  NON d   1      26.801 -14.290   1.012  0.00  0.00    -0.321 N 
ATOM      4  H9  NON d   1      25.840 -14.021   0.867  0.00  0.00     0.169 HD
ENDROOT
BRANCH   3   5
ATOM      5  C9  NON d   1      27.620 -13.296   1.640  0.00  0.00     0.057 A 
ATOM      6  C10 NON d   1      27.122 -11.968   1.602  0.00  0.00     0.043 A 
ATOM      7  C11 NON d   1      27.801 -10.858   2.166  0.00  0.00    -0.024 A 
ATOM      8  C18 NON d   1      29.008 -11.162   2.813  0.00  0.00     0.014 A 
ATOM      9  C19 NON d   1      29.500 -12.466   2.898  0.00  0.00     0.026 A 
ATOM     10  C20 NON d   1      28.845 -13.541   2.290  0.00  0.00     0.033 A 
BRANCH   7  11
ATOM     11  C12 NON d   1      27.282  -9.448   2.100  0.00  0.00    -0.026 A 
ATOM     12  C13 NON d   1      27.790  -8.414   2.911  0.00  0.00     0.012 A 
ATOM     13  C14 NON d   1      27.302  -7.098   2.841  0.00  0.00     0.001 A 
ATOM     14  C15 NON d   1      26.285  -6.771   1.954  0.00  0.00     0.000 A 
ATOM     15  C16 NON d   1      25.754  -7.760   1.140  0.00  0.00     0.001 A 
ATOM     16  C17 NON d   1      26.245  -9.071   1.217  0.00  0.00     0.012 A 
ENDBRANCH   7  11
BRANCH  10  17
ATOM     17  N3  NON d   1      29.317 -14.825   2.628  0.00  0.00    -0.301 NA
ATOM     18  H18 NON d   1      28.538 -15.492   2.647  0.00  0.00     0.124 HD
ATOM     19  H19 NON d   1      30.028 -15.167   1.993  0.00  0.00     0.124 HD
ENDBRANCH  10  17
ENDBRANCH   3   5
BRANCH   1  20
ATOM     20  C7  NON d   1      26.150 -16.444  -0.009  0.00  0.00     0.032 A 
ATOM     21  C6  NON d   1      26.043 -17.793   0.338  0.00  0.00     0.017 A 
ATOM     22  C5  NON d   1      24.966 -18.557  -0.143  0.00  0.00     0.010 A 
ATOM     23  C4  NON d   1      23.974 -17.996  -0.971  0.00  0.00    -0.040 A 
ATOM     24  C22 NON d   1      24.114 -16.655  -1.344  0.00  0.00     0.010 A 
ATOM     25  C21 NON d   1      25.179 -15.889  -0.857  0.00  0.00     0.017 A 
BRANCH  23  26
ATOM     26  C3  NON d   1      22.822 -18.869  -1.420  0.00  0.00     0.163 C 
BRANCH  26  27
ATOM     27  N1  NON d   1      21.950 -19.328  -0.366  0.00  0.00    -0.333 N 
ATOM     28  C2  NON d   1      20.604 -19.124  -0.426  0.00  0.00     0.360 C 
ATOM     29  O2  NON d   1      20.031 -18.453  -1.270  0.00  0.00    -0.239 OA
ATOM     30  H4  NON d   1      22.227 -20.089   0.235  0.00  0.00     0.165 HD
BRANCH  28  31
ATOM     31  O1  NON d   1      20.014 -19.805   0.584  0.00  0.00    -0.309 OA
ATOM     32  C1  NON d   1      18.774 -20.452   0.282  0.00  0.00     0.215 C 
ENDBRANCH  28  31
ENDBRANCH  26  27
ENDBRANCH  23  26
ENDBRANCH   1  20
TORSDOF 7
ENDMDL
MODEL 8
REMARK VINA RESULT:    -7.300      2.309      2.577
REMARK INTER + INTRA:         -11.194
REMARK INTER:                  -9.388
REMARK INTRA:                  -1.806
REMARK CONF_INDEPENDENT:        2.088
REMARK UNBOUND:                -1.806
REMARK  7 active torsions:
REMARK  status: ('A' for Active; 'I' for Inactive)
REMARK    1  A    between atoms: O1_2  and  C2_3 
REMARK       I    between atoms: C2_3  and  N1_5 
REMARK    2  A    between atoms: N1_5  and  C3_6 
REMARK    3  A    between atoms: C3_6  and  C4_7 
REMARK    4  A    between atoms: C7_10  and  C8_11 
REMARK       I    between atoms: C8_11  and  N2_13 
REMARK    5  A    between atoms: N2_13  and  C9_14 
REMARK    6  A    between atoms: C11_16  and  C12_17 
REMARK    7  A    between atoms: C20_25  and  N3_26 
ROOT
ATOM      1  C8  NON d   1      27.019 -16.328   0.376  0.00  0.00     0.256 C 
ATOM      2  O3  NON d   1      27.970 -17.108   0.392  0.00  0.00    -0.267 OA
ATOM      3  N2  NON d   1      27.093 -14.970   0.638  0.00  0.00    -0.321 N 
ATOM      4  H9  NON d   1      26.275 -14.413   0.442  0.00  0.00     0.169 HD
ENDROOT
BRANCH   3   5
ATOM      5  C9  NON d   1      28.237 -14.229   1.080  0.00  0.00     0.057 A 
ATOM      6  C10 NON d   1      27.966 -13.086   1.877  0.00  0.00     0.043 A 
ATOM      7  C11 NON d   1      28.974 -12.234   2.395  0.00  0.00    -0.024 A 
ATOM      8  C18 NON d   1      30.291 -12.616   2.099  0.00  0.00     0.014 A 
ATOM      9  C19 NON d   1      30.585 -13.757   1.350  0.00  0.00     0.026 A 
ATOM     10  C20 NON d   1      29.578 -14.557   0.801  0.00  0.00     0.033 A 
BRANCH   7  11
ATOM     11  C12 NON d   1      28.681 -11.008   3.216  0.00  0.00    -0.026 A 
ATOM     12  C13 NON d   1      27.372 -10.630   3.576  0.00  0.00     0.012 A 
ATOM     13  C14 NON d   1      27.107  -9.486   4.346  0.00  0.00     0.001 A 
ATOM     14  C15 NON d   1      28.147  -8.676   4.783  0.00  0.00     0.000 A 
ATOM     15  C16 NON d   1      29.450  -9.009   4.449  0.00  0.00     0.001 A 
ATOM     16  C17 NON d   1      29.707 -10.152   3.679  0.00  0.00     0.012 A 
ENDBRANCH   7  11
BRANCH  10  17
ATOM     17  N3  NON d   1      29.993 -15.788   0.257  0.00  0.00    -0.301 NA
ATOM     18  H18 NON d   1      29.972 -16.517   0.979  0.00  0.00     0.124 HD
ATOM     19  H19 NON d   1      29.429 -16.087  -0.529  0.00  0.00     0.124 HD
ENDBRANCH  10  17
ENDBRANCH   3   5
BRANCH   1  20
ATOM     20  C7  NON d   1      25.686 -16.905   0.021  0.00  0.00     0.032 A 
ATOM     21  C6  NON d   1      24.645 -16.181  -0.562  0.00  0.00     0.017 A 
ATOM     22  C5  NON d   1      23.459 -16.836  -0.937  0.00  0.00     0.010 A 
ATOM     23  C4  NON d   1      23.289 -18.221  -0.744  0.00  0.00    -0.040 A 
ATOM     24  C22 NON d   1      24.323 -18.928  -0.121  0.00  0.00     0.010 A 
ATOM     25  C21 NON d   1      25.508 -18.280   0.242  0.00  0.00     0.017 A 
BRANCH  23  26
ATOM     26  C3  NON d   1      21.999 -18.867  -1.207  0.00  0.00     0.163 C 
BRANCH  26  27
ATOM     27  N1  NON d   1      21.258 -19.562  -0.183  0.00  0.00    -0.333 N 
ATOM     28  C2  NON d   1      19.977 -19.972  -0.397  0.00  0.00     0.360 C 
ATOM     29  O2  NON d   1      19.304 -19.698  -1.378  0.00  0.00    -0.239 OA
ATOM     30  H4  NON d   1      21.738 -20.068   0.546  0.00  0.00     0.165 HD
BRANCH  28  31
ATOM     31  O1  NON d   1      19.588 -20.747   0.643  0.00  0.00    -0.309 OA
ATOM     32  C1  NON d   1      18.246 -21.245   0.603  0.00  0.00     0.215 C 
ENDBRANCH  28  31
ENDBRANCH  26  27
ENDBRANCH  23  26
ENDBRANCH   1  20
TORSDOF 7
ENDMDL
MODEL 9
REMARK VINA RESULT:    -7.297      4.680      7.442
REMARK INTER + INTRA:         -11.249
REMARK INTER:                  -9.386
REMARK INTRA:                  -1.864
REMARK CONF_INDEPENDENT:        2.088
REMARK UNBOUND:                -1.864
REMARK  7 active torsions:
REMARK  status: ('A' for Active; 'I' for Inactive)
REMARK    1  A    between atoms: O1_2  and  C2_3 
REMARK       I    between atoms: C2_3  and  N1_5 
REMARK    2  A    between atoms: N1_5  and  C3_6 
REMARK    3  A    between atoms: C3_6  and  C4_7 
REMARK    4  A    between atoms: C7_10  and  C8_11 
REMARK       I    between atoms: C8_11  and  N2_13 
REMARK    5  A    between atoms: N2_13  and  C9_14 
REMARK    6  A    between atoms: C11_16  and  C12_17 
REMARK    7  A    between atoms: C20_25  and  N3_26 
ROOT
ATOM      1  C8  NON d   1      27.100 -16.529  -0.566  0.00  0.00     0.256 C 
ATOM      2  O3  NON d   1      27.473 -15.801   0.352  0.00  0.00    -0.267 OA
ATOM      3  N2  NON d   1      27.918 -17.058  -1.551  0.00  0.00    -0.321 N 
ATOM      4  H9  NON d   1      27.522 -17.762  -2.155  0.00  0.00     0.169 HD
ENDROOT
BRANCH   3   5
ATOM      5  C9  NON d   1      29.308 -16.785  -1.768  0.00  0.00     0.057 A 
ATOM      6  C10 NON d   1      29.746 -16.837  -3.117  0.00  0.00     0.043 A 
ATOM      7  C11 NON d   1      31.087 -16.601  -3.516  0.00  0.00    -0.024 A 
ATOM      8  C18 NON d   1      31.970 -16.270  -2.478  0.00  0.00     0.014 A 
ATOM      9  C19 NON d   1      31.555 -16.175  -1.148  0.00  0.00     0.026 A 
ATOM     10  C20 NON d   1      30.242 -16.463  -0.765  0.00  0.00     0.033 A 
BRANCH   7  11
ATOM     11  C12 NON d   1      31.553 -16.683  -4.943  0.00  0.00    -0.026 A 
ATOM     12  C13 NON d   1      30.776 -17.267  -5.963  0.00  0.00     0.012 A 
ATOM     13  C14 NON d   1      31.217 -17.336  -7.295  0.00  0.00     0.001 A 
ATOM     14  C15 NON d   1      32.457 -16.823  -7.653  0.00  0.00     0.000 A 
ATOM     15  C16 NON d   1      33.255 -16.243  -6.680  0.00  0.00     0.001 A 
ATOM     16  C17 NON d   1      32.809 -16.178  -5.353  0.00  0.00     0.012 A 
ENDBRANCH   7  11
BRANCH  10  17
ATOM     17  N3  NON d   1      29.894 -16.123   0.558  0.00  0.00    -0.301 NA
ATOM     18  H18 NON d   1      29.434 -15.206   0.576  0.00  0.00     0.124 HD
ATOM     19  H19 NON d   1      29.288 -16.805   0.998  0.00  0.00     0.124 HD
ENDBRANCH  10  17
ENDBRANCH   3   5
BRANCH   1  20
ATOM     20  C7  NON d   1      25.647 -16.880  -0.593  0.00  0.00     0.032 A 
ATOM     21  C6  NON d   1      24.636 -16.011  -1.009  0.00  0.00     0.017 A 
ATOM     22  C5  NON d   1      23.308 -16.465  -1.080  0.00  0.00     0.010 A 
ATOM     23  C4  NON d   1      22.960 -17.788  -0.745  0.00  0.00    -0.040 A 
ATOM     24  C22 NON d   1      23.976 -18.636  -0.290  0.00  0.00     0.010 A 
ATOM     25  C21 NON d   1      25.301 -18.190  -0.230  0.00  0.00     0.017 A 
BRANCH  23  26
ATOM     26  C3  NON d   1      21.515 -18.219  -0.882  0.00  0.00     0.163 C 
BRANCH  26  27
ATOM     27  N1  NON d   1      21.080 -19.220   0.061  0.00  0.00    -0.333 N 
ATOM     28  C2  NON d   1      19.938 -19.933  -0.145  0.00  0.00     0.360 C 
ATOM     29  O2  NON d   1      19.131 -19.726  -1.037  0.00  0.00    -0.239 OA
ATOM     30  H4  NON d   1      21.741 -19.667   0.678  0.00  0.00     0.165 HD
BRANCH  28  31
ATOM     31  O1  NON d   1      19.864 -20.917   0.782  0.00  0.00    -0.309 OA
ATOM     32  C1  NON d   1      18.566 -21.201   1.313  0.00  0.00     0.215 C 
ENDBRANCH  28  31
ENDBRANCH  26  27
ENDBRANCH  23  26
ENDBRANCH   1  20
TORSDOF 7
ENDMDL
