MODEL 1
REMARK VINA RESULT:   -11.053      0.000      0.000
REMARK INTER + INTRA:         -15.339
REMARK INTER:                 -13.141
REMARK INTRA:                  -2.198
REMARK CONF_INDEPENDENT:        2.088
REMARK UNBOUND:                -2.198
REMARK  7 active torsions:
REMARK  status: ('A' for Active; 'I' for Inactive)
REMARK    1  A    between atoms: C2_2  and  C5_5 
REMARK    2  A    between atoms: C13_14  and  C12_13 
REMARK    3  A    between atoms: N2_18  and  C17_19 
REMARK    4  A    between atoms: C17_19  and  C18_20 
REMARK    5  A    between atoms: C21_23  and  C22_24 
REMARK    6  A    between atoms: C23_25  and  C24_26 
REMARK       I    between atoms: C24_26  and  N3_28 
REMARK    7  A    between atoms: N3_28  and  O2_29 
ROOT
ATOM      1  C13 NON d   1      27.274 -12.353   1.185  0.00  0.00     0.047 C 
ATOM      2  C14 NON d   1      28.626 -12.156   0.400  0.00  0.00     0.013 C 
ATOM      3  C15 NON d   1      28.656 -12.861  -0.976  0.00  0.00     0.028 C 
ATOM      4  C16 NON d   1      28.449 -14.376  -0.927  0.00  0.00     0.235 C 
ATOM      5  N2  NON d   1      27.916 -14.747   0.428  0.00  0.00    -0.066 N 
ATOM      6  C27 NON d   1      26.725 -13.774   0.734  0.00  0.00     0.244 C 
ATOM      7  H22 NON d   1      28.647 -14.543   1.118  0.00  0.00     0.280 HD
ENDROOT
BRANCH   5   8
ATOM      8  C17 NON d   1      27.678 -16.252   0.613  0.00  0.00     0.276 C 
BRANCH   8   9
ATOM      9  C18 NON d   1      26.392 -16.833   0.029  0.00  0.00     0.006 A 
ATOM     10  C19 NON d   1      25.686 -16.314  -1.065  0.00  0.00     0.013 A 
ATOM     11  C20 NON d   1      24.453 -16.866  -1.473  0.00  0.00     0.012 A 
ATOM     12  C21 NON d   1      23.898 -17.985  -0.836  0.00  0.00    -0.033 A 
ATOM     13  C25 NON d   1      24.651 -18.575   0.185  0.00  0.00     0.054 A 
ATOM     14  C26 NON d   1      25.865 -18.001   0.603  0.00  0.00     0.125 A 
ATOM     15  F1  NON d   1      26.547 -18.596   1.591  0.00  0.00    -0.205 F 
BRANCH  12  16
ATOM     16  C22 NON d   1      22.589 -18.566  -1.224  0.00  0.00     0.017 C 
ATOM     17  C23 NON d   1      21.640 -18.967  -0.361  0.00  0.00     0.077 C 
BRANCH  17  18
ATOM     18  C24 NON d   1      20.351 -19.576  -0.826  0.00  0.00     0.264 C 
ATOM     19  O1  NON d   1      20.084 -19.700  -2.020  0.00  0.00    -0.266 OA
ATOM     20  N3  NON d   1      19.563 -19.974   0.232  0.00  0.00    -0.234 N 
ATOM     21  H29 NON d   1      19.709 -19.582   1.155  0.00  0.00     0.197 HD
BRANCH  20  22
ATOM     22  O2  NON d   1      18.216 -20.269  -0.078  0.00  0.00    -0.287 OA
ATOM     23  H30 NON d   1      18.165 -20.035  -1.023  0.00  0.00     0.244 HD
ENDBRANCH  20  22
ENDBRANCH  17  18
ENDBRANCH  12  16
ENDBRANCH   8   9
ENDBRANCH   5   8
BRANCH   1  24
ATOM     24  C12 NON d   1      27.377 -11.671   2.746  0.00  0.00    -0.017 A 
ATOM     25  C11 NON d   1      27.780 -12.605   3.787  0.00  0.00    -0.001 A 
ATOM     26  C10 NON d   1      28.141 -13.978   3.793  0.00  0.00     0.014 A 
ATOM     27  C6  NON d   1      27.780 -11.940   4.996  0.00  0.00     0.043 A 
ATOM     28  C9  NON d   1      28.434 -14.632   4.992  0.00  0.00     0.001 A 
ATOM     29  C8  NON d   1      28.430 -13.926   6.184  0.00  0.00     0.002 A 
ATOM     30  C7  NON d   1      28.121 -12.564   6.205  0.00  0.00     0.030 A 
ATOM     31  N1  NON d   1      27.417 -10.640   4.770  0.00  0.00    -0.358 N 
ATOM     32  C5  NON d   1      27.108 -10.342   3.433  0.00  0.00     0.025 A 
ATOM     33  H10 NON d   1      27.411  -9.981   5.535  0.00  0.00     0.166 HD
BRANCH  32  34
ATOM     34  C2  NON d   1      26.729  -8.986   2.809  0.00  0.00    -0.008 C 
ATOM     35  C1  NON d   1      26.350  -7.630   2.186  0.00  0.00     0.021 C 
ATOM     36  C3  NON d   1      28.029  -8.370   3.359  0.00  0.00     0.021 C 
ATOM     37  C4  NON d   1      25.429  -9.602   2.260  0.00  0.00     0.021 C 
ENDBRANCH  32  34
ENDBRANCH   1  24
TORSDOF 7
ENDMDL
MODEL 2
REMARK VINA RESULT:   -10.853      2.877      5.748
REMARK INTER + INTRA:         -15.587
REMARK INTER:                 -12.941
REMARK INTRA:                  -2.646
REMARK CONF_INDEPENDENT:        2.088
REMARK UNBOUND:                -2.646
REMARK  7 active torsions:
REMARK  status: ('A' for Active; 'I' for Inactive)
REMARK    1  A    between atoms: C2_2  and  C5_5 
REMARK    2  A    between atoms: C13_14  and  C12_13 
REMARK    3  A    between atoms: N2_18  and  C17_19 
REMARK    4  A    between atoms: C17_19  and  C18_20 
REMARK    5  A    between atoms: C21_23  and  C22_24 
REMARK    6  A    between atoms: C23_25  and  C24_26 
REMARK       I    between atoms: C24_26  and  N3_28 
REMARK    7  A    between atoms: N3_28  and  O2_29 
ROOT
ATOM      1  C13 NON d   1      27.960 -12.509  -1.293  0.00  0.00     0.047 C 
ATOM      2  C14 NON d   1      27.455 -12.018   0.116  0.00  0.00     0.013 C 
ATOM      3  C15 NON d   1      28.250 -12.610   1.304  0.00  0.00     0.028 C 
ATOM      4  C16 NON d   1      28.233 -14.137   1.392  0.00  0.00     0.235 C 
ATOM      5  N2  NON d   1      27.732 -14.690   0.087  0.00  0.00    -0.066 N 
ATOM      6  C27 NON d   1      28.533 -13.972  -1.052  0.00  0.00     0.244 C 
ATOM      7  H22 NON d   1      26.752 -14.406  -0.017  0.00  0.00     0.280 HD
ENDROOT
BRANCH   5   8
ATOM      8  C17 NON d   1      27.652 -16.223   0.051  0.00  0.00     0.276 C 
BRANCH   8   9
ATOM      9  C18 NON d   1      26.274 -16.846  -0.163  0.00  0.00     0.006 A 
ATOM     10  C19 NON d   1      25.812 -18.027   0.433  0.00  0.00     0.013 A 
ATOM     11  C20 NON d   1      24.555 -18.575   0.099  0.00  0.00     0.012 A 
ATOM     12  C21 NON d   1      23.692 -17.945  -0.808  0.00  0.00    -0.033 A 
ATOM     13  C25 NON d   1      24.100 -16.710  -1.322  0.00  0.00     0.054 A 
ATOM     14  C26 NON d   1      25.366 -16.185  -1.005  0.00  0.00     0.125 A 
ATOM     15  F1  NON d   1      25.718 -15.002  -1.529  0.00  0.00    -0.205 F 
BRANCH  12  16
ATOM     16  C22 NON d   1      22.379 -18.516  -1.201  0.00  0.00     0.017 C 
ATOM     17  C23 NON d   1      21.505 -19.085  -0.354  0.00  0.00     0.077 C 
BRANCH  17  18
ATOM     18  C24 NON d   1      20.208 -19.671  -0.829  0.00  0.00     0.264 C 
ATOM     19  O1  NON d   1      19.905 -19.700  -2.020  0.00  0.00    -0.266 OA
ATOM     20  N3  NON d   1      19.458 -20.164   0.216  0.00  0.00    -0.234 N 
ATOM     21  H29 NON d   1      19.629 -19.848   1.164  0.00  0.00     0.197 HD
BRANCH  20  22
ATOM     22  O2  NON d   1      18.106 -20.450  -0.076  0.00  0.00    -0.287 OA
ATOM     23  H30 NON d   1      18.029 -20.162  -1.003  0.00  0.00     0.244 HD
ENDBRANCH  20  22
ENDBRANCH  17  18
ENDBRANCH  12  16
ENDBRANCH   8   9
ENDBRANCH   5   8
BRANCH   1  24
ATOM     24  C12 NON d   1      26.943 -11.929  -2.535  0.00  0.00    -0.017 A 
ATOM     25  C11 NON d   1      26.730 -10.488  -2.516  0.00  0.00    -0.001 A 
ATOM     26  C10 NON d   1      27.208  -9.432  -1.698  0.00  0.00     0.014 A 
ATOM     27  C6  NON d   1      25.861 -10.162  -3.536  0.00  0.00     0.043 A 
ATOM     28  C9  NON d   1      26.768  -8.122  -1.898  0.00  0.00     0.001 A 
ATOM     29  C8  NON d   1      25.901  -7.833  -2.939  0.00  0.00     0.002 A 
ATOM     30  C7  NON d   1      25.446  -8.845  -3.788  0.00  0.00     0.030 A 
ATOM     31  N1  NON d   1      25.531 -11.311  -4.204  0.00  0.00    -0.358 N 
ATOM     32  C5  NON d   1      26.100 -12.480  -3.673  0.00  0.00     0.025 A 
ATOM     33  H10 NON d   1      24.941 -11.264  -5.021  0.00  0.00     0.166 HD
BRANCH  32  34
ATOM     34  C2  NON d   1      26.003 -13.924  -4.198  0.00  0.00    -0.008 C 
ATOM     35  C1  NON d   1      25.905 -15.369  -4.722  0.00  0.00     0.021 C 
ATOM     36  C3  NON d   1      27.509 -13.910  -4.519  0.00  0.00     0.021 C 
ATOM     37  C4  NON d   1      24.497 -13.939  -3.876  0.00  0.00     0.021 C 
ENDBRANCH  32  34
ENDBRANCH   1  24
TORSDOF 7
ENDMDL
MODEL 3
REMARK VINA RESULT:   -10.518      4.300      7.379
REMARK INTER + INTRA:         -15.217
REMARK INTER:                 -12.606
REMARK INTRA:                  -2.610
REMARK CONF_INDEPENDENT:        2.088
REMARK UNBOUND:                -2.610
REMARK  7 active torsions:
REMARK  status: ('A' for Active; 'I' for Inactive)
REMARK    1  A    between atoms: C2_2  and  C5_5 
REMARK    2  A    between atoms: C13_14  and  C12_13 
REMARK    3  A    between atoms: N2_18  and  C17_19 
REMARK    4  A    between atoms: C17_19  and  C18_20 
REMARK    5  A    between atoms: C21_23  and  C22_24 
REMARK    6  A    between atoms: C23_25  and  C24_26 
REMARK       I    between atoms: C24_26  and  N3_28 
REMARK    7  A    between atoms: N3_28  and  O2_29 
ROOT
ATOM      1  C13 NON d   1      30.026 -16.780  -2.651  0.00  0.00     0.047 C 
ATOM      2  C14 NON d   1      31.118 -15.834  -2.023  0.00  0.00     0.013 C 
ATOM      3  C15 NON d   1      31.525 -16.223  -0.582  0.00  0.00     0.028 C 
ATOM      4  C16 NON d   1      30.380 -16.226   0.432  0.00  0.00     0.235 C 
ATOM      5  N2  NON d   1      29.075 -16.188  -0.314  0.00  0.00    -0.066 N 
ATOM      6  C27 NON d   1      29.151 -17.290  -1.426  0.00  0.00     0.244 C 
ATOM      7  H22 NON d   1      29.018 -15.286  -0.797  0.00  0.00     0.280 HD
ENDROOT
BRANCH   5   8
ATOM      8  C17 NON d   1      27.838 -16.172   0.595  0.00  0.00     0.276 C 
BRANCH   8   9
ATOM      9  C18 NON d   1      26.534 -16.709   0.010  0.00  0.00     0.006 A 
ATOM     10  C19 NON d   1      25.656 -15.995  -0.815  0.00  0.00     0.013 A 
ATOM     11  C20 NON d   1      24.425 -16.547  -1.230  0.00  0.00     0.012 A 
ATOM     12  C21 NON d   1      24.042 -17.848  -0.875  0.00  0.00    -0.033 A 
ATOM     13  C25 NON d   1      24.963 -18.605  -0.144  0.00  0.00     0.054 A 
ATOM     14  C26 NON d   1      26.175 -18.038   0.288  0.00  0.00     0.125 A 
ATOM     15  F1  NON d   1      27.022 -18.799   0.995  0.00  0.00    -0.205 F 
BRANCH  12  16
ATOM     16  C22 NON d   1      22.740 -18.441  -1.270  0.00  0.00     0.017 C 
ATOM     17  C23 NON d   1      21.796 -18.865  -0.412  0.00  0.00     0.077 C 
BRANCH  17  18
ATOM     18  C24 NON d   1      20.515 -19.485  -0.885  0.00  0.00     0.264 C 
ATOM     19  O1  NON d   1      20.298 -19.700  -2.076  0.00  0.00    -0.266 OA
ATOM     20  N3  NON d   1      19.674 -19.781   0.165  0.00  0.00    -0.234 N 
ATOM     21  H29 NON d   1      19.789 -19.320   1.060  0.00  0.00     0.197 HD
BRANCH  20  22
ATOM     22  O2  NON d   1      18.336 -20.075  -0.181  0.00  0.00    -0.287 OA
ATOM     23  H30 NON d   1      18.307 -19.831  -1.124  0.00  0.00     0.244 HD
ENDBRANCH  20  22
ENDBRANCH  17  18
ENDBRANCH  12  16
ENDBRANCH   8   9
ENDBRANCH   5   8
BRANCH   1  24
ATOM     24  C12 NON d   1      29.529 -16.198  -4.176  0.00  0.00    -0.017 A 
ATOM     25  C11 NON d   1      28.424 -15.251  -4.130  0.00  0.00    -0.001 A 
ATOM     26  C10 NON d   1      27.669 -14.669  -3.079  0.00  0.00     0.014 A 
ATOM     27  C6  NON d   1      28.096 -14.898  -5.423  0.00  0.00     0.043 A 
ATOM     28  C9  NON d   1      26.603 -13.811  -3.359  0.00  0.00     0.001 A 
ATOM     29  C8  NON d   1      26.311 -13.475  -4.670  0.00  0.00     0.002 A 
ATOM     30  C7  NON d   1      27.063 -13.998  -5.724  0.00  0.00     0.030 A 
ATOM     31  N1  NON d   1      28.942 -15.556  -6.275  0.00  0.00    -0.358 N 
ATOM     32  C5  NON d   1      29.855 -16.417  -5.645  0.00  0.00     0.025 A 
ATOM     33  H10 NON d   1      28.888 -15.382  -7.267  0.00  0.00     0.166 HD
BRANCH  32  34
ATOM     34  C2  NON d   1      30.982 -17.256  -6.275  0.00  0.00    -0.008 C 
ATOM     35  C1  NON d   1      32.109 -18.095  -6.905  0.00  0.00     0.021 C 
ATOM     36  C3  NON d   1      30.435 -18.515  -5.576  0.00  0.00     0.021 C 
ATOM     37  C4  NON d   1      31.529 -15.997  -6.973  0.00  0.00     0.021 C 
ENDBRANCH  32  34
ENDBRANCH   1  24
TORSDOF 7
ENDMDL
MODEL 4
REMARK VINA RESULT:   -10.437      2.069      2.784
REMARK INTER + INTRA:         -13.910
REMARK INTER:                 -12.525
REMARK INTRA:                  -1.385
REMARK CONF_INDEPENDENT:        2.088
REMARK UNBOUND:                -1.385
REMARK  7 active torsions:
REMARK  status: ('A' for Active; 'I' for Inactive)
REMARK    1  A    between atoms: C2_2  and  C5_5 
REMARK    2  A    between atoms: C13_14  and  C12_13 
REMARK    3  A    between atoms: N2_18  and  C17_19 
REMARK    4  A    between atoms: C17_19  and  C18_20 
REMARK    5  A    between atoms: C21_23  and  C22_24 
REMARK    6  A    between atoms: C23_25  and  C24_26 
REMARK       I    between atoms: C24_26  and  N3_28 
REMARK    7  A    between atoms: N3_28  and  O2_29 
ROOT
ATOM      1  C13 NON d   1      30.221 -14.017   1.246  0.00  0.00     0.047 C 
ATOM      2  C14 NON d   1      31.213 -14.815   2.174  0.00  0.00     0.013 C 
ATOM      3  C15 NON d   1      32.213 -15.704   1.399  0.00  0.00     0.028 C 
ATOM      4  C16 NON d   1      31.570 -16.768   0.507  0.00  0.00     0.235 C 
ATOM      5  N2  NON d   1      30.111 -16.444   0.344  0.00  0.00    -0.066 N 
ATOM      6  C27 NON d   1      30.020 -14.927  -0.041  0.00  0.00     0.244 C 
ATOM      7  H22 NON d   1      29.665 -16.542   1.262  0.00  0.00     0.280 HD
ENDROOT
BRANCH   5   8
ATOM      8  C17 NON d   1      29.342 -17.451  -0.523  0.00  0.00     0.276 C 
BRANCH   8   9
ATOM      9  C18 NON d   1      27.822 -17.475  -0.384  0.00  0.00     0.006 A 
ATOM     10  C19 NON d   1      27.105 -18.159   0.607  0.00  0.00     0.013 A 
ATOM     11  C20 NON d   1      25.694 -18.199   0.597  0.00  0.00     0.012 A 
ATOM     12  C21 NON d   1      24.942 -17.523  -0.374  0.00  0.00    -0.033 A 
ATOM     13  C25 NON d   1      25.649 -16.748  -1.300  0.00  0.00     0.054 A 
ATOM     14  C26 NON d   1      27.055 -16.737  -1.299  0.00  0.00     0.125 A 
ATOM     15  F1  NON d   1      27.690 -15.987  -2.211  0.00  0.00    -0.205 F 
BRANCH  12  16
ATOM     16  C22 NON d   1      23.460 -17.575  -0.427  0.00  0.00     0.017 C 
ATOM     17  C23 NON d   1      22.728 -18.701  -0.363  0.00  0.00     0.077 C 
BRANCH  17  18
ATOM     18  C24 NON d   1      21.231 -18.679  -0.455  0.00  0.00     0.264 C 
ATOM     19  O1  NON d   1      20.632 -17.826  -1.106  0.00  0.00    -0.266 OA
ATOM     20  N3  NON d   1      20.662 -19.719   0.248  0.00  0.00    -0.234 N 
ATOM     21  H29 NON d   1      21.183 -20.189   0.979  0.00  0.00     0.197 HD
BRANCH  20  22
ATOM     22  O2  NON d   1      19.273 -19.616   0.485  0.00  0.00    -0.287 OA
ATOM     23  H30 NON d   1      19.102 -18.673   0.306  0.00  0.00     0.244 HD
ENDBRANCH  20  22
ENDBRANCH  17  18
ENDBRANCH  12  16
ENDBRANCH   8   9
ENDBRANCH   5   8
BRANCH   1  24
ATOM     24  C12 NON d   1      29.064 -13.179   2.179  0.00  0.00    -0.017 A 
ATOM     25  C11 NON d   1      28.973 -13.618   3.564  0.00  0.00    -0.001 A 
ATOM     26  C10 NON d   1      29.663 -14.587   4.338  0.00  0.00     0.014 A 
ATOM     27  C6  NON d   1      27.977 -12.896   4.188  0.00  0.00     0.043 A 
ATOM     28  C9  NON d   1      29.304 -14.825   5.666  0.00  0.00     0.001 A 
ATOM     29  C8  NON d   1      28.303 -14.072   6.258  0.00  0.00     0.002 A 
ATOM     30  C7  NON d   1      27.634 -13.082   5.535  0.00  0.00     0.030 A 
ATOM     31  N1  NON d   1      27.450 -12.018   3.279  0.00  0.00    -0.358 N 
ATOM     32  C5  NON d   1      28.003 -12.107   1.991  0.00  0.00     0.025 A 
ATOM     33  H10 NON d   1      26.738 -11.363   3.568  0.00  0.00     0.166 HD
BRANCH  32  34
ATOM     34  C2  NON d   1      27.704 -11.244   0.751  0.00  0.00    -0.008 C 
ATOM     35  C1  NON d   1      27.405 -10.381  -0.489  0.00  0.00     0.021 C 
ATOM     36  C3  NON d   1      27.121 -12.476   0.034  0.00  0.00     0.021 C 
ATOM     37  C4  NON d   1      28.287 -10.012   1.467  0.00  0.00     0.021 C 
ENDBRANCH  32  34
ENDBRANCH   1  24
TORSDOF 7
ENDMDL
MODEL 5
REMARK VINA RESULT:   -10.378      1.931      3.841
REMARK INTER + INTRA:         -14.787
REMARK INTER:                 -12.466
REMARK INTRA:                  -2.321
REMARK CONF_INDEPENDENT:        2.088
REMARK UNBOUND:                -2.321
REMARK  7 active torsions:
REMARK  status: ('A' for Active; 'I' for Inactive)
REMARK    1  A    between atoms: C2_2  and  C5_5 
REMARK    2  A    between atoms: C13_14  and  C12_13 
REMARK    3  A    between atoms: N2_18  and  C17_19 
REMARK    4  A    between atoms: C17_19  and  C18_20 
REMARK    5  A    between atoms: C21_23  and  C22_24 
REMARK    6  A    between atoms: C23_25  and  C24_26 
REMARK       I    between atoms: C24_26  and  N3_28 
REMARK    7  A    between atoms: N3_28  and  O2_29 
ROOT
ATOM      1  C13 NON d   1      30.148 -13.560   1.821  0.00  0.00     0.047 C 
ATOM      2  C14 NON d   1      30.922 -14.546   2.774  0.00  0.00     0.013 C 
ATOM      3  C15 NON d   1      31.947 -15.444   2.042  0.00  0.00     0.028 C 
ATOM      4  C16 NON d   1      31.355 -16.338   0.951  0.00  0.00     0.235 C 
ATOM      5  N2  NON d   1      29.969 -15.855   0.630  0.00  0.00    -0.066 N 
ATOM      6  C27 NON d   1      30.062 -14.304   0.419  0.00  0.00     0.244 C 
ATOM      7  H22 NON d   1      29.386 -16.004   1.460  0.00  0.00     0.280 HD
ENDROOT
BRANCH   5   8
ATOM      8  C17 NON d   1      29.254 -16.683  -0.447  0.00  0.00     0.276 C 
BRANCH   8   9
ATOM      9  C18 NON d   1      27.757 -16.922  -0.265  0.00  0.00     0.006 A 
ATOM     10  C19 NON d   1      27.181 -18.000   0.421  0.00  0.00     0.013 A 
ATOM     11  C20 NON d   1      25.782 -18.186   0.454  0.00  0.00     0.012 A 
ATOM     12  C21 NON d   1      24.901 -17.282  -0.157  0.00  0.00    -0.033 A 
ATOM     13  C25 NON d   1      25.465 -16.146  -0.748  0.00  0.00     0.054 A 
ATOM     14  C26 NON d   1      26.860 -15.983  -0.800  0.00  0.00     0.125 A 
ATOM     15  F1  NON d   1      27.355 -14.883  -1.385  0.00  0.00    -0.205 F 
BRANCH  12  16
ATOM     16  C22 NON d   1      23.429 -17.472  -0.165  0.00  0.00     0.017 C 
ATOM     17  C23 NON d   1      22.803 -18.610  -0.510  0.00  0.00     0.077 C 
BRANCH  17  18
ATOM     18  C24 NON d   1      21.307 -18.718  -0.525  0.00  0.00     0.264 C 
ATOM     19  O1  NON d   1      20.595 -17.825  -0.980  0.00  0.00    -0.266 OA
ATOM     20  N3  NON d   1      20.878 -19.916   0.001  0.00  0.00    -0.234 N 
ATOM     21  H29 NON d   1      21.483 -20.456   0.609  0.00  0.00     0.197 HD
BRANCH  20  22
ATOM     22  O2  NON d   1      19.503 -19.993   0.319  0.00  0.00    -0.287 OA
ATOM     23  H30 NON d   1      19.239 -19.055   0.328  0.00  0.00     0.244 HD
ENDBRANCH  20  22
ENDBRANCH  17  18
ENDBRANCH  12  16
ENDBRANCH   8   9
ENDBRANCH   5   8
BRANCH   1  24
ATOM     24  C12 NON d   1      28.940 -12.714   2.680  0.00  0.00    -0.017 A 
ATOM     25  C11 NON d   1      28.252 -11.691   1.904  0.00  0.00    -0.001 A 
ATOM     26  C10 NON d   1      28.342 -11.248   0.559  0.00  0.00     0.014 A 
ATOM     27  C6  NON d   1      27.340 -11.059   2.724  0.00  0.00     0.043 A 
ATOM     28  C9  NON d   1      27.566 -10.178   0.109  0.00  0.00     0.001 A 
ATOM     29  C8  NON d   1      26.656  -9.575   0.961  0.00  0.00     0.002 A 
ATOM     30  C7  NON d   1      26.514 -10.017   2.279  0.00  0.00     0.030 A 
ATOM     31  N1  NON d   1      27.405 -11.637   3.963  0.00  0.00    -0.358 N 
ATOM     32  C5  NON d   1      28.371 -12.649   4.088  0.00  0.00     0.025 A 
ATOM     33  H10 NON d   1      26.770 -11.340   4.689  0.00  0.00     0.166 HD
BRANCH  32  34
ATOM     34  C2  NON d   1      28.675 -13.549   5.300  0.00  0.00    -0.008 C 
ATOM     35  C1  NON d   1      28.980 -14.449   6.512  0.00  0.00     0.021 C 
ATOM     36  C3  NON d   1      29.233 -12.333   6.063  0.00  0.00     0.021 C 
ATOM     37  C4  NON d   1      28.118 -14.765   4.537  0.00  0.00     0.021 C 
ENDBRANCH  32  34
ENDBRANCH   1  24
TORSDOF 7
ENDMDL
MODEL 6
REMARK VINA RESULT:   -10.355      4.332      7.683
REMARK INTER + INTRA:         -14.877
REMARK INTER:                 -12.443
REMARK INTRA:                  -2.433
REMARK CONF_INDEPENDENT:        2.088
REMARK UNBOUND:                -2.433
REMARK  7 active torsions:
REMARK  status: ('A' for Active; 'I' for Inactive)
REMARK    1  A    between atoms: C2_2  and  C5_5 
REMARK    2  A    between atoms: C13_14  and  C12_13 
REMARK    3  A    between atoms: N2_18  and  C17_19 
REMARK    4  A    between atoms: C17_19  and  C18_20 
REMARK    5  A    between atoms: C21_23  and  C22_24 
REMARK    6  A    between atoms: C23_25  and  C24_26 
REMARK       I    between atoms: C24_26  and  N3_28 
REMARK    7  A    between atoms: N3_28  and  O2_29 
ROOT
ATOM      1  C13 NON d   1      29.990 -17.075  -2.878  0.00  0.00     0.047 C 
ATOM      2  C14 NON d   1      31.193 -16.301  -2.219  0.00  0.00     0.013 C 
ATOM      3  C15 NON d   1      31.261 -16.449  -0.680  0.00  0.00     0.028 C 
ATOM      4  C16 NON d   1      30.021 -15.955   0.068  0.00  0.00     0.235 C 
ATOM      5  N2  NON d   1      28.902 -15.773  -0.918  0.00  0.00    -0.066 N 
ATOM      6  C27 NON d   1      28.838 -17.079  -1.783  0.00  0.00     0.244 C 
ATOM      7  H22 NON d   1      29.166 -15.012  -1.553  0.00  0.00     0.280 HD
ENDROOT
BRANCH   5   8
ATOM      8  C17 NON d   1      27.597 -15.263  -0.292  0.00  0.00     0.276 C 
BRANCH   8   9
ATOM      9  C18 NON d   1      26.366 -16.159  -0.414  0.00  0.00     0.006 A 
ATOM     10  C19 NON d   1      26.164 -17.364   0.272  0.00  0.00     0.013 A 
ATOM     11  C20 NON d   1      25.035 -18.172   0.021  0.00  0.00     0.012 A 
ATOM     12  C21 NON d   1      24.041 -17.789  -0.890  0.00  0.00    -0.033 A 
ATOM     13  C25 NON d   1      24.181 -16.536  -1.496  0.00  0.00     0.054 A 
ATOM     14  C26 NON d   1      25.323 -15.751  -1.261  0.00  0.00     0.125 A 
ATOM     15  F1  NON d   1      25.419 -14.561  -1.870  0.00  0.00    -0.205 F 
BRANCH  12  16
ATOM     16  C22 NON d   1      22.859 -18.634  -1.197  0.00  0.00     0.017 C 
ATOM     17  C23 NON d   1      21.597 -18.349  -0.835  0.00  0.00     0.077 C 
BRANCH  17  18
ATOM     18  C24 NON d   1      20.455 -19.269  -1.152  0.00  0.00     0.264 C 
ATOM     19  O1  NON d   1      20.303 -19.755  -2.271  0.00  0.00    -0.266 OA
ATOM     20  N3  NON d   1      19.657 -19.490  -0.051  0.00  0.00    -0.234 N 
ATOM     21  H29 NON d   1      19.671 -18.843   0.730  0.00  0.00     0.197 HD
BRANCH  20  22
ATOM     22  O2  NON d   1      18.399 -20.078  -0.309  0.00  0.00    -0.287 OA
ATOM     23  H30 NON d   1      18.303 -19.950  -1.270  0.00  0.00     0.244 HD
ENDBRANCH  20  22
ENDBRANCH  17  18
ENDBRANCH  12  16
ENDBRANCH   8   9
ENDBRANCH   5   8
BRANCH   1  24
ATOM     24  C12 NON d   1      29.902 -16.743  -4.549  0.00  0.00    -0.017 A 
ATOM     25  C11 NON d   1      30.505 -17.760  -5.399  0.00  0.00    -0.001 A 
ATOM     26  C10 NON d   1      31.138 -19.005  -5.148  0.00  0.00     0.014 A 
ATOM     27  C6  NON d   1      30.406 -17.348  -6.712  0.00  0.00     0.043 A 
ATOM     28  C9  NON d   1      31.680 -19.752  -6.196  0.00  0.00     0.001 A 
ATOM     29  C8  NON d   1      31.552 -19.308  -7.502  0.00  0.00     0.002 A 
ATOM     30  C7  NON d   1      30.897 -18.108  -7.785  0.00  0.00     0.030 A 
ATOM     31  N1  NON d   1      29.761 -16.141  -6.736  0.00  0.00    -0.358 N 
ATOM     32  C5  NON d   1      29.423 -15.633  -5.471  0.00  0.00     0.025 A 
ATOM     33  H10 NON d   1      29.549 -15.703  -7.620  0.00  0.00     0.166 HD
BRANCH  32  34
ATOM     34  C2  NON d   1      28.645 -14.350  -5.123  0.00  0.00    -0.008 C 
ATOM     35  C1  NON d   1      27.867 -13.068  -4.774  0.00  0.00     0.021 C 
ATOM     36  C3  NON d   1      29.837 -13.498  -5.597  0.00  0.00     0.021 C 
ATOM     37  C4  NON d   1      27.453 -15.202  -4.649  0.00  0.00     0.021 C 
ENDBRANCH  32  34
ENDBRANCH   1  24
TORSDOF 7
ENDMDL
MODEL 7
REMARK VINA RESULT:   -10.294      4.376      7.073
REMARK INTER + INTRA:         -14.996
REMARK INTER:                 -12.382
REMARK INTRA:                  -2.614
REMARK CONF_INDEPENDENT:        2.088
REMARK UNBOUND:                -2.614
REMARK  7 active torsions:
REMARK  status: ('A' for Active; 'I' for Inactive)
REMARK    1  A    between atoms: C2_2  and  C5_5 
REMARK    2  A    between atoms: C13_14  and  C12_13 
REMARK    3  A    between atoms: N2_18  and  C17_19 
REMARK    4  A    between atoms: C17_19  and  C18_20 
REMARK    5  A    between atoms: C21_23  and  C22_24 
REMARK    6  A    between atoms: C23_25  and  C24_26 
REMARK       I    between atoms: C24_26  and  N3_28 
REMARK    7  A    between atoms: N3_28  and  O2_29 
ROOT
ATOM      1  C13 NON d   1      29.251 -16.029  -3.434  0.00  0.00     0.047 C 
ATOM      2  C14 NON d   1      30.624 -15.536  -2.841  0.00  0.00     0.013 C 
ATOM      3  C15 NON d   1      31.135 -16.392  -1.658  0.00  0.00     0.028 C 
ATOM      4  C16 NON d   1      30.191 -16.458  -0.456  0.00  0.00     0.235 C 
ATOM      5  N2  NON d   1      28.839 -15.953  -0.877  0.00  0.00    -0.066 N 
ATOM      6  C27 NON d   1      28.472 -16.685  -2.214  0.00  0.00     0.244 C 
ATOM      7  H22 NON d   1      28.934 -14.957  -1.102  0.00  0.00     0.280 HD
ENDROOT
BRANCH   5   8
ATOM      8  C17 NON d   1      27.796 -15.953   0.250  0.00  0.00     0.276 C 
BRANCH   8   9
ATOM      9  C18 NON d   1      26.465 -16.647  -0.031  0.00  0.00     0.006 A 
ATOM     10  C19 NON d   1      26.176 -17.993   0.229  0.00  0.00     0.013 A 
ATOM     11  C20 NON d   1      24.946 -18.567  -0.154  0.00  0.00     0.012 A 
ATOM     12  C21 NON d   1      23.937 -17.812  -0.770  0.00  0.00    -0.033 A 
ATOM     13  C25 NON d   1      24.177 -16.444  -0.931  0.00  0.00     0.054 A 
ATOM     14  C26 NON d   1      25.416 -15.886  -0.572  0.00  0.00     0.125 A 
ATOM     15  F1  NON d   1      25.603 -14.571  -0.753  0.00  0.00    -0.205 F 
BRANCH  12  16
ATOM     16  C22 NON d   1      22.647 -18.398  -1.211  0.00  0.00     0.017 C 
ATOM     17  C23 NON d   1      21.704 -18.888  -0.387  0.00  0.00     0.077 C 
BRANCH  17  18
ATOM     18  C24 NON d   1      20.436 -19.496  -0.908  0.00  0.00     0.264 C 
ATOM     19  O1  NON d   1      20.257 -19.701  -2.106  0.00  0.00    -0.266 OA
ATOM     20  N3  NON d   1      19.557 -19.792   0.112  0.00  0.00    -0.234 N 
ATOM     21  H29 NON d   1      19.645 -19.337   1.013  0.00  0.00     0.197 HD
BRANCH  20  22
ATOM     22  O2  NON d   1      18.229 -20.074  -0.281  0.00  0.00    -0.287 OA
ATOM     23  H30 NON d   1      18.247 -19.869  -1.233  0.00  0.00     0.244 HD
ENDBRANCH  20  22
ENDBRANCH  17  18
ENDBRANCH  12  16
ENDBRANCH   8   9
ENDBRANCH   5   8
BRANCH   1  24
ATOM     24  C12 NON d   1      28.689 -14.950  -4.631  0.00  0.00    -0.017 A 
ATOM     25  C11 NON d   1      29.653 -14.661  -5.684  0.00  0.00    -0.001 A 
ATOM     26  C10 NON d   1      30.973 -15.104  -5.960  0.00  0.00     0.014 A 
ATOM     27  C6  NON d   1      29.091 -13.749  -6.553  0.00  0.00     0.043 A 
ATOM     28  C9  NON d   1      31.683 -14.590  -7.047  0.00  0.00     0.001 A 
ATOM     29  C8  NON d   1      31.080 -13.682  -7.902  0.00  0.00     0.002 A 
ATOM     30  C7  NON d   1      29.767 -13.259  -7.681  0.00  0.00     0.030 A 
ATOM     31  N1  NON d   1      27.825 -13.463  -6.117  0.00  0.00    -0.358 N 
ATOM     32  C5  NON d   1      27.458 -14.108  -4.924  0.00  0.00     0.025 A 
ATOM     33  H10 NON d   1      27.235 -12.850  -6.658  0.00  0.00     0.166 HD
BRANCH  32  34
ATOM     34  C2  NON d   1      26.107 -14.073  -4.185  0.00  0.00    -0.008 C 
ATOM     35  C1  NON d   1      24.757 -14.039  -3.446  0.00  0.00     0.021 C 
ATOM     36  C3  NON d   1      25.917 -15.576  -4.462  0.00  0.00     0.021 C 
ATOM     37  C4  NON d   1      26.298 -12.570  -3.908  0.00  0.00     0.021 C 
ENDBRANCH  32  34
ENDBRANCH   1  24
TORSDOF 7
ENDMDL
MODEL 8
REMARK VINA RESULT:    -9.936      2.522      3.693
REMARK INTER + INTRA:         -14.298
REMARK INTER:                 -12.024
REMARK INTRA:                  -2.274
REMARK CONF_INDEPENDENT:        2.088
REMARK UNBOUND:                -2.274
REMARK  7 active torsions:
REMARK  status: ('A' for Active; 'I' for Inactive)
REMARK    1  A    between atoms: C2_2  and  C5_5 
REMARK    2  A    between atoms: C13_14  and  C12_13 
REMARK    3  A    between atoms: N2_18  and  C17_19 
REMARK    4  A    between atoms: C17_19  and  C18_20 
REMARK    5  A    between atoms: C21_23  and  C22_24 
REMARK    6  A    between atoms: C23_25  and  C24_26 
REMARK       I    between atoms: C24_26  and  N3_28 
REMARK    7  A    between atoms: N3_28  and  O2_29 
ROOT
ATOM      1  C13 NON d   1      28.097 -13.530   1.316  0.00  0.00     0.047 C 
ATOM      2  C14 NON d   1      28.709 -12.508   0.285  0.00  0.00     0.013 C 
ATOM      3  C15 NON d   1      27.757 -12.152  -0.880  0.00  0.00     0.028 C 
ATOM      4  C16 NON d   1      27.307 -13.343  -1.730  0.00  0.00     0.235 C 
ATOM      5  N2  NON d   1      27.633 -14.611  -0.993  0.00  0.00    -0.066 N 
ATOM      6  C27 NON d   1      27.103 -14.439   0.472  0.00  0.00     0.244 C 
ATOM      7  H22 NON d   1      28.654 -14.683  -0.931  0.00  0.00     0.280 HD
ENDROOT
BRANCH   5   8
ATOM      8  C17 NON d   1      27.244 -15.889  -1.751  0.00  0.00     0.276 C 
BRANCH   8   9
ATOM      9  C18 NON d   1      26.038 -16.669  -1.231  0.00  0.00     0.006 A 
ATOM     10  C19 NON d   1      26.093 -17.805  -0.412  0.00  0.00     0.013 A 
ATOM     11  C20 NON d   1      24.925 -18.514  -0.061  0.00  0.00     0.012 A 
ATOM     12  C21 NON d   1      23.653 -18.095  -0.475  0.00  0.00    -0.033 A 
ATOM     13  C25 NON d   1      23.582 -16.901  -1.199  0.00  0.00     0.054 A 
ATOM     14  C26 NON d   1      24.753 -16.215  -1.568  0.00  0.00     0.125 A 
ATOM     15  F1  NON d   1      24.636 -15.080  -2.271  0.00  0.00    -0.205 F 
BRANCH  12  16
ATOM     16  C22 NON d   1      22.413 -18.840  -0.146  0.00  0.00     0.017 C 
ATOM     17  C23 NON d   1      21.349 -18.957  -0.959  0.00  0.00     0.077 C 
BRANCH  17  18
ATOM     18  C24 NON d   1      20.113 -19.700  -0.546  0.00  0.00     0.264 C 
ATOM     19  O1  NON d   1      19.095 -19.702  -1.234  0.00  0.00    -0.266 OA
ATOM     20  N3  NON d   1      20.292 -20.363   0.649  0.00  0.00    -0.234 N 
ATOM     21  H29 NON d   1      21.030 -20.083   1.285  0.00  0.00     0.197 HD
BRANCH  20  22
ATOM     22  O2  NON d   1      19.116 -20.830   1.278  0.00  0.00    -0.287 OA
ATOM     23  H30 NON d   1      18.469 -20.809   0.549  0.00  0.00     0.244 HD
ENDBRANCH  20  22
ENDBRANCH  17  18
ENDBRANCH  12  16
ENDBRANCH   8   9
ENDBRANCH   5   8
BRANCH   1  24
ATOM     24  C12 NON d   1      29.258 -13.979   2.483  0.00  0.00    -0.017 A 
ATOM     25  C11 NON d   1      28.817 -13.829   3.862  0.00  0.00    -0.001 A 
ATOM     26  C10 NON d   1      27.605 -13.409   4.469  0.00  0.00     0.014 A 
ATOM     27  C6  NON d   1      29.859 -14.181   4.696  0.00  0.00     0.043 A 
ATOM     28  C9  NON d   1      27.499 -13.314   5.858  0.00  0.00     0.001 A 
ATOM     29  C8  NON d   1      28.566 -13.685   6.660  0.00  0.00     0.002 A 
ATOM     30  C7  NON d   1      29.758 -14.142   6.094  0.00  0.00     0.030 A 
ATOM     31  N1  NON d   1      30.921 -14.559   3.919  0.00  0.00    -0.358 N 
ATOM     32  C5  NON d   1      30.702 -14.453   2.536  0.00  0.00     0.025 A 
ATOM     33  H10 NON d   1      31.763 -14.903   4.355  0.00  0.00     0.166 HD
BRANCH  32  34
ATOM     34  C2  NON d   1      31.637 -14.848   1.378  0.00  0.00    -0.008 C 
ATOM     35  C1  NON d   1      32.573 -15.242   0.220  0.00  0.00     0.021 C 
ATOM     36  C3  NON d   1      32.819 -14.179   2.105  0.00  0.00     0.021 C 
ATOM     37  C4  NON d   1      30.456 -15.516   0.651  0.00  0.00     0.021 C 
ENDBRANCH  32  34
ENDBRANCH   1  24
TORSDOF 7
ENDMDL
MODEL 9
REMARK VINA RESULT:    -9.792      2.409      3.730
REMARK INTER + INTRA:         -14.150
REMARK INTER:                 -11.880
REMARK INTRA:                  -2.270
REMARK CONF_INDEPENDENT:        2.088
REMARK UNBOUND:                -2.270
REMARK  7 active torsions:
REMARK  status: ('A' for Active; 'I' for Inactive)
REMARK    1  A    between atoms: C2_2  and  C5_5 
REMARK    2  A    between atoms: C13_14  and  C12_13 
REMARK    3  A    between atoms: N2_18  and  C17_19 
REMARK    4  A    between atoms: C17_19  and  C18_20 
REMARK    5  A    between atoms: C21_23  and  C22_24 
REMARK    6  A    between atoms: C23_25  and  C24_26 
REMARK       I    between atoms: C24_26  and  N3_28 
REMARK    7  A    between atoms: N3_28  and  O2_29 
ROOT
ATOM      1  C13 NON d   1      27.942 -13.548   1.443  0.00  0.00     0.047 C 
ATOM      2  C14 NON d   1      28.350 -12.400   0.445  0.00  0.00     0.013 C 
ATOM      3  C15 NON d   1      27.265 -12.078  -0.611  0.00  0.00     0.028 C 
ATOM      4  C16 NON d   1      26.871 -13.255  -1.507  0.00  0.00     0.235 C 
ATOM      5  N2  NON d   1      27.393 -14.524  -0.894  0.00  0.00    -0.066 N 
ATOM      6  C27 NON d   1      26.979 -14.506   0.618  0.00  0.00     0.244 C 
ATOM      7  H22 NON d   1      28.417 -14.485  -0.920  0.00  0.00     0.280 HD
ENDROOT
BRANCH   5   8
ATOM      8  C17 NON d   1      27.075 -15.785  -1.710  0.00  0.00     0.276 C 
BRANCH   8   9
ATOM      9  C18 NON d   1      25.909 -16.649  -1.235  0.00  0.00     0.006 A 
ATOM     10  C19 NON d   1      26.015 -17.793  -0.433  0.00  0.00     0.013 A 
ATOM     11  C20 NON d   1      24.886 -18.581  -0.124  0.00  0.00     0.012 A 
ATOM     12  C21 NON d   1      23.600 -18.235  -0.564  0.00  0.00    -0.033 A 
ATOM     13  C25 NON d   1      23.472 -17.034  -1.271  0.00  0.00     0.054 A 
ATOM     14  C26 NON d   1      24.606 -16.270  -1.597  0.00  0.00     0.125 A 
ATOM     15  F1  NON d   1      24.435 -15.132  -2.284  0.00  0.00    -0.205 F 
BRANCH  12  16
ATOM     16  C22 NON d   1      22.401 -19.062  -0.280  0.00  0.00     0.017 C 
ATOM     17  C23 NON d   1      21.197 -18.889  -0.851  0.00  0.00     0.077 C 
BRANCH  17  18
ATOM     18  C24 NON d   1      20.019 -19.745  -0.490  0.00  0.00     0.264 C 
ATOM     19  O1  NON d   1      18.973 -19.717  -1.135  0.00  0.00    -0.266 OA
ATOM     20  N3  NON d   1      20.283 -20.542   0.602  0.00  0.00    -0.234 N 
ATOM     21  H29 NON d   1      21.033 -20.304   1.241  0.00  0.00     0.197 HD
BRANCH  20  22
ATOM     22  O2  NON d   1      19.160 -21.149   1.210  0.00  0.00    -0.287 OA
ATOM     23  H30 NON d   1      18.511 -21.156   0.483  0.00  0.00     0.244 HD
ENDBRANCH  20  22
ENDBRANCH  17  18
ENDBRANCH  12  16
ENDBRANCH   8   9
ENDBRANCH   5   8
BRANCH   1  24
ATOM     24  C12 NON d   1      29.243 -13.939   2.476  0.00  0.00    -0.017 A 
ATOM     25  C11 NON d   1      30.399 -14.511   1.801  0.00  0.00    -0.001 A 
ATOM     26  C10 NON d   1      30.706 -14.798   0.445  0.00  0.00     0.014 A 
ATOM     27  C6  NON d   1      31.352 -14.820   2.750  0.00  0.00     0.043 A 
ATOM     28  C9  NON d   1      31.911 -15.415   0.104  0.00  0.00     0.001 A 
ATOM     29  C8  NON d   1      32.845 -15.702   1.086  0.00  0.00     0.002 A 
ATOM     30  C7  NON d   1      32.590 -15.393   2.424  0.00  0.00     0.030 A 
ATOM     31  N1  NON d   1      30.867 -14.459   3.978  0.00  0.00    -0.358 N 
ATOM     32  C5  NON d   1      29.564 -13.933   3.962  0.00  0.00     0.025 A 
ATOM     33  H10 NON d   1      31.448 -14.561   4.797  0.00  0.00     0.166 HD
BRANCH  32  34
ATOM     34  C2  NON d   1      28.736 -13.370   5.132  0.00  0.00    -0.008 C 
ATOM     35  C1  NON d   1      27.908 -12.808   6.303  0.00  0.00     0.021 C 
ATOM     36  C3  NON d   1      29.350 -11.978   4.897  0.00  0.00     0.021 C 
ATOM     37  C4  NON d   1      28.122 -14.763   5.367  0.00  0.00     0.021 C 
ENDBRANCH  32  34
ENDBRANCH   1  24
TORSDOF 7
ENDMDL
