MODEL 1
REMARK VINA RESULT:    -9.679      0.000      0.000
REMARK INTER + INTRA:         -13.131
REMARK INTER:                 -12.065
REMARK INTRA:                  -1.066
REMARK CONF_INDEPENDENT:        2.386
REMARK UNBOUND:                -1.066
REMARK  8 active torsions:
REMARK  status: ('A' for Active; 'I' for Inactive)
REMARK    1  A    between atoms: C4_4  and  C2_2 
REMARK    2  A    between atoms: C8_10  and  C9_11 
REMARK    3  A    between atoms: C9_11  and  C10_12 
REMARK    4  A    between atoms: C11_13  and  C12_14 
REMARK    5  A    between atoms: C12_14  and  C13_15 
REMARK    6  A    between atoms: C13_15  and  C14_16 
REMARK    7  A    between atoms: C16_22  and  C17_23 
REMARK    8  A    between atoms: C17_23  and  C18_24 
ROOT
ATOM      1  C4  NON d   1      26.272 -10.999  -4.789  0.00  0.00     0.180 C 
ATOM      2  N1  NON d   1      25.291 -12.126  -4.671  0.00  0.00    -0.347 N 
ATOM      3  C5  NON d   1      25.262 -13.383  -4.142  0.00  0.00     0.224 C 
ATOM      4  O1  NON d   1      24.223 -14.025  -4.321  0.00  0.00    -0.273 OA
ATOM      5  C6  NON d   1      26.362 -13.942  -3.246  0.00  0.00     0.097 C 
ATOM      6  C7  NON d   1      27.675 -13.295  -3.530  0.00  0.00     0.022 C 
ATOM      7  C8  NON d   1      26.494 -15.519  -3.326  0.00  0.00     0.100 C 
ATOM      8  N2  NON d   1      27.907 -15.942  -3.565  0.00  0.00    -0.354 N 
ATOM      9  C15 NON d   1      28.497 -15.692  -4.797  0.00  0.00     0.241 C 
ATOM     10  O4  NON d   1      27.834 -15.575  -5.825  0.00  0.00    -0.271 OA
ATOM     11  C16 NON d   1      30.016 -15.356  -4.749  0.00  0.00     0.180 C 
ATOM     12  N3  NON d   1      30.374 -14.500  -5.908  0.00  0.00    -0.346 N 
ATOM     13  C24 NON d   1      30.244 -13.228  -6.303  0.00  0.00     0.240 C 
ATOM     14  O5  NON d   1      30.524 -13.056  -7.501  0.00  0.00    -0.271 OA
ATOM     15  C25 NON d   1      29.735 -11.938  -5.544  0.00  0.00     0.172 C 
ATOM     16  C26 NON d   1      30.117 -11.623  -4.107  0.00  0.00     0.042 C 
ATOM     17  N4  NON d   1      28.462 -11.445  -6.182  0.00  0.00    -0.346 N 
ATOM     18  C27 NON d   1      27.152 -11.130  -6.073  0.00  0.00     0.241 C 
ATOM     19  O6  NON d   1      26.612 -10.942  -7.176  0.00  0.00    -0.271 OA
ATOM     20  H9  NON d   1      24.465 -12.013  -5.249  0.00  0.00     0.163 HD
ATOM     21  H23 NON d   1      28.494 -16.027  -2.745  0.00  0.00     0.163 HD
ATOM     22  H32 NON d   1      30.572 -15.055  -6.743  0.00  0.00     0.163 HD
ATOM     23  H37 NON d   1      28.619 -11.468  -7.189  0.00  0.00     0.163 HD
ENDROOT
BRANCH   7  24
ATOM     24  C9  NON d   1      25.967 -16.102  -1.991  0.00  0.00     0.053 C 
BRANCH  24  25
ATOM     25  C10 NON d   1      24.554 -15.730  -1.632  0.00  0.00    -0.029 C 
ATOM     26  C11 NON d   1      23.611 -16.593  -1.221  0.00  0.00    -0.030 C 
BRANCH  26  27
ATOM     27  C12 NON d   1      23.815 -18.076  -1.033  0.00  0.00     0.037 C 
BRANCH  27  28
ATOM     28  C13 NON d   1      22.662 -18.714  -0.271  0.00  0.00     0.117 C 
BRANCH  28  29
ATOM     29  C14 NON d   1      21.327 -18.633  -1.011  0.00  0.00     0.172 C 
ATOM     30  O2  NON d   1      21.010 -19.698  -1.615  0.00  0.00    -0.648 OA
ATOM     31  O3  NON d   1      20.695 -17.545  -0.933  0.00  0.00    -0.648 OA
ENDBRANCH  28  29
ENDBRANCH  27  28
ENDBRANCH  26  27
ENDBRANCH  24  25
ENDBRANCH   7  24
BRANCH  11  32
ATOM     32  C17 NON d   1      30.918 -16.630  -4.672  0.00  0.00     0.073 C 
BRANCH  32  33
ATOM     33  C18 NON d   1      30.911 -17.651  -5.799  0.00  0.00    -0.056 A 
ATOM     34  C19 NON d   1      30.547 -18.984  -5.530  0.00  0.00     0.007 A 
ATOM     35  C20 NON d   1      30.470 -19.933  -6.553  0.00  0.00     0.001 A 
ATOM     36  C21 NON d   1      30.764 -19.572  -7.864  0.00  0.00     0.000 A 
ATOM     37  C22 NON d   1      31.186 -18.274  -8.137  0.00  0.00     0.001 A 
ATOM     38  C23 NON d   1      31.290 -17.331  -7.109  0.00  0.00     0.007 A 
ENDBRANCH  32  33
ENDBRANCH  11  32
BRANCH   1  39
ATOM     39  C2  NON d   1      25.440  -9.660  -4.787  0.00  0.00     0.009 C 
ATOM     40  C1  NON d   1      26.004  -8.506  -5.639  0.00  0.00     0.012 C 
ATOM     41  C3  NON d   1      25.149  -9.165  -3.367  0.00  0.00     0.012 C 
ENDBRANCH   1  39
TORSDOF 8
ENDMDL
MODEL 2
REMARK VINA RESULT:    -9.554      1.039      1.452
REMARK INTER + INTRA:         -13.131
REMARK INTER:                 -11.940
REMARK INTRA:                  -1.191
REMARK CONF_INDEPENDENT:        2.386
REMARK UNBOUND:                -1.191
REMARK  8 active torsions:
REMARK  status: ('A' for Active; 'I' for Inactive)
REMARK    1  A    between atoms: C4_4  and  C2_2 
REMARK    2  A    between atoms: C8_10  and  C9_11 
REMARK    3  A    between atoms: C9_11  and  C10_12 
REMARK    4  A    between atoms: C11_13  and  C12_14 
REMARK    5  A    between atoms: C12_14  and  C13_15 
REMARK    6  A    between atoms: C13_15  and  C14_16 
REMARK    7  A    between atoms: C16_22  and  C17_23 
REMARK    8  A    between atoms: C17_23  and  C18_24 
ROOT
ATOM      1  C4  NON d   1      26.186 -10.863  -4.628  0.00  0.00     0.180 C 
ATOM      2  N1  NON d   1      25.384 -12.083  -4.290  0.00  0.00    -0.347 N 
ATOM      3  C5  NON d   1      25.623 -13.366  -3.894  0.00  0.00     0.224 C 
ATOM      4  O1  NON d   1      24.631 -14.092  -3.774  0.00  0.00    -0.273 OA
ATOM      5  C6  NON d   1      26.996 -13.870  -3.465  0.00  0.00     0.097 C 
ATOM      6  C7  NON d   1      28.088 -13.086  -4.110  0.00  0.00     0.022 C 
ATOM      7  C8  NON d   1      27.202 -15.420  -3.722  0.00  0.00     0.100 C 
ATOM      8  N2  NON d   1      28.479 -15.692  -4.451  0.00  0.00    -0.354 N 
ATOM      9  C15 NON d   1      28.599 -15.314  -5.782  0.00  0.00     0.241 C 
ATOM     10  O4  NON d   1      27.622 -15.200  -6.519  0.00  0.00    -0.271 OA
ATOM     11  C16 NON d   1      30.018 -14.839  -6.210  0.00  0.00     0.180 C 
ATOM     12  N3  NON d   1      29.904 -13.886  -7.342  0.00  0.00    -0.346 N 
ATOM     13  C24 NON d   1      29.561 -12.611  -7.560  0.00  0.00     0.240 C 
ATOM     14  O5  NON d   1      29.408 -12.343  -8.763  0.00  0.00    -0.271 OA
ATOM     15  C25 NON d   1      29.249 -11.423  -6.565  0.00  0.00     0.172 C 
ATOM     16  C26 NON d   1      30.070 -11.158  -5.313  0.00  0.00     0.042 C 
ATOM     17  N4  NON d   1      27.805 -11.015  -6.700  0.00  0.00    -0.346 N 
ATOM     18  C27 NON d   1      26.589 -10.833  -6.137  0.00  0.00     0.241 C 
ATOM     19  O6  NON d   1      25.697 -10.633  -6.977  0.00  0.00    -0.271 OA
ATOM     20  H9  NON d   1      24.405 -12.015  -4.551  0.00  0.00     0.163 HD
ATOM     21  H23 NON d   1      29.312 -15.769  -3.882  0.00  0.00     0.163 HD
ATOM     22  H32 NON d   1      29.848 -14.369  -8.242  0.00  0.00     0.163 HD
ATOM     23  H37 NON d   1      27.614 -10.964  -7.700  0.00  0.00     0.163 HD
ENDROOT
BRANCH   7  24
ATOM     24  C9  NON d   1      27.199 -16.128  -2.344  0.00  0.00     0.053 C 
BRANCH  24  25
ATOM     25  C10 NON d   1      26.281 -15.534  -1.311  0.00  0.00    -0.029 C 
ATOM     26  C11 NON d   1      25.158 -16.112  -0.855  0.00  0.00    -0.030 C 
BRANCH  26  27
ATOM     27  C12 NON d   1      24.638 -17.460  -1.289  0.00  0.00     0.037 C 
BRANCH  27  28
ATOM     28  C13 NON d   1      23.558 -17.980  -0.351  0.00  0.00     0.117 C 
BRANCH  28  29
ATOM     29  C14 NON d   1      22.223 -18.241  -1.049  0.00  0.00     0.172 C 
ATOM     30  O2  NON d   1      22.188 -19.324  -1.701  0.00  0.00    -0.648 OA
ATOM     31  O3  NON d   1      21.319 -17.375  -0.895  0.00  0.00    -0.648 OA
ENDBRANCH  28  29
ENDBRANCH  27  28
ENDBRANCH  26  27
ENDBRANCH  24  25
ENDBRANCH   7  24
BRANCH  11  32
ATOM     32  C17 NON d   1      30.980 -16.025  -6.548  0.00  0.00     0.073 C 
BRANCH  32  33
ATOM     33  C18 NON d   1      30.816 -17.371  -5.862  0.00  0.00    -0.056 A 
ATOM     34  C19 NON d   1      30.587 -18.524  -6.637  0.00  0.00     0.007 A 
ATOM     35  C20 NON d   1      30.493 -19.787  -6.044  0.00  0.00     0.001 A 
ATOM     36  C21 NON d   1      30.618 -19.922  -4.665  0.00  0.00     0.000 A 
ATOM     37  C22 NON d   1      30.781 -18.785  -3.879  0.00  0.00     0.001 A 
ATOM     38  C23 NON d   1      30.847 -17.518  -4.469  0.00  0.00     0.007 A 
ENDBRANCH  32  33
ENDBRANCH  11  32
BRANCH   1  39
ATOM     39  C2  NON d   1      25.313  -9.611  -4.233  0.00  0.00     0.009 C 
ATOM     40  C1  NON d   1      25.400  -8.395  -5.176  0.00  0.00     0.012 C 
ATOM     41  C3  NON d   1      25.561  -9.168  -2.787  0.00  0.00     0.012 C 
ENDBRANCH   1  39
TORSDOF 8
ENDMDL
MODEL 3
REMARK VINA RESULT:    -8.969      1.384      1.879
REMARK INTER + INTRA:         -12.377
REMARK INTER:                 -11.355
REMARK INTRA:                  -1.022
REMARK CONF_INDEPENDENT:        2.386
REMARK UNBOUND:                -1.022
REMARK  8 active torsions:
REMARK  status: ('A' for Active; 'I' for Inactive)
REMARK    1  A    between atoms: C4_4  and  C2_2 
REMARK    2  A    between atoms: C8_10  and  C9_11 
REMARK    3  A    between atoms: C9_11  and  C10_12 
REMARK    4  A    between atoms: C11_13  and  C12_14 
REMARK    5  A    between atoms: C12_14  and  C13_15 
REMARK    6  A    between atoms: C13_15  and  C14_16 
REMARK    7  A    between atoms: C16_22  and  C17_23 
REMARK    8  A    between atoms: C17_23  and  C18_24 
ROOT
ATOM      1  C4  NON d   1      26.127 -10.920  -4.247  0.00  0.00     0.180 C 
ATOM      2  N1  NON d   1      25.285 -12.065  -3.772  0.00  0.00    -0.347 N 
ATOM      3  C5  NON d   1      25.479 -13.343  -3.336  0.00  0.00     0.224 C 
ATOM      4  O1  NON d   1      24.459 -13.993  -3.085  0.00  0.00    -0.273 OA
ATOM      5  C6  NON d   1      26.852 -13.921  -3.013  0.00  0.00     0.097 C 
ATOM      6  C7  NON d   1      27.924 -13.243  -3.799  0.00  0.00     0.022 C 
ATOM      7  C8  NON d   1      26.933 -15.491  -3.208  0.00  0.00     0.100 C 
ATOM      8  N2  NON d   1      28.111 -15.883  -4.041  0.00  0.00    -0.354 N 
ATOM      9  C15 NON d   1      28.124 -15.574  -5.395  0.00  0.00     0.241 C 
ATOM     10  O4  NON d   1      27.089 -15.426  -6.040  0.00  0.00    -0.271 OA
ATOM     11  C16 NON d   1      29.522 -15.218  -5.980  0.00  0.00     0.180 C 
ATOM     12  N3  NON d   1      29.359 -14.311  -7.144  0.00  0.00    -0.346 N 
ATOM     13  C24 NON d   1      29.078 -13.026  -7.393  0.00  0.00     0.240 C 
ATOM     14  O5  NON d   1      28.825 -12.803  -8.588  0.00  0.00    -0.271 OA
ATOM     15  C25 NON d   1      28.943 -11.776  -6.435  0.00  0.00     0.172 C 
ATOM     16  C26 NON d   1      29.898 -11.512  -5.283  0.00  0.00     0.042 C 
ATOM     17  N4  NON d   1      27.521 -11.276  -6.453  0.00  0.00    -0.346 N 
ATOM     18  C27 NON d   1      26.380 -10.986  -5.787  0.00  0.00     0.241 C 
ATOM     19  O6  NON d   1      25.425 -10.763  -6.548  0.00  0.00    -0.271 OA
ATOM     20  H9  NON d   1      24.292 -11.942  -3.942  0.00  0.00     0.163 HD
ATOM     21  H23 NON d   1      28.989 -15.992  -3.551  0.00  0.00     0.163 HD
ATOM     22  H32 NON d   1      29.183 -14.829  -8.007  0.00  0.00     0.163 HD
ATOM     23  H37 NON d   1      27.236 -11.257  -7.432  0.00  0.00     0.163 HD
ENDROOT
BRANCH   7  24
ATOM     24  C9  NON d   1      27.019 -16.135  -1.803  0.00  0.00     0.053 C 
BRANCH  24  25
ATOM     25  C10 NON d   1      26.127 -15.526  -0.754  0.00  0.00    -0.029 C 
ATOM     26  C11 NON d   1      24.911 -15.985  -0.418  0.00  0.00    -0.030 C 
BRANCH  26  27
ATOM     27  C12 NON d   1      24.242 -17.196  -1.021  0.00  0.00     0.037 C 
BRANCH  27  28
ATOM     28  C13 NON d   1      23.068 -17.672  -0.180  0.00  0.00     0.117 C 
BRANCH  28  29
ATOM     29  C14 NON d   1      21.955 -18.322  -1.004  0.00  0.00     0.172 C 
ATOM     30  O2  NON d   1      22.339 -19.307  -1.697  0.00  0.00    -0.648 OA
ATOM     31  O3  NON d   1      20.801 -17.825  -0.898  0.00  0.00    -0.648 OA
ENDBRANCH  28  29
ENDBRANCH  27  28
ENDBRANCH  26  27
ENDBRANCH  24  25
ENDBRANCH   7  24
BRANCH  11  32
ATOM     32  C17 NON d   1      30.367 -16.481  -6.346  0.00  0.00     0.073 C 
BRANCH  32  33
ATOM     33  C18 NON d   1      31.519 -16.379  -7.333  0.00  0.00    -0.056 A 
ATOM     34  C19 NON d   1      32.146 -15.137  -7.546  0.00  0.00     0.007 A 
ATOM     35  C20 NON d   1      33.248 -15.020  -8.399  0.00  0.00     0.001 A 
ATOM     36  C21 NON d   1      33.738 -16.139  -9.063  0.00  0.00     0.000 A 
ATOM     37  C22 NON d   1      33.091 -17.361  -8.913  0.00  0.00     0.001 A 
ATOM     38  C23 NON d   1      31.972 -17.474  -8.081  0.00  0.00     0.007 A 
ENDBRANCH  32  33
ENDBRANCH  11  32
BRANCH   1  39
ATOM     39  C2  NON d   1      25.379  -9.595  -3.836  0.00  0.00     0.009 C 
ATOM     40  C1  NON d   1      25.445  -8.433  -4.847  0.00  0.00     0.012 C 
ATOM     41  C3  NON d   1      25.800  -9.102  -2.448  0.00  0.00     0.012 C 
ENDBRANCH   1  39
TORSDOF 8
ENDMDL
MODEL 4
REMARK VINA RESULT:    -8.324      4.066      5.402
REMARK INTER + INTRA:         -11.771
REMARK INTER:                 -10.710
REMARK INTRA:                  -1.060
REMARK CONF_INDEPENDENT:        2.386
REMARK UNBOUND:                -1.060
REMARK  8 active torsions:
REMARK  status: ('A' for Active; 'I' for Inactive)
REMARK    1  A    between atoms: C4_4  and  C2_2 
REMARK    2  A    between atoms: C8_10  and  C9_11 
REMARK    3  A    between atoms: C9_11  and  C10_12 
REMARK    4  A    between atoms: C11_13  and  C12_14 
REMARK    5  A    between atoms: C12_14  and  C13_15 
REMARK    6  A    between atoms: C13_15  and  C14_16 
REMARK    7  A    between atoms: C16_22  and  C17_23 
REMARK    8  A    between atoms: C17_23  and  C18_24 
ROOT
ATOM      1  C4  NON d   1      29.155 -14.270   2.523  0.00  0.00     0.180 C 
ATOM      2  N1  NON d   1      27.817 -13.872   1.978  0.00  0.00    -0.347 N 
ATOM      3  C5  NON d   1      26.972 -14.283   0.989  0.00  0.00     0.224 C 
ATOM      4  O1  NON d   1      25.947 -13.612   0.836  0.00  0.00    -0.273 OA
ATOM      5  C6  NON d   1      27.164 -15.575   0.203  0.00  0.00     0.097 C 
ATOM      6  C7  NON d   1      28.601 -15.969   0.150  0.00  0.00     0.022 C 
ATOM      7  C8  NON d   1      26.553 -15.516  -1.257  0.00  0.00     0.100 C 
ATOM      8  N2  NON d   1      27.541 -15.963  -2.286  0.00  0.00    -0.354 N 
ATOM      9  C15 NON d   1      28.644 -15.168  -2.566  0.00  0.00     0.241 C 
ATOM     10  O4  NON d   1      28.635 -13.953  -2.384  0.00  0.00    -0.271 OA
ATOM     11  C16 NON d   1      29.949 -15.942  -2.915  0.00  0.00     0.180 C 
ATOM     12  N3  NON d   1      31.129 -15.121  -2.548  0.00  0.00    -0.346 N 
ATOM     13  C24 NON d   1      31.803 -14.752  -1.451  0.00  0.00     0.240 C 
ATOM     14  O5  NON d   1      32.616 -13.837  -1.660  0.00  0.00    -0.271 OA
ATOM     15  C25 NON d   1      31.695 -15.220   0.055  0.00  0.00     0.172 C 
ATOM     16  C26 NON d   1      31.517 -16.676   0.455  0.00  0.00     0.042 C 
ATOM     17  N4  NON d   1      31.227 -14.071   0.910  0.00  0.00    -0.346 N 
ATOM     18  C27 NON d   1      30.324 -13.554   1.773  0.00  0.00     0.241 C 
ATOM     19  O6  NON d   1      30.474 -12.335   1.950  0.00  0.00    -0.271 OA
ATOM     20  H9  NON d   1      27.487 -12.975   2.317  0.00  0.00     0.163 HD
ATOM     21  H23 NON d   1      27.597 -16.960  -2.450  0.00  0.00     0.163 HD
ATOM     22  H32 NON d   1      31.379 -14.462  -3.289  0.00  0.00     0.163 HD
ATOM     23  H37 NON d   1      31.771 -13.258   0.620  0.00  0.00     0.163 HD
ENDROOT
BRANCH   7  24
ATOM     24  C9  NON d   1      25.297 -16.422  -1.277  0.00  0.00     0.053 C 
BRANCH  24  25
ATOM     25  C10 NON d   1      25.164 -17.374  -0.119  0.00  0.00    -0.029 C 
ATOM     26  C11 NON d   1      24.251 -18.354  -0.030  0.00  0.00    -0.030 C 
BRANCH  26  27
ATOM     27  C12 NON d   1      23.218 -18.677  -1.081  0.00  0.00     0.037 C 
BRANCH  27  28
ATOM     28  C13 NON d   1      21.979 -19.322  -0.478  0.00  0.00     0.117 C 
BRANCH  28  29
ATOM     29  C14 NON d   1      20.685 -18.939  -1.198  0.00  0.00     0.172 C 
ATOM     30  O2  NON d   1      20.278 -19.811  -2.020  0.00  0.00    -0.648 OA
ATOM     31  O3  NON d   1      20.169 -17.830  -0.895  0.00  0.00    -0.648 OA
ENDBRANCH  28  29
ENDBRANCH  27  28
ENDBRANCH  26  27
ENDBRANCH  24  25
ENDBRANCH   7  24
BRANCH  11  32
ATOM     32  C17 NON d   1      30.004 -16.397  -4.410  0.00  0.00     0.073 C 
BRANCH  32  33
ATOM     33  C18 NON d   1      30.407 -17.818  -4.770  0.00  0.00    -0.056 A 
ATOM     34  C19 NON d   1      30.836 -18.698  -3.758  0.00  0.00     0.007 A 
ATOM     35  C20 NON d   1      31.154 -20.029  -4.044  0.00  0.00     0.001 A 
ATOM     36  C21 NON d   1      31.060 -20.504  -5.348  0.00  0.00     0.000 A 
ATOM     37  C22 NON d   1      30.699 -19.630  -6.370  0.00  0.00     0.001 A 
ATOM     38  C23 NON d   1      30.407 -18.291  -6.088  0.00  0.00     0.007 A 
ENDBRANCH  32  33
ENDBRANCH  11  32
BRANCH   1  39
ATOM     39  C2  NON d   1      29.150 -13.921   4.060  0.00  0.00     0.009 C 
ATOM     40  C1  NON d   1      29.789 -14.963   4.998  0.00  0.00     0.012 C 
ATOM     41  C3  NON d   1      27.750 -13.556   4.564  0.00  0.00     0.012 C 
ENDBRANCH   1  39
TORSDOF 8
ENDMDL
MODEL 5
REMARK VINA RESULT:    -7.777      3.656      6.843
REMARK INTER + INTRA:         -11.361
REMARK INTER:                 -10.164
REMARK INTRA:                  -1.197
REMARK CONF_INDEPENDENT:        2.386
REMARK UNBOUND:                -1.197
REMARK  8 active torsions:
REMARK  status: ('A' for Active; 'I' for Inactive)
REMARK    1  A    between atoms: C4_4  and  C2_2 
REMARK    2  A    between atoms: C8_10  and  C9_11 
REMARK    3  A    between atoms: C9_11  and  C10_12 
REMARK    4  A    between atoms: C11_13  and  C12_14 
REMARK    5  A    between atoms: C12_14  and  C13_15 
REMARK    6  A    between atoms: C13_15  and  C14_16 
REMARK    7  A    between atoms: C16_22  and  C17_23 
REMARK    8  A    between atoms: C17_23  and  C18_24 
ROOT
ATOM      1  C4  NON d   1      28.635 -11.382  -5.375  0.00  0.00     0.180 C 
ATOM      2  N1  NON d   1      28.277 -10.520  -4.202  0.00  0.00    -0.347 N 
ATOM      3  C5  NON d   1      28.260 -10.629  -2.842  0.00  0.00     0.224 C 
ATOM      4  O1  NON d   1      27.822  -9.654  -2.223  0.00  0.00    -0.273 OA
ATOM      5  C6  NON d   1      28.877 -11.800  -2.085  0.00  0.00     0.097 C 
ATOM      6  C7  NON d   1      28.897 -13.035  -2.920  0.00  0.00     0.022 C 
ATOM      7  C8  NON d   1      28.177 -12.085  -0.693  0.00  0.00     0.100 C 
ATOM      8  N2  NON d   1      27.813 -13.527  -0.545  0.00  0.00    -0.354 N 
ATOM      9  C15 NON d   1      26.794 -14.059  -1.323  0.00  0.00     0.241 C 
ATOM     10  O4  NON d   1      25.886 -13.363  -1.773  0.00  0.00    -0.271 OA
ATOM     11  C16 NON d   1      26.998 -15.538  -1.763  0.00  0.00     0.180 C 
ATOM     12  N3  NON d   1      26.283 -15.782  -3.041  0.00  0.00    -0.346 N 
ATOM     13  C24 NON d   1      26.426 -15.517  -4.345  0.00  0.00     0.240 C 
ATOM     14  O5  NON d   1      25.401 -15.749  -5.007  0.00  0.00    -0.271 OA
ATOM     15  C25 NON d   1      27.627 -14.902  -5.167  0.00  0.00     0.172 C 
ATOM     16  C26 NON d   1      29.077 -15.286  -4.920  0.00  0.00     0.042 C 
ATOM     17  N4  NON d   1      27.218 -13.571  -5.744  0.00  0.00    -0.346 N 
ATOM     18  C27 NON d   1      27.420 -12.239  -5.856  0.00  0.00     0.241 C 
ATOM     19  O6  NON d   1      26.475 -11.657  -6.412  0.00  0.00    -0.271 OA
ATOM     20  H9  NON d   1      27.778  -9.673  -4.452  0.00  0.00     0.163 HD
ATOM     21  H23 NON d   1      28.541 -14.139  -0.199  0.00  0.00     0.163 HD
ATOM     22  H32 NON d   1      25.299 -16.013  -2.888  0.00  0.00     0.163 HD
ATOM     23  H37 NON d   1      26.288 -13.705  -6.139  0.00  0.00     0.163 HD
ENDROOT
BRANCH   7  24
ATOM     24  C9  NON d   1      29.159 -11.652   0.423  0.00  0.00     0.053 C 
BRANCH  24  25
ATOM     25  C10 NON d   1      28.875 -12.213   1.791  0.00  0.00    -0.029 C 
ATOM     26  C11 NON d   1      27.793 -11.925   2.531  0.00  0.00    -0.030 C 
BRANCH  26  27
ATOM     27  C12 NON d   1      26.672 -11.008   2.110  0.00  0.00     0.037 C 
BRANCH  27  28
ATOM     28  C13 NON d   1      27.170  -9.600   1.818  0.00  0.00     0.117 C 
BRANCH  28  29
ATOM     29  C14 NON d   1      26.248  -8.506   2.357  0.00  0.00     0.172 C 
ATOM     30  O2  NON d   1      25.161  -8.391   1.721  0.00  0.00    -0.648 OA
ATOM     31  O3  NON d   1      26.655  -7.859   3.360  0.00  0.00    -0.648 OA
ENDBRANCH  28  29
ENDBRANCH  27  28
ENDBRANCH  26  27
ENDBRANCH  24  25
ENDBRANCH   7  24
BRANCH  11  32
ATOM     32  C17 NON d   1      26.575 -16.563  -0.661  0.00  0.00     0.073 C 
BRANCH  32  33
ATOM     33  C18 NON d   1      25.139 -17.055  -0.573  0.00  0.00    -0.056 A 
ATOM     34  C19 NON d   1      24.083 -16.178  -0.883  0.00  0.00     0.007 A 
ATOM     35  C20 NON d   1      22.754 -16.614  -0.873  0.00  0.00     0.001 A 
ATOM     36  C21 NON d   1      22.455 -17.932  -0.546  0.00  0.00     0.000 A 
ATOM     37  C22 NON d   1      23.482 -18.795  -0.175  0.00  0.00     0.001 A 
ATOM     38  C23 NON d   1      24.809 -18.351  -0.158  0.00  0.00     0.007 A 
ENDBRANCH  32  33
ENDBRANCH  11  32
BRANCH   1  39
ATOM     39  C2  NON d   1      29.157 -10.422  -6.511  0.00  0.00     0.009 C 
ATOM     40  C1  NON d   1      30.608  -9.924  -6.368  0.00  0.00     0.012 C 
ATOM     41  C3  NON d   1      28.217  -9.233  -6.738  0.00  0.00     0.012 C 
ENDBRANCH   1  39
TORSDOF 8
ENDMDL
MODEL 6
REMARK VINA RESULT:    -7.580      2.278      3.361
REMARK INTER + INTRA:         -11.874
REMARK INTER:                  -9.967
REMARK INTRA:                  -1.907
REMARK CONF_INDEPENDENT:        2.386
REMARK UNBOUND:                -1.907
REMARK  8 active torsions:
REMARK  status: ('A' for Active; 'I' for Inactive)
REMARK    1  A    between atoms: C4_4  and  C2_2 
REMARK    2  A    between atoms: C8_10  and  C9_11 
REMARK    3  A    between atoms: C9_11  and  C10_12 
REMARK    4  A    between atoms: C11_13  and  C12_14 
REMARK    5  A    between atoms: C12_14  and  C13_15 
REMARK    6  A    between atoms: C13_15  and  C14_16 
REMARK    7  A    between atoms: C16_22  and  C17_23 
REMARK    8  A    between atoms: C17_23  and  C18_24 
ROOT
ATOM      1  C4  NON d   1      26.084 -10.963  -4.549  0.00  0.00     0.180 C 
ATOM      2  N1  NON d   1      25.386 -12.233  -4.164  0.00  0.00    -0.347 N 
ATOM      3  C5  NON d   1      25.734 -13.496  -3.786  0.00  0.00     0.224 C 
ATOM      4  O1  NON d   1      24.802 -14.286  -3.606  0.00  0.00    -0.273 OA
ATOM      5  C6  NON d   1      27.162 -13.907  -3.442  0.00  0.00     0.097 C 
ATOM      6  C7  NON d   1      28.157 -13.053  -4.152  0.00  0.00     0.022 C 
ATOM      7  C8  NON d   1      27.455 -15.439  -3.713  0.00  0.00     0.100 C 
ATOM      8  N2  NON d   1      28.699 -15.628  -4.520  0.00  0.00    -0.354 N 
ATOM      9  C15 NON d   1      28.713 -15.247  -5.855  0.00  0.00     0.241 C 
ATOM     10  O4  NON d   1      27.687 -15.200  -6.530  0.00  0.00    -0.271 OA
ATOM     11  C16 NON d   1      30.068 -14.680  -6.369  0.00  0.00     0.180 C 
ATOM     12  N3  NON d   1      29.821 -13.739  -7.491  0.00  0.00    -0.346 N 
ATOM     13  C24 NON d   1      29.381 -12.490  -7.685  0.00  0.00     0.240 C 
ATOM     14  O5  NON d   1      29.137 -12.237  -8.876  0.00  0.00    -0.271 OA
ATOM     15  C25 NON d   1      29.053 -11.323  -6.671  0.00  0.00     0.172 C 
ATOM     16  C26 NON d   1      29.929 -11.001  -5.472  0.00  0.00     0.042 C 
ATOM     17  N4  NON d   1      27.578 -11.013  -6.717  0.00  0.00    -0.346 N 
ATOM     18  C27 NON d   1      26.390 -10.910  -6.080  0.00  0.00     0.241 C 
ATOM     19  O6  NON d   1      25.437 -10.772  -6.864  0.00  0.00    -0.271 OA
ATOM     20  H9  NON d   1      24.391 -12.230  -4.364  0.00  0.00     0.163 HD
ATOM     21  H23 NON d   1      29.569 -15.649  -4.003  0.00  0.00     0.163 HD
ATOM     22  H32 NON d   1      29.742 -14.228  -8.385  0.00  0.00     0.163 HD
ATOM     23  H37 NON d   1      27.323 -10.977  -7.703  0.00  0.00     0.163 HD
ENDROOT
BRANCH   7  24
ATOM     24  C9  NON d   1      27.583 -16.143  -2.339  0.00  0.00     0.053 C 
BRANCH  24  25
ATOM     25  C10 NON d   1      26.322 -16.201  -1.519  0.00  0.00    -0.029 C 
ATOM     26  C11 NON d   1      26.144 -15.591  -0.337  0.00  0.00    -0.030 C 
BRANCH  26  27
ATOM     27  C12 NON d   1      27.170 -14.730   0.359  0.00  0.00     0.037 C 
BRANCH  27  28
ATOM     28  C13 NON d   1      26.775 -13.261   0.354  0.00  0.00     0.117 C 
BRANCH  28  29
ATOM     29  C14 NON d   1      27.597 -12.414  -0.618  0.00  0.00     0.172 C 
ATOM     30  O2  NON d   1      27.035 -11.334  -0.960  0.00  0.00    -0.648 OA
ATOM     31  O3  NON d   1      28.724 -12.867  -0.958  0.00  0.00    -0.648 OA
ENDBRANCH  28  29
ENDBRANCH  27  28
ENDBRANCH  26  27
ENDBRANCH  24  25
ENDBRANCH   7  24
BRANCH  11  32
ATOM     32  C17 NON d   1      31.084 -15.799  -6.767  0.00  0.00     0.073 C 
BRANCH  32  33
ATOM     33  C18 NON d   1      30.930 -17.211  -6.222  0.00  0.00    -0.056 A 
ATOM     34  C19 NON d   1      30.979 -17.429  -4.832  0.00  0.00     0.007 A 
ATOM     35  C20 NON d   1      30.779 -18.704  -4.294  0.00  0.00     0.001 A 
ATOM     36  C21 NON d   1      30.535 -19.786  -5.133  0.00  0.00     0.000 A 
ATOM     37  C22 NON d   1      30.546 -19.598  -6.512  0.00  0.00     0.001 A 
ATOM     38  C23 NON d   1      30.773 -18.328  -7.052  0.00  0.00     0.007 A 
ENDBRANCH  32  33
ENDBRANCH  11  32
BRANCH   1  39
ATOM     39  C2  NON d   1      25.155  -9.771  -4.100  0.00  0.00     0.009 C 
ATOM     40  C1  NON d   1      24.912  -8.665  -5.145  0.00  0.00     0.012 C 
ATOM     41  C3  NON d   1      25.617  -9.147  -2.778  0.00  0.00     0.012 C 
ENDBRANCH   1  39
TORSDOF 8
ENDMDL
MODEL 7
REMARK VINA RESULT:    -7.145      1.926      2.596
REMARK INTER + INTRA:         -12.387
REMARK INTER:                  -9.531
REMARK INTRA:                  -2.856
REMARK CONF_INDEPENDENT:        2.386
REMARK UNBOUND:                -2.856
REMARK  8 active torsions:
REMARK  status: ('A' for Active; 'I' for Inactive)
REMARK    1  A    between atoms: C4_4  and  C2_2 
REMARK    2  A    between atoms: C8_10  and  C9_11 
REMARK    3  A    between atoms: C9_11  and  C10_12 
REMARK    4  A    between atoms: C11_13  and  C12_14 
REMARK    5  A    between atoms: C12_14  and  C13_15 
REMARK    6  A    between atoms: C13_15  and  C14_16 
REMARK    7  A    between atoms: C16_22  and  C17_23 
REMARK    8  A    between atoms: C17_23  and  C18_24 
ROOT
ATOM      1  C4  NON d   1      26.313 -10.846  -5.476  0.00  0.00     0.180 C 
ATOM      2  N1  NON d   1      25.302 -11.910  -5.170  0.00  0.00    -0.347 N 
ATOM      3  C5  NON d   1      25.248 -13.070  -4.456  0.00  0.00     0.224 C 
ATOM      4  O1  NON d   1      24.186 -13.698  -4.516  0.00  0.00    -0.273 OA
ATOM      5  C6  NON d   1      26.349 -13.522  -3.503  0.00  0.00     0.097 C 
ATOM      6  C7  NON d   1      27.675 -12.969  -3.905  0.00  0.00     0.022 C 
ATOM      7  C8  NON d   1      26.433 -15.096  -3.344  0.00  0.00     0.100 C 
ATOM      8  N2  NON d   1      27.828 -15.597  -3.540  0.00  0.00    -0.354 N 
ATOM      9  C15 NON d   1      28.397 -15.556  -4.806  0.00  0.00     0.241 C 
ATOM     10  O4  NON d   1      27.716 -15.575  -5.828  0.00  0.00    -0.271 OA
ATOM     11  C16 NON d   1      29.926 -15.267  -4.836  0.00  0.00     0.180 C 
ATOM     12  N3  NON d   1      30.284 -14.609  -6.117  0.00  0.00    -0.346 N 
ATOM     13  C24 NON d   1      30.184 -13.408  -6.700  0.00  0.00     0.240 C 
ATOM     14  O5  NON d   1      30.442 -13.430  -7.914  0.00  0.00    -0.271 OA
ATOM     15  C25 NON d   1      29.730 -12.002  -6.138  0.00  0.00     0.172 C 
ATOM     16  C26 NON d   1      30.152 -11.485  -4.772  0.00  0.00     0.042 C 
ATOM     17  N4  NON d   1      28.459 -11.570  -6.821  0.00  0.00    -0.346 N 
ATOM     18  C27 NON d   1      27.161 -11.199  -6.740  0.00  0.00     0.241 C 
ATOM     19  O6  NON d   1      26.603 -11.164  -7.848  0.00  0.00    -0.271 OA
ATOM     20  H9  NON d   1      24.467 -11.859  -5.745  0.00  0.00     0.163 HD
ATOM     21  H23 NON d   1      28.429 -15.576  -2.727  0.00  0.00     0.163 HD
ATOM     22  H32 NON d   1      30.447 -15.291  -6.861  0.00  0.00     0.163 HD
ATOM     23  H37 NON d   1      28.592 -11.751  -7.816  0.00  0.00     0.163 HD
ENDROOT
BRANCH   7  24
ATOM     24  C9  NON d   1      25.919 -15.452  -1.927  0.00  0.00     0.053 C 
BRANCH  24  25
ATOM     25  C10 NON d   1      25.224 -16.782  -1.804  0.00  0.00    -0.029 C 
ATOM     26  C11 NON d   1      25.428 -17.668  -0.817  0.00  0.00    -0.030 C 
BRANCH  26  27
ATOM     27  C12 NON d   1      26.372 -17.473   0.344  0.00  0.00     0.037 C 
BRANCH  27  28
ATOM     28  C13 NON d   1      27.788 -17.914   0.003  0.00  0.00     0.117 C 
BRANCH  28  29
ATOM     29  C14 NON d   1      28.520 -16.940  -0.921  0.00  0.00     0.172 C 
ATOM     30  O2  NON d   1      28.417 -15.728  -0.575  0.00  0.00    -0.648 OA
ATOM     31  O3  NON d   1      29.143 -17.438  -1.898  0.00  0.00    -0.648 OA
ENDBRANCH  28  29
ENDBRANCH  27  28
ENDBRANCH  26  27
ENDBRANCH  24  25
ENDBRANCH   7  24
BRANCH  11  32
ATOM     32  C17 NON d   1      30.791 -16.543  -4.580  0.00  0.00     0.073 C 
BRANCH  32  33
ATOM     33  C18 NON d   1      30.835 -17.664  -5.607  0.00  0.00    -0.056 A 
ATOM     34  C19 NON d   1      30.441 -18.964  -5.236  0.00  0.00     0.007 A 
ATOM     35  C20 NON d   1      30.410 -20.004  -6.169  0.00  0.00     0.001 A 
ATOM     36  C21 NON d   1      30.780 -19.769  -7.489  0.00  0.00     0.000 A 
ATOM     37  C22 NON d   1      31.233 -18.505  -7.857  0.00  0.00     0.001 A 
ATOM     38  C23 NON d   1      31.291 -17.471  -6.917  0.00  0.00     0.007 A 
ENDBRANCH  32  33
ENDBRANCH  11  32
BRANCH   1  39
ATOM     39  C2  NON d   1      25.522  -9.496  -5.664  0.00  0.00     0.009 C 
ATOM     40  C1  NON d   1      26.145  -8.470  -6.630  0.00  0.00     0.012 C 
ATOM     41  C3  NON d   1      25.203  -8.824  -4.324  0.00  0.00     0.012 C 
ENDBRANCH   1  39
TORSDOF 8
ENDMDL
MODEL 8
REMARK VINA RESULT:    -6.844      2.553      3.894
REMARK INTER + INTRA:         -12.650
REMARK INTER:                  -9.230
REMARK INTRA:                  -3.420
REMARK CONF_INDEPENDENT:        2.386
REMARK UNBOUND:                -3.420
REMARK  8 active torsions:
REMARK  status: ('A' for Active; 'I' for Inactive)
REMARK    1  A    between atoms: C4_4  and  C2_2 
REMARK    2  A    between atoms: C8_10  and  C9_11 
REMARK    3  A    between atoms: C9_11  and  C10_12 
REMARK    4  A    between atoms: C11_13  and  C12_14 
REMARK    5  A    between atoms: C12_14  and  C13_15 
REMARK    6  A    between atoms: C13_15  and  C14_16 
REMARK    7  A    between atoms: C16_22  and  C17_23 
REMARK    8  A    between atoms: C17_23  and  C18_24 
ROOT
ATOM      1  C4  NON d   1      26.124 -10.908  -4.718  0.00  0.00     0.180 C 
ATOM      2  N1  NON d   1      25.398 -12.163  -4.338  0.00  0.00    -0.347 N 
ATOM      3  C5  NON d   1      25.716 -13.421  -3.919  0.00  0.00     0.224 C 
ATOM      4  O1  NON d   1      24.770 -14.199  -3.764  0.00  0.00    -0.273 OA
ATOM      5  C6  NON d   1      27.123 -13.838  -3.506  0.00  0.00     0.097 C 
ATOM      6  C7  NON d   1      28.157 -13.009  -4.189  0.00  0.00     0.022 C 
ATOM      7  C8  NON d   1      27.412 -15.379  -3.733  0.00  0.00     0.100 C 
ATOM      8  N2  NON d   1      28.688 -15.596  -4.482  0.00  0.00    -0.354 N 
ATOM      9  C15 NON d   1      28.763 -15.243  -5.823  0.00  0.00     0.241 C 
ATOM     10  O4  NON d   1      27.767 -15.200  -6.542  0.00  0.00    -0.271 OA
ATOM     11  C16 NON d   1      30.144 -14.699  -6.289  0.00  0.00     0.180 C 
ATOM     12  N3  NON d   1      29.956 -13.779  -7.439  0.00  0.00    -0.346 N 
ATOM     13  C24 NON d   1      29.537 -12.530  -7.677  0.00  0.00     0.240 C 
ATOM     14  O5  NON d   1      29.347 -12.299  -8.882  0.00  0.00    -0.271 OA
ATOM     15  C25 NON d   1      29.177 -11.339  -6.703  0.00  0.00     0.172 C 
ATOM     16  C26 NON d   1      30.005 -11.001  -5.473  0.00  0.00     0.042 C 
ATOM     17  N4  NON d   1      27.710 -11.016  -6.818  0.00  0.00    -0.346 N 
ATOM     18  C27 NON d   1      26.496 -10.890  -6.235  0.00  0.00     0.241 C 
ATOM     19  O6  NON d   1      25.580 -10.759  -7.061  0.00  0.00    -0.271 OA
ATOM     20  H9  NON d   1      24.413 -12.155  -4.580  0.00  0.00     0.163 HD
ATOM     21  H23 NON d   1      29.534 -15.614  -3.928  0.00  0.00     0.163 HD
ATOM     22  H32 NON d   1      29.910 -14.285  -8.326  0.00  0.00     0.163 HD
ATOM     23  H37 NON d   1      27.498 -10.999  -7.815  0.00  0.00     0.163 HD
ENDROOT
BRANCH   7  24
ATOM     24  C9  NON d   1      27.474 -16.055  -2.341  0.00  0.00     0.053 C 
BRANCH  24  25
ATOM     25  C10 NON d   1      27.215 -15.150  -1.167  0.00  0.00    -0.029 C 
ATOM     26  C11 NON d   1      28.103 -14.869  -0.201  0.00  0.00    -0.030 C 
BRANCH  26  27
ATOM     27  C12 NON d   1      29.515 -15.399  -0.138  0.00  0.00     0.037 C 
BRANCH  27  28
ATOM     28  C13 NON d   1      30.494 -14.491  -0.867  0.00  0.00     0.117 C 
BRANCH  28  29
ATOM     29  C14 NON d   1      30.791 -14.942  -2.297  0.00  0.00     0.172 C 
ATOM     30  O2  NON d   1      30.765 -14.005  -3.147  0.00  0.00    -0.648 OA
ATOM     31  O3  NON d   1      31.036 -16.166  -2.471  0.00  0.00    -0.648 OA
ENDBRANCH  28  29
ENDBRANCH  27  28
ENDBRANCH  26  27
ENDBRANCH  24  25
ENDBRANCH   7  24
BRANCH  11  32
ATOM     32  C17 NON d   1      31.165 -15.836  -6.620  0.00  0.00     0.073 C 
BRANCH  32  33
ATOM     33  C18 NON d   1      30.855 -17.280  -6.259  0.00  0.00    -0.056 A 
ATOM     34  C19 NON d   1      30.783 -18.251  -7.275  0.00  0.00     0.007 A 
ATOM     35  C20 NON d   1      30.562 -19.599  -6.973  0.00  0.00     0.001 A 
ATOM     36  C21 NON d   1      30.401 -20.000  -5.651  0.00  0.00     0.000 A 
ATOM     37  C22 NON d   1      30.407 -19.043  -4.641  0.00  0.00     0.001 A 
ATOM     38  C23 NON d   1      30.600 -17.692  -4.945  0.00  0.00     0.007 A 
ENDBRANCH  32  33
ENDBRANCH  11  32
BRANCH   1  39
ATOM     39  C2  NON d   1      25.189  -9.699  -4.333  0.00  0.00     0.009 C 
ATOM     40  C1  NON d   1      25.098  -8.554  -5.361  0.00  0.00     0.012 C 
ATOM     41  C3  NON d   1      25.521  -9.131  -2.949  0.00  0.00     0.012 C 
ENDBRANCH   1  39
TORSDOF 8
ENDMDL
