MODEL 1
REMARK VINA RESULT:    -9.381      0.000      0.000
REMARK INTER + INTRA:         -13.560
REMARK INTER:                 -11.469
REMARK INTRA:                  -2.091
REMARK CONF_INDEPENDENT:        2.088
REMARK UNBOUND:                -2.091
REMARK  7 active torsions:
REMARK  status: ('A' for Active; 'I' for Inactive)
REMARK    1  A    between atoms: O1_2  and  C2_3 
REMARK    2  A    between atoms: C5_6  and  S1_7 
REMARK    3  A    between atoms: S1_7  and  N1_10 
REMARK    4  A    between atoms: C10_15  and  C11_16 
REMARK    5  A    between atoms: C12_17  and  C13_18 
REMARK       I    between atoms: C13_18  and  N2_20 
REMARK    6  A    between atoms: N2_20  and  O5_21 
REMARK    7  A    between atoms: C18_26  and  O6_27 
ROOT
ATOM      1  N1  NON d   1      27.279 -16.366  -0.424  0.00  0.00    -0.246 N 
ATOM      2  C6  NON d   1      27.935 -17.434   0.139  0.00  0.00     0.111 C 
ATOM      3  C7  NON d   1      26.993 -18.409   0.387  0.00  0.00     0.032 C 
ATOM      4  C8  NON d   1      25.739 -17.934  -0.099  0.00  0.00    -0.006 A 
ATOM      5  C9  NON d   1      24.418 -18.441  -0.052  0.00  0.00     0.025 A 
ATOM      6  C10 NON d   1      23.356 -17.722  -0.632  0.00  0.00    -0.035 A 
ATOM      7  C14 NON d   1      23.643 -16.527  -1.297  0.00  0.00     0.014 A 
ATOM      8  C15 NON d   1      24.937 -15.998  -1.353  0.00  0.00     0.032 A 
ATOM      9  C16 NON d   1      25.967 -16.689  -0.703  0.00  0.00     0.060 A 
ENDROOT
BRANCH   1  10
ATOM     10  S1  NON d   1      27.903 -14.777  -0.366  0.00  0.00     0.269 S 
ATOM     11  O2  NON d   1      27.129 -14.044   0.620  0.00  0.00    -0.200 OA
ATOM     12  O3  NON d   1      29.336 -14.942  -0.207  0.00  0.00    -0.200 OA
BRANCH  10  13
ATOM     13  C5  NON d   1      27.623 -13.999  -1.944  0.00  0.00     0.083 C 
ATOM     14  C4  NON d   1      27.000 -12.749  -1.963  0.00  0.00     0.028 C 
ATOM     15  C3  NON d   1      26.360 -12.327  -3.127  0.00  0.00     0.041 C 
ATOM     16  C2  NON d   1      26.317 -13.157  -4.257  0.00  0.00     0.101 C 
ATOM     17  C18 NON d   1      27.052 -14.344  -4.294  0.00  0.00     0.102 C 
ATOM     18  C17 NON d   1      27.696 -14.766  -3.117  0.00  0.00     0.065 C 
BRANCH  16  19
ATOM     19  O1  NON d   1      25.491 -12.766  -5.279  0.00  0.00    -0.353 OA
ATOM     20  C1  NON d   1      25.913 -11.478  -5.755  0.00  0.00     0.210 C 
ENDBRANCH  16  19
BRANCH  17  21
ATOM     21  O6  NON d   1      27.208 -15.201  -5.351  0.00  0.00    -0.353 OA
ATOM     22  C19 NON d   1      28.519 -15.059  -6.145  0.00  0.00     0.210 C 
ENDBRANCH  17  21
ENDBRANCH  10  13
ENDBRANCH   1  10
BRANCH   6  23
ATOM     23  C11 NON d   1      21.976 -18.220  -0.455  0.00  0.00     0.017 C 
ATOM     24  C12 NON d   1      21.647 -19.487  -0.154  0.00  0.00     0.077 C 
BRANCH  24  25
ATOM     25  C13 NON d   1      20.225 -19.896  -0.051  0.00  0.00     0.264 C 
ATOM     26  O4  NON d   1      19.397 -19.703  -0.933  0.00  0.00    -0.266 OA
ATOM     27  N2  NON d   1      19.929 -20.516   1.134  0.00  0.00    -0.234 N 
ATOM     28  H11 NON d   1      20.581 -20.722   1.881  0.00  0.00     0.197 HD
BRANCH  27  29
ATOM     29  O5  NON d   1      18.591 -20.928   1.323  0.00  0.00    -0.287 OA
ATOM     30  H12 NON d   1      18.146 -20.558   0.532  0.00  0.00     0.244 HD
ENDBRANCH  27  29
ENDBRANCH  24  25
ENDBRANCH   6  23
TORSDOF 7
ENDMDL
MODEL 2
REMARK VINA RESULT:    -9.327      3.114      5.143
REMARK INTER + INTRA:         -13.263
REMARK INTER:                 -11.415
REMARK INTRA:                  -1.848
REMARK CONF_INDEPENDENT:        2.088
REMARK UNBOUND:                -1.848
REMARK  7 active torsions:
REMARK  status: ('A' for Active; 'I' for Inactive)
REMARK    1  A    between atoms: O1_2  and  C2_3 
REMARK    2  A    between atoms: C5_6  and  S1_7 
REMARK    3  A    between atoms: S1_7  and  N1_10 
REMARK    4  A    between atoms: C10_15  and  C11_16 
REMARK    5  A    between atoms: C12_17  and  C13_18 
REMARK       I    between atoms: C13_18  and  N2_20 
REMARK    6  A    between atoms: N2_20  and  O5_21 
REMARK    7  A    between atoms: C18_26  and  O6_27 
ROOT
ATOM      1  N1  NON d   1      27.197 -15.878  -0.416  0.00  0.00    -0.246 N 
ATOM      2  C6  NON d   1      28.105 -16.827  -0.009  0.00  0.00     0.111 C 
ATOM      3  C7  NON d   1      27.401 -17.985   0.241  0.00  0.00     0.032 C 
ATOM      4  C8  NON d   1      26.035 -17.742  -0.084  0.00  0.00    -0.006 A 
ATOM      5  C9  NON d   1      24.849 -18.507   0.043  0.00  0.00     0.025 A 
ATOM      6  C10 NON d   1      23.612 -17.981  -0.373  0.00  0.00    -0.035 A 
ATOM      7  C14 NON d   1      23.588 -16.711  -0.957  0.00  0.00     0.014 A 
ATOM      8  C15 NON d   1      24.742 -15.931  -1.088  0.00  0.00     0.032 A 
ATOM      9  C16 NON d   1      25.950 -16.441  -0.598  0.00  0.00     0.060 A 
ENDROOT
BRANCH   1  10
ATOM     10  S1  NON d   1      27.503 -14.204  -0.281  0.00  0.00     0.269 S 
ATOM     11  O2  NON d   1      28.899 -13.991  -0.619  0.00  0.00    -0.200 OA
ATOM     12  O3  NON d   1      26.452 -13.566  -1.052  0.00  0.00    -0.200 OA
BRANCH  10  13
ATOM     13  C5  NON d   1      27.291 -13.723   1.421  0.00  0.00     0.083 C 
ATOM     14  C4  NON d   1      26.966 -12.393   1.695  0.00  0.00     0.028 C 
ATOM     15  C3  NON d   1      27.239 -11.874   2.961  0.00  0.00     0.041 C 
ATOM     16  C2  NON d   1      27.856 -12.670   3.938  0.00  0.00     0.101 C 
ATOM     17  C18 NON d   1      28.056 -14.034   3.719  0.00  0.00     0.102 C 
ATOM     18  C17 NON d   1      27.781 -14.553   2.441  0.00  0.00     0.065 C 
BRANCH  16  19
ATOM     19  O1  NON d   1      28.284 -12.031   5.073  0.00  0.00    -0.353 OA
ATOM     20  C1  NON d   1      27.758 -12.714   6.222  0.00  0.00     0.210 C 
ENDBRANCH  16  19
BRANCH  17  21
ATOM     21  O6  NON d   1      28.536 -14.964   4.604  0.00  0.00    -0.353 OA
ATOM     22  C19 NON d   1      30.030 -14.849   4.956  0.00  0.00     0.210 C 
ENDBRANCH  17  21
ENDBRANCH  10  13
ENDBRANCH   1  10
BRANCH   6  23
ATOM     23  C11 NON d   1      22.382 -18.757  -0.110  0.00  0.00     0.017 C 
ATOM     24  C12 NON d   1      21.387 -18.946  -0.993  0.00  0.00     0.077 C 
BRANCH  24  25
ATOM     25  C13 NON d   1      20.168 -19.698  -0.611  0.00  0.00     0.264 C 
ATOM     26  O4  NON d   1      19.136 -19.700  -1.270  0.00  0.00    -0.266 OA
ATOM     27  N2  NON d   1      20.314 -20.398   0.558  0.00  0.00    -0.234 N 
ATOM     28  H11 NON d   1      21.152 -20.451   1.124  0.00  0.00     0.197 HD
BRANCH  27  29
ATOM     29  O5  NON d   1      19.194 -21.135   1.005  0.00  0.00    -0.287 OA
ATOM     30  H12 NON d   1      18.660 -21.218   0.188  0.00  0.00     0.244 HD
ENDBRANCH  27  29
ENDBRANCH  24  25
ENDBRANCH   6  23
TORSDOF 7
ENDMDL
MODEL 3
REMARK VINA RESULT:    -9.211      1.191      1.640
REMARK INTER + INTRA:         -13.262
REMARK INTER:                 -11.299
REMARK INTRA:                  -1.963
REMARK CONF_INDEPENDENT:        2.088
REMARK UNBOUND:                -1.963
REMARK  7 active torsions:
REMARK  status: ('A' for Active; 'I' for Inactive)
REMARK    1  A    between atoms: O1_2  and  C2_3 
REMARK    2  A    between atoms: C5_6  and  S1_7 
REMARK    3  A    between atoms: S1_7  and  N1_10 
REMARK    4  A    between atoms: C10_15  and  C11_16 
REMARK    5  A    between atoms: C12_17  and  C13_18 
REMARK       I    between atoms: C13_18  and  N2_20 
REMARK    6  A    between atoms: N2_20  and  O5_21 
REMARK    7  A    between atoms: C18_26  and  O6_27 
ROOT
ATOM      1  N1  NON d   1      26.990 -16.290  -0.478  0.00  0.00    -0.246 N 
ATOM      2  C6  NON d   1      27.790 -17.200   0.173  0.00  0.00     0.111 C 
ATOM      3  C7  NON d   1      26.971 -18.210   0.630  0.00  0.00     0.032 C 
ATOM      4  C8  NON d   1      25.645 -17.929   0.187  0.00  0.00    -0.006 A 
ATOM      5  C9  NON d   1      24.389 -18.543   0.413  0.00  0.00     0.025 A 
ATOM      6  C10 NON d   1      23.222 -18.017  -0.172  0.00  0.00    -0.035 A 
ATOM      7  C14 NON d   1      23.338 -16.910  -1.017  0.00  0.00     0.014 A 
ATOM      8  C15 NON d   1      24.565 -16.279  -1.252  0.00  0.00     0.032 A 
ATOM      9  C16 NON d   1      25.702 -16.770  -0.599  0.00  0.00     0.060 A 
ENDROOT
BRANCH   1  10
ATOM     10  S1  NON d   1      27.449 -14.659  -0.692  0.00  0.00     0.269 S 
ATOM     11  O2  NON d   1      26.316 -13.836  -0.309  0.00  0.00    -0.200 OA
ATOM     12  O3  NON d   1      28.720 -14.534  -0.002  0.00  0.00    -0.200 OA
BRANCH  10  13
ATOM     13  C5  NON d   1      27.748 -14.376  -2.425  0.00  0.00     0.083 C 
ATOM     14  C4  NON d   1      26.669 -14.002  -3.228  0.00  0.00     0.028 C 
ATOM     15  C3  NON d   1      26.740 -14.216  -4.604  0.00  0.00     0.041 C 
ATOM     16  C2  NON d   1      27.869 -14.826  -5.172  0.00  0.00     0.101 C 
ATOM     17  C18 NON d   1      29.005 -15.076  -4.399  0.00  0.00     0.102 C 
ATOM     18  C17 NON d   1      28.928 -14.858  -3.012  0.00  0.00     0.065 C 
BRANCH  16  19
ATOM     19  O1  NON d   1      27.772 -15.197  -6.489  0.00  0.00    -0.353 OA
ATOM     20  C1  NON d   1      28.680 -14.401  -7.267  0.00  0.00     0.210 C 
ENDBRANCH  16  19
BRANCH  17  21
ATOM     21  O6  NON d   1      30.217 -15.555  -4.821  0.00  0.00    -0.353 OA
ATOM     22  C19 NON d   1      30.238 -17.025  -5.278  0.00  0.00     0.210 C 
ENDBRANCH  17  21
ENDBRANCH  10  13
ENDBRANCH   1  10
BRANCH   6  23
ATOM     23  C11 NON d   1      21.916 -18.609   0.186  0.00  0.00     0.017 C 
ATOM     24  C12 NON d   1      21.142 -19.326  -0.645  0.00  0.00     0.077 C 
BRANCH  24  25
ATOM     25  C13 NON d   1      19.820 -19.831  -0.201  0.00  0.00     0.264 C 
ATOM     26  O4  NON d   1      18.807 -19.778  -0.888  0.00  0.00    -0.266 OA
ATOM     27  N2  NON d   1      19.845 -20.368   1.060  0.00  0.00    -0.234 N 
ATOM     28  H11 NON d   1      20.659 -20.459   1.655  0.00  0.00     0.197 HD
BRANCH  27  29
ATOM     29  O5  NON d   1      18.624 -20.862   1.568  0.00  0.00    -0.287 OA
ATOM     30  H12 NON d   1      18.121 -21.055   0.750  0.00  0.00     0.244 HD
ENDBRANCH  27  29
ENDBRANCH  24  25
ENDBRANCH   6  23
TORSDOF 7
ENDMDL
MODEL 4
REMARK VINA RESULT:    -9.203      2.860      5.028
REMARK INTER + INTRA:         -13.062
REMARK INTER:                 -11.291
REMARK INTRA:                  -1.770
REMARK CONF_INDEPENDENT:        2.088
REMARK UNBOUND:                -1.770
REMARK  7 active torsions:
REMARK  status: ('A' for Active; 'I' for Inactive)
REMARK    1  A    between atoms: O1_2  and  C2_3 
REMARK    2  A    between atoms: C5_6  and  S1_7 
REMARK    3  A    between atoms: S1_7  and  N1_10 
REMARK    4  A    between atoms: C10_15  and  C11_16 
REMARK    5  A    between atoms: C12_17  and  C13_18 
REMARK       I    between atoms: C13_18  and  N2_20 
REMARK    6  A    between atoms: N2_20  and  O5_21 
REMARK    7  A    between atoms: C18_26  and  O6_27 
ROOT
ATOM      1  N1  NON d   1      27.150 -15.944  -0.670  0.00  0.00    -0.246 N 
ATOM      2  C6  NON d   1      28.035 -16.893  -0.216  0.00  0.00     0.111 C 
ATOM      3  C7  NON d   1      27.299 -18.003   0.137  0.00  0.00     0.032 C 
ATOM      4  C8  NON d   1      25.933 -17.735  -0.171  0.00  0.00    -0.006 A 
ATOM      5  C9  NON d   1      24.726 -18.444   0.042  0.00  0.00     0.025 A 
ATOM      6  C10 NON d   1      23.497 -17.905  -0.381  0.00  0.00    -0.035 A 
ATOM      7  C14 NON d   1      23.501 -16.682  -1.058  0.00  0.00     0.014 A 
ATOM      8  C15 NON d   1      24.677 -15.956  -1.275  0.00  0.00     0.032 A 
ATOM      9  C16 NON d   1      25.880 -16.472  -0.778  0.00  0.00     0.060 A 
ENDROOT
BRANCH   1  10
ATOM     10  S1  NON d   1      27.518 -14.276  -0.668  0.00  0.00     0.269 S 
ATOM     11  O2  NON d   1      28.743 -14.103  -1.427  0.00  0.00    -0.200 OA
ATOM     12  O3  NON d   1      26.292 -13.621  -1.084  0.00  0.00    -0.200 OA
BRANCH  10  13
ATOM     13  C5  NON d   1      27.856 -13.772   1.007  0.00  0.00     0.083 C 
ATOM     14  C4  NON d   1      28.317 -14.735   1.907  0.00  0.00     0.028 C 
ATOM     15  C3  NON d   1      28.155 -14.518   3.274  0.00  0.00     0.041 C 
ATOM     16  C2  NON d   1      27.514 -13.361   3.741  0.00  0.00     0.101 C 
ATOM     17  C18 NON d   1      27.176 -12.332   2.860  0.00  0.00     0.102 C 
ATOM     18  C17 NON d   1      27.340 -12.555   1.480  0.00  0.00     0.065 C 
BRANCH  16  19
ATOM     19  O1  NON d   1      27.203 -13.325   5.076  0.00  0.00    -0.353 OA
ATOM     20  C1  NON d   1      28.279 -13.911   5.824  0.00  0.00     0.210 C 
ENDBRANCH  16  19
BRANCH  17  21
ATOM     21  O6  NON d   1      26.655 -11.103   3.165  0.00  0.00    -0.353 OA
ATOM     22  C19 NON d   1      27.657  -9.935   3.193  0.00  0.00     0.210 C 
ENDBRANCH  17  21
ENDBRANCH  10  13
ENDBRANCH   1  10
BRANCH   6  23
ATOM     23  C11 NON d   1      22.248 -18.614  -0.032  0.00  0.00     0.017 C 
ATOM     24  C12 NON d   1      21.315 -19.009  -0.913  0.00  0.00     0.077 C 
BRANCH  24  25
ATOM     25  C13 NON d   1      20.069 -19.668  -0.451  0.00  0.00     0.264 C 
ATOM     26  O4  NON d   1      19.034 -19.700  -1.106  0.00  0.00    -0.266 OA
ATOM     27  N2  NON d   1      20.192 -20.243   0.787  0.00  0.00    -0.234 N 
ATOM     28  H11 NON d   1      21.030 -20.267   1.355  0.00  0.00     0.197 HD
BRANCH  27  29
ATOM     29  O5  NON d   1      19.047 -20.883   1.311  0.00  0.00    -0.287 OA
ATOM     30  H12 NON d   1      18.327 -20.499   0.767  0.00  0.00     0.244 HD
ENDBRANCH  27  29
ENDBRANCH  24  25
ENDBRANCH   6  23
TORSDOF 7
ENDMDL
MODEL 5
REMARK VINA RESULT:    -9.125      1.952      3.533
REMARK INTER + INTRA:         -13.039
REMARK INTER:                 -11.213
REMARK INTRA:                  -1.825
REMARK CONF_INDEPENDENT:        2.088
REMARK UNBOUND:                -1.825
REMARK  7 active torsions:
REMARK  status: ('A' for Active; 'I' for Inactive)
REMARK    1  A    between atoms: O1_2  and  C2_3 
REMARK    2  A    between atoms: C5_6  and  S1_7 
REMARK    3  A    between atoms: S1_7  and  N1_10 
REMARK    4  A    between atoms: C10_15  and  C11_16 
REMARK    5  A    between atoms: C12_17  and  C13_18 
REMARK       I    between atoms: C13_18  and  N2_20 
REMARK    6  A    between atoms: N2_20  and  O5_21 
REMARK    7  A    between atoms: C18_26  and  O6_27 
ROOT
ATOM      1  N1  NON d   1      27.361 -15.748  -1.388  0.00  0.00    -0.246 N 
ATOM      2  C6  NON d   1      26.795 -14.676  -2.037  0.00  0.00     0.111 C 
ATOM      3  C7  NON d   1      25.438 -14.908  -2.102  0.00  0.00     0.032 C 
ATOM      4  C8  NON d   1      25.172 -16.130  -1.417  0.00  0.00    -0.006 A 
ATOM      5  C9  NON d   1      24.006 -16.911  -1.228  0.00  0.00     0.025 A 
ATOM      6  C10 NON d   1      24.059 -18.106  -0.487  0.00  0.00    -0.035 A 
ATOM      7  C14 NON d   1      25.273 -18.476   0.098  0.00  0.00     0.014 A 
ATOM      8  C15 NON d   1      26.443 -17.728  -0.078  0.00  0.00     0.032 A 
ATOM      9  C16 NON d   1      26.386 -16.584  -0.883  0.00  0.00     0.060 A 
ENDROOT
BRANCH   1  10
ATOM     10  S1  NON d   1      29.005 -16.167  -1.580  0.00  0.00     0.269 S 
ATOM     11  O2  NON d   1      29.789 -14.973  -1.317  0.00  0.00    -0.200 OA
ATOM     12  O3  NON d   1      29.185 -17.361  -0.774  0.00  0.00    -0.200 OA
BRANCH  10  13
ATOM     13  C5  NON d   1      29.282 -16.618  -3.280  0.00  0.00     0.083 C 
ATOM     14  C4  NON d   1      30.409 -17.384  -3.586  0.00  0.00     0.028 C 
ATOM     15  C3  NON d   1      30.908 -17.368  -4.887  0.00  0.00     0.041 C 
ATOM     16  C2  NON d   1      30.303 -16.573  -5.872  0.00  0.00     0.101 C 
ATOM     17  C18 NON d   1      29.099 -15.916  -5.613  0.00  0.00     0.102 C 
ATOM     18  C17 NON d   1      28.599 -15.934  -4.298  0.00  0.00     0.065 C 
BRANCH  16  19
ATOM     19  O1  NON d   1      30.976 -16.445  -7.060  0.00  0.00    -0.353 OA
ATOM     20  C1  NON d   1      31.155 -17.746  -7.640  0.00  0.00     0.210 C 
ENDBRANCH  16  19
BRANCH  17  21
ATOM     21  O6  NON d   1      28.328 -15.200  -6.491  0.00  0.00    -0.353 OA
ATOM     22  C19 NON d   1      28.956 -13.905  -7.037  0.00  0.00     0.210 C 
ENDBRANCH  17  21
ENDBRANCH  10  13
ENDBRANCH   1  10
BRANCH   6  23
ATOM     23  C11 NON d   1      22.852 -18.956  -0.416  0.00  0.00     0.017 C 
ATOM     24  C12 NON d   1      21.634 -18.602  -0.856  0.00  0.00     0.077 C 
BRANCH  24  25
ATOM     25  C13 NON d   1      20.475 -19.511  -0.688  0.00  0.00     0.264 C 
ATOM     26  O4  NON d   1      19.629 -19.700  -1.554  0.00  0.00    -0.266 OA
ATOM     27  N2  NON d   1      20.446 -20.125   0.537  0.00  0.00    -0.234 N 
ATOM     28  H11 NON d   1      21.133 -20.023   1.273  0.00  0.00     0.197 HD
BRANCH  27  29
ATOM     29  O5  NON d   1      19.366 -21.000   0.787  0.00  0.00    -0.287 OA
ATOM     30  H12 NON d   1      19.050 -21.205  -0.117  0.00  0.00     0.244 HD
ENDBRANCH  27  29
ENDBRANCH  24  25
ENDBRANCH   6  23
TORSDOF 7
ENDMDL
MODEL 6
REMARK VINA RESULT:    -8.901      1.173      2.007
REMARK INTER + INTRA:         -12.846
REMARK INTER:                 -10.989
REMARK INTRA:                  -1.858
REMARK CONF_INDEPENDENT:        2.088
REMARK UNBOUND:                -1.858
REMARK  7 active torsions:
REMARK  status: ('A' for Active; 'I' for Inactive)
REMARK    1  A    between atoms: O1_2  and  C2_3 
REMARK    2  A    between atoms: C5_6  and  S1_7 
REMARK    3  A    between atoms: S1_7  and  N1_10 
REMARK    4  A    between atoms: C10_15  and  C11_16 
REMARK    5  A    between atoms: C12_17  and  C13_18 
REMARK       I    between atoms: C13_18  and  N2_20 
REMARK    6  A    between atoms: N2_20  and  O5_21 
REMARK    7  A    between atoms: C18_26  and  O6_27 
ROOT
ATOM      1  N1  NON d   1      27.033 -15.928  -0.783  0.00  0.00    -0.246 N 
ATOM      2  C6  NON d   1      27.924 -16.804  -0.208  0.00  0.00     0.111 C 
ATOM      3  C7  NON d   1      27.201 -17.891   0.233  0.00  0.00     0.032 C 
ATOM      4  C8  NON d   1      25.841 -17.691  -0.144  0.00  0.00    -0.006 A 
ATOM      5  C9  NON d   1      24.643 -18.405   0.102  0.00  0.00     0.025 A 
ATOM      6  C10 NON d   1      23.417 -17.943  -0.412  0.00  0.00    -0.035 A 
ATOM      7  C14 NON d   1      23.417 -16.794  -1.208  0.00  0.00     0.014 A 
ATOM      8  C15 NON d   1      24.583 -16.064  -1.461  0.00  0.00     0.032 A 
ATOM      9  C16 NON d   1      25.780 -16.497  -0.877  0.00  0.00     0.060 A 
ENDROOT
BRANCH   1  10
ATOM     10  S1  NON d   1      27.364 -14.260  -0.938  0.00  0.00     0.269 S 
ATOM     11  O2  NON d   1      26.789 -13.596   0.218  0.00  0.00    -0.200 OA
ATOM     12  O3  NON d   1      28.789 -14.183  -1.201  0.00  0.00    -0.200 OA
BRANCH  10  13
ATOM     13  C5  NON d   1      26.516 -13.644  -2.378  0.00  0.00     0.083 C 
ATOM     14  C4  NON d   1      26.568 -14.403  -3.550  0.00  0.00     0.028 C 
ATOM     15  C3  NON d   1      26.337 -13.778  -4.774  0.00  0.00     0.041 C 
ATOM     16  C2  NON d   1      26.083 -12.399  -4.833  0.00  0.00     0.101 C 
ATOM     17  C18 NON d   1      25.892 -11.662  -3.663  0.00  0.00     0.102 C 
ATOM     18  C17 NON d   1      26.127 -12.296  -2.429  0.00  0.00     0.065 C 
BRANCH  16  19
ATOM     19  O1  NON d   1      26.082 -11.825  -6.079  0.00  0.00    -0.353 OA
ATOM     20  C1  NON d   1      27.411 -11.883  -6.622  0.00  0.00     0.210 C 
ENDBRANCH  16  19
BRANCH  17  21
ATOM     21  O6  NON d   1      25.528 -10.346  -3.550  0.00  0.00    -0.353 OA
ATOM     22  C19 NON d   1      26.167  -9.382  -4.565  0.00  0.00     0.210 C 
ENDBRANCH  17  21
ENDBRANCH  10  13
ENDBRANCH   1  10
BRANCH   6  23
ATOM     23  C11 NON d   1      22.173 -18.645  -0.032  0.00  0.00     0.017 C 
ATOM     24  C12 NON d   1      21.242 -19.084  -0.895  0.00  0.00     0.077 C 
BRANCH  24  25
ATOM     25  C13 NON d   1      20.001 -19.731  -0.405  0.00  0.00     0.264 C 
ATOM     26  O4  NON d   1      18.936 -19.701  -1.008  0.00  0.00    -0.266 OA
ATOM     27  N2  NON d   1      20.168 -20.372   0.795  0.00  0.00    -0.234 N 
ATOM     28  H11 NON d   1      21.031 -20.449   1.318  0.00  0.00     0.197 HD
BRANCH  27  29
ATOM     29  O5  NON d   1      19.031 -21.006   1.343  0.00  0.00    -0.287 OA
ATOM     30  H12 NON d   1      18.428 -21.055   0.572  0.00  0.00     0.244 HD
ENDBRANCH  27  29
ENDBRANCH  24  25
ENDBRANCH   6  23
TORSDOF 7
ENDMDL
MODEL 7
REMARK VINA RESULT:    -8.739      2.556      3.798
REMARK INTER + INTRA:         -12.486
REMARK INTER:                 -10.827
REMARK INTRA:                  -1.658
REMARK CONF_INDEPENDENT:        2.088
REMARK UNBOUND:                -1.658
REMARK  7 active torsions:
REMARK  status: ('A' for Active; 'I' for Inactive)
REMARK    1  A    between atoms: O1_2  and  C2_3 
REMARK    2  A    between atoms: C5_6  and  S1_7 
REMARK    3  A    between atoms: S1_7  and  N1_10 
REMARK    4  A    between atoms: C10_15  and  C11_16 
REMARK    5  A    between atoms: C12_17  and  C13_18 
REMARK       I    between atoms: C13_18  and  N2_20 
REMARK    6  A    between atoms: N2_20  and  O5_21 
REMARK    7  A    between atoms: C18_26  and  O6_27 
ROOT
ATOM      1  N1  NON d   1      27.377 -16.112  -1.601  0.00  0.00    -0.246 N 
ATOM      2  C6  NON d   1      26.971 -15.399  -2.704  0.00  0.00     0.111 C 
ATOM      3  C7  NON d   1      25.648 -15.715  -2.931  0.00  0.00     0.032 C 
ATOM      4  C8  NON d   1      25.229 -16.600  -1.895  0.00  0.00    -0.006 A 
ATOM      5  C9  NON d   1      24.033 -17.316  -1.646  0.00  0.00     0.025 A 
ATOM      6  C10 NON d   1      23.916 -18.138  -0.510  0.00  0.00    -0.035 A 
ATOM      7  C14 NON d   1      24.985 -18.190   0.390  0.00  0.00     0.014 A 
ATOM      8  C15 NON d   1      26.180 -17.500   0.166  0.00  0.00     0.032 A 
ATOM      9  C16 NON d   1      26.306 -16.749  -1.010  0.00  0.00     0.060 A 
ENDROOT
BRANCH   1  10
ATOM     10  S1  NON d   1      29.018 -16.479  -1.305  0.00  0.00     0.269 S 
ATOM     11  O2  NON d   1      29.592 -15.350  -0.595  0.00  0.00    -0.200 OA
ATOM     12  O3  NON d   1      29.005 -17.800  -0.704  0.00  0.00    -0.200 OA
BRANCH  10  13
ATOM     13  C5  NON d   1      29.863 -16.606  -2.868  0.00  0.00     0.083 C 
ATOM     14  C4  NON d   1      29.626 -15.622  -3.829  0.00  0.00     0.028 C 
ATOM     15  C3  NON d   1      29.877 -15.908  -5.171  0.00  0.00     0.041 C 
ATOM     16  C2  NON d   1      30.335 -17.178  -5.554  0.00  0.00     0.101 C 
ATOM     17  C18 NON d   1      30.706 -18.119  -4.591  0.00  0.00     0.102 C 
ATOM     18  C17 NON d   1      30.451 -17.826  -3.239  0.00  0.00     0.065 C 
BRANCH  16  19
ATOM     19  O1  NON d   1      30.350 -17.448  -6.898  0.00  0.00    -0.353 OA
ATOM     20  C1  NON d   1      31.581 -16.964  -7.459  0.00  0.00     0.210 C 
ENDBRANCH  16  19
BRANCH  17  21
ATOM     21  O6  NON d   1      31.274 -19.348  -4.796  0.00  0.00    -0.353 OA
ATOM     22  C19 NON d   1      30.407 -20.373  -5.549  0.00  0.00     0.210 C 
ENDBRANCH  17  21
ENDBRANCH  10  13
ENDBRANCH   1  10
BRANCH   6  23
ATOM     23  C11 NON d   1      22.702 -18.965  -0.349  0.00  0.00     0.017 C 
ATOM     24  C12 NON d   1      21.493 -18.664  -0.851  0.00  0.00     0.077 C 
BRANCH  24  25
ATOM     25  C13 NON d   1      20.325 -19.538  -0.586  0.00  0.00     0.264 C 
ATOM     26  O4  NON d   1      19.405 -19.701  -1.378  0.00  0.00    -0.266 OA
ATOM     27  N2  NON d   1      20.379 -20.151   0.639  0.00  0.00    -0.234 N 
ATOM     28  H11 NON d   1      21.128 -20.070   1.316  0.00  0.00     0.197 HD
BRANCH  27  29
ATOM     29  O5  NON d   1      19.298 -20.993   0.979  0.00  0.00    -0.287 OA
ATOM     30  H12 NON d   1      18.948 -21.249   0.101  0.00  0.00     0.244 HD
ENDBRANCH  27  29
ENDBRANCH  24  25
ENDBRANCH   6  23
TORSDOF 7
ENDMDL
MODEL 8
REMARK VINA RESULT:    -8.326      2.859      5.271
REMARK INTER + INTRA:         -12.278
REMARK INTER:                 -10.414
REMARK INTRA:                  -1.864
REMARK CONF_INDEPENDENT:        2.088
REMARK UNBOUND:                -1.864
REMARK  7 active torsions:
REMARK  status: ('A' for Active; 'I' for Inactive)
REMARK    1  A    between atoms: O1_2  and  C2_3 
REMARK    2  A    between atoms: C5_6  and  S1_7 
REMARK    3  A    between atoms: S1_7  and  N1_10 
REMARK    4  A    between atoms: C10_15  and  C11_16 
REMARK    5  A    between atoms: C12_17  and  C13_18 
REMARK       I    between atoms: C13_18  and  N2_20 
REMARK    6  A    between atoms: N2_20  and  O5_21 
REMARK    7  A    between atoms: C18_26  and  O6_27 
ROOT
ATOM      1  N1  NON d   1      27.221 -15.760  -1.116  0.00  0.00    -0.246 N 
ATOM      2  C6  NON d   1      26.863 -14.956  -2.173  0.00  0.00     0.111 C 
ATOM      3  C7  NON d   1      25.590 -15.323  -2.552  0.00  0.00     0.032 C 
ATOM      4  C8  NON d   1      25.145 -16.339  -1.656  0.00  0.00    -0.006 A 
ATOM      5  C9  NON d   1      23.984 -17.148  -1.594  0.00  0.00     0.025 A 
ATOM      6  C10 NON d   1      23.827 -18.093  -0.563  0.00  0.00    -0.035 A 
ATOM      7  C14 NON d   1      24.816 -18.180   0.421  0.00  0.00     0.014 A 
ATOM      8  C15 NON d   1      25.976 -17.399   0.381  0.00  0.00     0.032 A 
ATOM      9  C16 NON d   1      26.150 -16.519  -0.695  0.00  0.00     0.060 A 
ENDROOT
BRANCH   1  10
ATOM     10  S1  NON d   1      28.852 -16.058  -0.709  0.00  0.00     0.269 S 
ATOM     11  O2  NON d   1      28.932 -17.422  -0.215  0.00  0.00    -0.200 OA
ATOM     12  O3  NON d   1      29.612 -15.650  -1.876  0.00  0.00    -0.200 OA
BRANCH  10  13
ATOM     13  C5  NON d   1      29.309 -14.981   0.634  0.00  0.00     0.083 C 
ATOM     14  C4  NON d   1      30.601 -15.082   1.152  0.00  0.00     0.028 C 
ATOM     15  C3  NON d   1      30.853 -14.623   2.445  0.00  0.00     0.041 C 
ATOM     16  C2  NON d   1      29.816 -14.091   3.226  0.00  0.00     0.101 C 
ATOM     17  C18 NON d   1      28.556 -13.859   2.670  0.00  0.00     0.102 C 
ATOM     18  C17 NON d   1      28.306 -14.324   1.366  0.00  0.00     0.065 C 
BRANCH  16  19
ATOM     19  O1  NON d   1      30.095 -13.865   4.549  0.00  0.00    -0.353 OA
ATOM     20  C1  NON d   1      29.394 -14.832   5.347  0.00  0.00     0.210 C 
ENDBRANCH  16  19
BRANCH  17  21
ATOM     21  O6  NON d   1      27.480 -13.248   3.257  0.00  0.00    -0.353 OA
ATOM     22  C19 NON d   1      27.800 -12.045   4.163  0.00  0.00     0.210 C 
ENDBRANCH  17  21
ENDBRANCH  10  13
ENDBRANCH   1  10
BRANCH   6  23
ATOM     23  C11 NON d   1      22.663 -19.004  -0.602  0.00  0.00     0.017 C 
ATOM     24  C12 NON d   1      21.379 -18.612  -0.612  0.00  0.00     0.077 C 
BRANCH  24  25
ATOM     25  C13 NON d   1      20.283 -19.611  -0.597  0.00  0.00     0.264 C 
ATOM     26  O4  NON d   1      19.429 -19.695  -1.471  0.00  0.00    -0.266 OA
ATOM     27  N2  NON d   1      20.323 -20.436   0.497  0.00  0.00    -0.234 N 
ATOM     28  H11 NON d   1      21.021 -20.424   1.231  0.00  0.00     0.197 HD
BRANCH  27  29
ATOM     29  O5  NON d   1      19.306 -21.411   0.599  0.00  0.00    -0.287 OA
ATOM     30  H12 NON d   1      18.584 -21.015   0.067  0.00  0.00     0.244 HD
ENDBRANCH  27  29
ENDBRANCH  24  25
ENDBRANCH   6  23
TORSDOF 7
ENDMDL
MODEL 9
REMARK VINA RESULT:    -8.156      2.729      5.009
REMARK INTER + INTRA:         -12.110
REMARK INTER:                 -10.244
REMARK INTRA:                  -1.865
REMARK CONF_INDEPENDENT:        2.088
REMARK UNBOUND:                -1.865
REMARK  7 active torsions:
REMARK  status: ('A' for Active; 'I' for Inactive)
REMARK    1  A    between atoms: O1_2  and  C2_3 
REMARK    2  A    between atoms: C5_6  and  S1_7 
REMARK    3  A    between atoms: S1_7  and  N1_10 
REMARK    4  A    between atoms: C10_15  and  C11_16 
REMARK    5  A    between atoms: C12_17  and  C13_18 
REMARK       I    between atoms: C13_18  and  N2_20 
REMARK    6  A    between atoms: N2_20  and  O5_21 
REMARK    7  A    between atoms: C18_26  and  O6_27 
ROOT
ATOM      1  N1  NON d   1      27.014 -15.717  -1.375  0.00  0.00    -0.246 N 
ATOM      2  C6  NON d   1      26.579 -14.905  -2.396  0.00  0.00     0.111 C 
ATOM      3  C7  NON d   1      25.285 -15.278  -2.691  0.00  0.00     0.032 C 
ATOM      4  C8  NON d   1      24.909 -16.306  -1.777  0.00  0.00    -0.006 A 
ATOM      5  C9  NON d   1      23.761 -17.124  -1.645  0.00  0.00     0.025 A 
ATOM      6  C10 NON d   1      23.680 -18.081  -0.617  0.00  0.00    -0.035 A 
ATOM      7  C14 NON d   1      24.734 -18.171   0.297  0.00  0.00     0.014 A 
ATOM      8  C15 NON d   1      25.884 -17.381   0.186  0.00  0.00     0.032 A 
ATOM      9  C16 NON d   1      25.978 -16.489  -0.889  0.00  0.00     0.060 A 
ENDROOT
BRANCH   1  10
ATOM     10  S1  NON d   1      28.671 -16.009  -1.083  0.00  0.00     0.269 S 
ATOM     11  O2  NON d   1      28.888 -17.439  -1.212  0.00  0.00    -0.200 OA
ATOM     12  O3  NON d   1      29.373 -15.075  -1.943  0.00  0.00    -0.200 OA
BRANCH  10  13
ATOM     13  C5  NON d   1      29.037 -15.567   0.603  0.00  0.00     0.083 C 
ATOM     14  C4  NON d   1      27.975 -15.215   1.439  0.00  0.00     0.028 C 
ATOM     15  C3  NON d   1      28.229 -14.443   2.572  0.00  0.00     0.041 C 
ATOM     16  C2  NON d   1      29.531 -14.003   2.856  0.00  0.00     0.101 C 
ATOM     17  C18 NON d   1      30.615 -14.464   2.106  0.00  0.00     0.102 C 
ATOM     18  C17 NON d   1      30.354 -15.241   0.964  0.00  0.00     0.065 C 
BRANCH  16  19
ATOM     19  O1  NON d   1      29.664 -13.077   3.858  0.00  0.00    -0.353 OA
ATOM     20  C1  NON d   1      29.233 -13.663   5.097  0.00  0.00     0.210 C 
ENDBRANCH  16  19
BRANCH  17  21
ATOM     21  O6  NON d   1      31.946 -14.223   2.321  0.00  0.00    -0.353 OA
ATOM     22  C19 NON d   1      32.892 -15.415   2.091  0.00  0.00     0.210 C 
ENDBRANCH  17  21
ENDBRANCH  10  13
ENDBRANCH   1  10
BRANCH   6  23
ATOM     23  C11 NON d   1      22.523 -18.999  -0.585  0.00  0.00     0.017 C 
ATOM     24  C12 NON d   1      21.240 -18.627  -0.728  0.00  0.00     0.077 C 
BRANCH  24  25
ATOM     25  C13 NON d   1      20.147 -19.623  -0.626  0.00  0.00     0.264 C 
ATOM     26  O4  NON d   1      19.221 -19.699  -1.424  0.00  0.00    -0.266 OA
ATOM     27  N2  NON d   1      20.279 -20.457   0.453  0.00  0.00    -0.234 N 
ATOM     28  H11 NON d   1      21.037 -20.453   1.124  0.00  0.00     0.197 HD
BRANCH  27  29
ATOM     29  O5  NON d   1      19.272 -21.431   0.634  0.00  0.00    -0.287 OA
ATOM     30  H12 NON d   1      18.529 -21.062   0.112  0.00  0.00     0.244 HD
ENDBRANCH  27  29
ENDBRANCH  24  25
ENDBRANCH   6  23
TORSDOF 7
ENDMDL
