MODEL 1
REMARK VINA RESULT:    -8.164      0.000      0.000
REMARK INTER + INTRA:         -10.274
REMARK INTER:                  -9.656
REMARK INTRA:                  -0.618
REMARK CONF_INDEPENDENT:        1.492
REMARK UNBOUND:                -0.618
REMARK  5 active torsions:
REMARK  status: ('A' for Active; 'I' for Inactive)
REMARK    1  A    between atoms: C4_4  and  C2_2 
REMARK    2  A    between atoms: C14_24  and  C15_25 
REMARK    3  A    between atoms: C16_26  and  C17_27 
REMARK    4  A    between atoms: C17_27  and  C18_28 
REMARK    5  A    between atoms: C18_28  and  S2_29 
ROOT
ATOM      1  C4  NON d   1      27.875 -14.137   2.716  0.00  0.00     0.187 C 
ATOM      2  N1  NON d   1      28.628 -12.885   2.481  0.00  0.00    -0.345 N 
ATOM      3  C5  NON d   1      27.929 -11.771   2.019  0.00  0.00     0.239 C 
ATOM      4  O1  NON d   1      26.738 -11.594   2.269  0.00  0.00    -0.272 OA
ATOM      5  C6  NON d   1      28.724 -10.783   1.200  0.00  0.00     0.272 C 
ATOM      6  N2  NON d   1      28.104 -10.582  -0.091  0.00  0.00    -0.182 N 
ATOM      7  N3  NON d   1      27.766  -9.355  -0.540  0.00  0.00     0.025 NA
ATOM      8  N4  NON d   1      27.284  -9.560  -1.759  0.00  0.00    -0.134 NA
ATOM      9  C7  NON d   1      27.415 -10.903  -2.006  0.00  0.00     0.216 C 
ATOM     10  N5  NON d   1      28.003 -11.572  -1.001  0.00  0.00    -0.134 NA
ATOM     11  C8  NON d   1      26.853 -11.509  -3.220  0.00  0.00     0.115 C 
ATOM     12  C9  NON d   1      26.226 -10.854  -4.262  0.00  0.00     0.087 C 
ATOM     13  S1  NON d   1      25.536 -12.003  -5.341  0.00  0.00    -0.083 SA
ATOM     14  C10 NON d   1      26.094 -13.271  -4.326  0.00  0.00     0.093 C 
ATOM     15  N6  NON d   1      26.871 -12.885  -3.330  0.00  0.00    -0.240 NA
ATOM     16  C11 NON d   1      25.682 -14.697  -4.554  0.00  0.00     0.189 C 
ATOM     17  N7  NON d   1      26.461 -15.552  -3.671  0.00  0.00    -0.355 N 
ATOM     18  C12 NON d   1      26.191 -15.554  -2.302  0.00  0.00     0.220 C 
ATOM     19  O2  NON d   1      25.131 -15.182  -1.821  0.00  0.00    -0.274 OA
ATOM     20  C13 NON d   1      27.385 -16.043  -1.505  0.00  0.00     0.139 C 
ATOM     21  C14 NON d   1      27.153 -16.570  -0.081  0.00  0.00     0.163 C 
ATOM     22  O3  NON d   1      26.952 -15.568   0.942  0.00  0.00    -0.310 OA
ATOM     23  C19 NON d   1      28.096 -14.995   1.420  0.00  0.00     0.282 C 
ATOM     24  O4  NON d   1      29.202 -15.132   0.899  0.00  0.00    -0.263 OA
ATOM     25  H9  NON d   1      29.555 -13.032   2.091  0.00  0.00     0.163 HD
ATOM     26  H15 NON d   1      27.435 -15.645  -3.926  0.00  0.00     0.162 HD
ENDROOT
BRANCH  21  27
ATOM     27  C15 NON d   1      26.164 -17.695   0.127  0.00  0.00     0.002 C 
ATOM     28  C16 NON d   1      24.830 -17.666  -0.039  0.00  0.00    -0.027 C 
BRANCH  28  29
ATOM     29  C17 NON d   1      23.921 -18.866  -0.149  0.00  0.00     0.037 C 
BRANCH  29  30
ATOM     30  C18 NON d   1      22.675 -18.622  -1.001  0.00  0.00     0.074 C 
BRANCH  30  31
ATOM     31  S2  NON d   1      21.181 -19.284  -0.213  0.00  0.00    -0.182 SA
ATOM     32  H25 NON d   1      21.818 -20.129   0.612  0.00  0.00     0.101 HD
ENDBRANCH  30  31
ENDBRANCH  29  30
ENDBRANCH  28  29
ENDBRANCH  21  27
BRANCH   1  33
ATOM     33  C2  NON d   1      28.137 -14.819   4.071  0.00  0.00     0.010 C 
ATOM     34  C1  NON d   1      27.084 -14.075   5.004  0.00  0.00     0.012 C 
ATOM     35  C3  NON d   1      29.677 -14.449   4.250  0.00  0.00     0.012 C 
ENDBRANCH   1  33
TORSDOF 5
ENDMDL
MODEL 2
REMARK VINA RESULT:    -7.615      1.057      1.130
REMARK INTER + INTRA:          -9.704
REMARK INTER:                  -9.107
REMARK INTRA:                  -0.597
REMARK CONF_INDEPENDENT:        1.492
REMARK UNBOUND:                -0.597
REMARK  5 active torsions:
REMARK  status: ('A' for Active; 'I' for Inactive)
REMARK    1  A    between atoms: C4_4  and  C2_2 
REMARK    2  A    between atoms: C14_24  and  C15_25 
REMARK    3  A    between atoms: C16_26  and  C17_27 
REMARK    4  A    between atoms: C17_27  and  C18_28 
REMARK    5  A    between atoms: C18_28  and  S2_29 
ROOT
ATOM      1  C4  NON d   1      27.069 -13.008   2.614  0.00  0.00     0.187 C 
ATOM      2  N1  NON d   1      27.746 -11.706   2.423  0.00  0.00    -0.345 N 
ATOM      3  C5  NON d   1      27.034 -10.675   1.814  0.00  0.00     0.239 C 
ATOM      4  O1  NON d   1      25.810 -10.591   1.886  0.00  0.00    -0.272 OA
ATOM      5  C6  NON d   1      27.858  -9.655   1.065  0.00  0.00     0.272 C 
ATOM      6  N2  NON d   1      27.414  -9.557  -0.308  0.00  0.00    -0.182 N 
ATOM      7  N3  NON d   1      27.048  -8.381  -0.861  0.00  0.00     0.025 NA
ATOM      8  N4  NON d   1      26.763  -8.674  -2.123  0.00  0.00    -0.134 NA
ATOM      9  C7  NON d   1      27.034 -10.009  -2.283  0.00  0.00     0.216 C 
ATOM     10  N5  NON d   1      27.524 -10.586  -1.173  0.00  0.00    -0.134 NA
ATOM     11  C8  NON d   1      26.701 -10.707  -3.530  0.00  0.00     0.115 C 
ATOM     12  C9  NON d   1      26.179 -10.149  -4.681  0.00  0.00     0.087 C 
ATOM     13  S1  NON d   1      25.744 -11.393  -5.787  0.00  0.00    -0.083 SA
ATOM     14  C10 NON d   1      26.250 -12.569  -4.641  0.00  0.00     0.093 C 
ATOM     15  N6  NON d   1      26.844 -12.080  -3.568  0.00  0.00    -0.240 NA
ATOM     16  C11 NON d   1      25.989 -14.033  -4.853  0.00  0.00     0.189 C 
ATOM     17  N7  NON d   1      26.699 -14.783  -3.829  0.00  0.00    -0.355 N 
ATOM     18  C12 NON d   1      26.238 -14.756  -2.512  0.00  0.00     0.220 C 
ATOM     19  O2  NON d   1      25.093 -14.457  -2.203  0.00  0.00    -0.274 OA
ATOM     20  C13 NON d   1      27.340 -15.110  -1.533  0.00  0.00     0.139 C 
ATOM     21  C14 NON d   1      26.950 -15.600  -0.131  0.00  0.00     0.163 C 
ATOM     22  O3  NON d   1      26.526 -14.580   0.802  0.00  0.00    -0.310 OA
ATOM     23  C19 NON d   1      27.541 -13.893   1.406  0.00  0.00     0.282 C 
ATOM     24  O4  NON d   1      28.717 -13.955   1.052  0.00  0.00    -0.263 OA
ATOM     25  H9  NON d   1      28.728 -11.788   2.174  0.00  0.00     0.163 HD
ATOM     26  H15 NON d   1      27.704 -14.802  -3.940  0.00  0.00     0.162 HD
ENDROOT
BRANCH  21  27
ATOM     27  C15 NON d   1      26.033 -16.796  -0.007  0.00  0.00     0.002 C 
ATOM     28  C16 NON d   1      24.698 -16.836  -0.158  0.00  0.00    -0.027 C 
BRANCH  28  29
ATOM     29  C17 NON d   1      23.861 -18.077  -0.357  0.00  0.00     0.037 C 
BRANCH  29  30
ATOM     30  C18 NON d   1      22.367 -17.796  -0.518  0.00  0.00     0.074 C 
BRANCH  30  31
ATOM     31  S2  NON d   1      21.392 -19.325  -0.526  0.00  0.00    -0.182 SA
ATOM     32  H25 NON d   1      21.785 -19.750   0.684  0.00  0.00     0.101 HD
ENDBRANCH  30  31
ENDBRANCH  29  30
ENDBRANCH  28  29
ENDBRANCH  21  27
BRANCH   1  33
ATOM     33  C2  NON d   1      27.189 -13.613   4.025  0.00  0.00     0.010 C 
ATOM     34  C1  NON d   1      27.780 -12.382   4.843  0.00  0.00     0.012 C 
ATOM     35  C3  NON d   1      28.168 -14.827   3.701  0.00  0.00     0.012 C 
ENDBRANCH   1  33
TORSDOF 5
ENDMDL
MODEL 3
REMARK VINA RESULT:    -7.264      4.080      6.557
REMARK INTER + INTRA:          -9.303
REMARK INTER:                  -8.756
REMARK INTRA:                  -0.547
REMARK CONF_INDEPENDENT:        1.492
REMARK UNBOUND:                -0.547
REMARK  5 active torsions:
REMARK  status: ('A' for Active; 'I' for Inactive)
REMARK    1  A    between atoms: C4_4  and  C2_2 
REMARK    2  A    between atoms: C14_24  and  C15_25 
REMARK    3  A    between atoms: C16_26  and  C17_27 
REMARK    4  A    between atoms: C17_27  and  C18_28 
REMARK    5  A    between atoms: C18_28  and  S2_29 
ROOT
ATOM      1  C4  NON d   1      29.736 -15.656  -5.868  0.00  0.00     0.187 C 
ATOM      2  N1  NON d   1      30.114 -14.912  -7.091  0.00  0.00    -0.345 N 
ATOM      3  C5  NON d   1      30.820 -13.719  -6.945  0.00  0.00     0.239 C 
ATOM      4  O1  NON d   1      31.561 -13.508  -5.987  0.00  0.00    -0.272 OA
ATOM      5  C6  NON d   1      30.631 -12.700  -8.043  0.00  0.00     0.272 C 
ATOM      6  N2  NON d   1      30.172 -11.444  -7.493  0.00  0.00    -0.182 N 
ATOM      7  N3  NON d   1      30.820 -10.283  -7.721  0.00  0.00     0.025 NA
ATOM      8  N4  NON d   1      30.086  -9.359  -7.113  0.00  0.00    -0.134 NA
ATOM      9  C7  NON d   1      28.993 -10.009  -6.600  0.00  0.00     0.216 C 
ATOM     10  N5  NON d   1      28.973 -11.321  -6.888  0.00  0.00    -0.134 NA
ATOM     11  C8  NON d   1      28.030  -9.311  -5.739  0.00  0.00     0.115 C 
ATOM     12  C9  NON d   1      28.032  -7.970  -5.407  0.00  0.00     0.087 C 
ATOM     13  S1  NON d   1      26.850  -7.668  -4.195  0.00  0.00    -0.083 SA
ATOM     14  C10 NON d   1      26.454  -9.339  -4.184  0.00  0.00     0.093 C 
ATOM     15  N6  NON d   1      27.048 -10.058  -5.120  0.00  0.00    -0.240 NA
ATOM     16  C11 NON d   1      25.530  -9.920  -3.151  0.00  0.00     0.189 C 
ATOM     17  N7  NON d   1      25.234 -11.297  -3.515  0.00  0.00    -0.355 N 
ATOM     18  C12 NON d   1      26.222 -12.272  -3.373  0.00  0.00     0.220 C 
ATOM     19  O2  NON d   1      27.190 -12.153  -2.635  0.00  0.00    -0.274 OA
ATOM     20  C13 NON d   1      25.950 -13.468  -4.265  0.00  0.00     0.139 C 
ATOM     21  C14 NON d   1      26.613 -14.810  -3.920  0.00  0.00     0.163 C 
ATOM     22  O3  NON d   1      28.009 -14.937  -4.271  0.00  0.00    -0.310 OA
ATOM     23  C19 NON d   1      28.250 -15.240  -5.582  0.00  0.00     0.282 C 
ATOM     24  O4  NON d   1      27.392 -15.200  -6.463  0.00  0.00    -0.263 OA
ATOM     25  H9  NON d   1      29.404 -14.933  -7.818  0.00  0.00     0.163 HD
ATOM     26  H15 NON d   1      24.630 -11.400  -4.319  0.00  0.00     0.162 HD
ENDROOT
BRANCH  21  27
ATOM     27  C15 NON d   1      26.393 -15.398  -2.545  0.00  0.00     0.002 C 
ATOM     28  C16 NON d   1      25.428 -16.247  -2.150  0.00  0.00    -0.027 C 
BRANCH  28  29
ATOM     29  C17 NON d   1      25.427 -17.066  -0.882  0.00  0.00     0.037 C 
BRANCH  29  30
ATOM     30  C18 NON d   1      24.051 -17.190  -0.227  0.00  0.00     0.074 C 
BRANCH  30  31
ATOM     31  S2  NON d   1      23.288 -18.801  -0.564  0.00  0.00    -0.182 SA
ATOM     32  H25 NON d   1      23.630 -19.367   0.604  0.00  0.00     0.101 HD
ENDBRANCH  30  31
ENDBRANCH  29  30
ENDBRANCH  28  29
ENDBRANCH  21  27
BRANCH   1  33
ATOM     33  C2  NON d   1      30.060 -17.161  -5.886  0.00  0.00     0.010 C 
ATOM     34  C1  NON d   1      30.329 -17.441  -4.343  0.00  0.00     0.012 C 
ATOM     35  C3  NON d   1      31.317 -17.140  -6.865  0.00  0.00     0.012 C 
ENDBRANCH   1  33
TORSDOF 5
ENDMDL
MODEL 4
REMARK VINA RESULT:    -6.777      4.551      6.437
REMARK INTER + INTRA:          -9.707
REMARK INTER:                  -8.268
REMARK INTRA:                  -1.439
REMARK CONF_INDEPENDENT:        1.492
REMARK UNBOUND:                -1.439
REMARK  5 active torsions:
REMARK  status: ('A' for Active; 'I' for Inactive)
REMARK    1  A    between atoms: C4_4  and  C2_2 
REMARK    2  A    between atoms: C14_24  and  C15_25 
REMARK    3  A    between atoms: C16_26  and  C17_27 
REMARK    4  A    between atoms: C17_27  and  C18_28 
REMARK    5  A    between atoms: C18_28  and  S2_29 
ROOT
ATOM      1  C4  NON d   1      26.481 -15.637  -2.631  0.00  0.00     0.187 C 
ATOM      2  N1  NON d   1      25.944 -14.258  -2.617  0.00  0.00    -0.345 N 
ATOM      3  C5  NON d   1      25.381 -13.756  -3.789  0.00  0.00     0.239 C 
ATOM      4  O1  NON d   1      24.856 -14.485  -4.628  0.00  0.00    -0.272 OA
ATOM      5  C6  NON d   1      25.446 -12.258  -3.965  0.00  0.00     0.272 C 
ATOM      6  N2  NON d   1      26.105 -11.923  -5.208  0.00  0.00    -0.182 N 
ATOM      7  N3  NON d   1      25.526 -11.133  -6.136  0.00  0.00     0.025 NA
ATOM      8  N4  NON d   1      26.438 -11.009  -7.092  0.00  0.00    -0.134 NA
ATOM      9  C7  NON d   1      27.549 -11.685  -6.658  0.00  0.00     0.216 C 
ATOM     10  N5  NON d   1      27.403 -12.213  -5.432  0.00  0.00    -0.134 NA
ATOM     11  C8  NON d   1      28.713 -11.873  -7.534  0.00  0.00     0.115 C 
ATOM     12  C9  NON d   1      28.888 -11.361  -8.805  0.00  0.00     0.087 C 
ATOM     13  S1  NON d   1      30.300 -12.039  -9.517  0.00  0.00    -0.083 SA
ATOM     14  C10 NON d   1      30.547 -12.978  -8.100  0.00  0.00     0.093 C 
ATOM     15  N6  NON d   1      29.728 -12.703  -7.100  0.00  0.00    -0.240 NA
ATOM     16  C11 NON d   1      31.597 -14.050  -8.043  0.00  0.00     0.189 C 
ATOM     17  N7  NON d   1      31.700 -14.526  -6.673  0.00  0.00    -0.355 N 
ATOM     18  C12 NON d   1      30.679 -15.313  -6.139  0.00  0.00     0.220 C 
ATOM     19  O2  NON d   1      29.881 -15.940  -6.821  0.00  0.00    -0.274 OA
ATOM     20  C13 NON d   1      30.674 -15.259  -4.623  0.00  0.00     0.139 C 
ATOM     21  C14 NON d   1      29.977 -16.387  -3.849  0.00  0.00     0.163 C 
ATOM     22  O3  NON d   1      28.534 -16.325  -3.799  0.00  0.00    -0.310 OA
ATOM     23  C19 NON d   1      28.025 -15.469  -2.863  0.00  0.00     0.282 C 
ATOM     24  O4  NON d   1      28.700 -14.644  -2.249  0.00  0.00    -0.263 OA
ATOM     25  H9  NON d   1      26.498 -13.609  -2.066  0.00  0.00     0.163 HD
ATOM     26  H15 NON d   1      32.131 -13.874  -6.031  0.00  0.00     0.162 HD
ENDROOT
BRANCH  21  27
ATOM     27  C15 NON d   1      30.402 -17.816  -4.104  0.00  0.00     0.002 C 
ATOM     28  C16 NON d   1      30.030 -18.623  -5.113  0.00  0.00    -0.027 C 
BRANCH  28  29
ATOM     29  C17 NON d   1      30.714 -19.905  -5.524  0.00  0.00     0.037 C 
BRANCH  29  30
ATOM     30  C18 NON d   1      30.772 -20.116  -7.038  0.00  0.00     0.074 C 
BRANCH  30  31
ATOM     31  S2  NON d   1      31.233 -18.595  -7.912  0.00  0.00    -0.182 SA
ATOM     32  H25 NON d   1      30.204 -17.858  -7.468  0.00  0.00     0.101 HD
ENDBRANCH  30  31
ENDBRANCH  29  30
ENDBRANCH  28  29
ENDBRANCH  21  27
BRANCH   1  33
ATOM     33  C2  NON d   1      26.033 -16.532  -1.461  0.00  0.00     0.010 C 
ATOM     34  C1  NON d   1      24.451 -16.503  -1.635  0.00  0.00     0.012 C 
ATOM     35  C3  NON d   1      26.661 -15.705  -0.253  0.00  0.00     0.012 C 
ENDBRANCH   1  33
TORSDOF 5
ENDMDL
MODEL 5
REMARK VINA RESULT:    -6.654      6.340      9.217
REMARK INTER + INTRA:          -8.909
REMARK INTER:                  -8.145
REMARK INTRA:                  -0.764
REMARK CONF_INDEPENDENT:        1.492
REMARK UNBOUND:                -0.764
REMARK  5 active torsions:
REMARK  status: ('A' for Active; 'I' for Inactive)
REMARK    1  A    between atoms: C4_4  and  C2_2 
REMARK    2  A    between atoms: C14_24  and  C15_25 
REMARK    3  A    between atoms: C16_26  and  C17_27 
REMARK    4  A    between atoms: C17_27  and  C18_28 
REMARK    5  A    between atoms: C18_28  and  S2_29 
ROOT
ATOM      1  C4  NON d   1      29.282  -7.207   8.496  0.00  0.00     0.187 C 
ATOM      2  N1  NON d   1      29.281  -6.388   7.263  0.00  0.00    -0.345 N 
ATOM      3  C5  NON d   1      28.133  -6.385   6.472  0.00  0.00     0.239 C 
ATOM      4  O1  NON d   1      27.013  -6.575   6.942  0.00  0.00    -0.272 OA
ATOM      5  C6  NON d   1      28.344  -6.125   5.001  0.00  0.00     0.272 C 
ATOM      6  N2  NON d   1      27.792  -7.204   4.212  0.00  0.00    -0.182 N 
ATOM      7  N3  NON d   1      26.891  -6.986   3.231  0.00  0.00     0.025 NA
ATOM      8  N4  NON d   1      26.665  -8.184   2.706  0.00  0.00    -0.134 NA
ATOM      9  C7  NON d   1      27.494  -9.058   3.362  0.00  0.00     0.216 C 
ATOM     10  N5  NON d   1      28.281  -8.459   4.271  0.00  0.00    -0.134 NA
ATOM     11  C8  NON d   1      27.409 -10.505   3.129  0.00  0.00     0.115 C 
ATOM     12  C9  NON d   1      26.599 -11.153   2.218  0.00  0.00     0.087 C 
ATOM     13  S1  NON d   1      26.680 -12.853   2.471  0.00  0.00    -0.083 SA
ATOM     14  C10 NON d   1      27.754 -12.591   3.786  0.00  0.00     0.093 C 
ATOM     15  N6  NON d   1      28.151 -11.340   3.939  0.00  0.00    -0.240 NA
ATOM     16  C11 NON d   1      28.164 -13.711   4.699  0.00  0.00     0.189 C 
ATOM     17  N7  NON d   1      29.218 -13.231   5.578  0.00  0.00    -0.355 N 
ATOM     18  C12 NON d   1      28.905 -12.335   6.601  0.00  0.00     0.220 C 
ATOM     19  O2  NON d   1      27.779 -12.194   7.056  0.00  0.00    -0.274 OA
ATOM     20  C13 NON d   1      30.126 -11.550   7.042  0.00  0.00     0.139 C 
ATOM     21  C14 NON d   1      30.115 -10.890   8.428  0.00  0.00     0.163 C 
ATOM     22  O3  NON d   1      29.357  -9.665   8.543  0.00  0.00    -0.310 OA
ATOM     23  C19 NON d   1      29.999  -8.545   8.096  0.00  0.00     0.282 C 
ATOM     24  O4  NON d   1      31.044  -8.566   7.447  0.00  0.00    -0.263 OA
ATOM     25  H9  NON d   1      30.171  -6.390   6.771  0.00  0.00     0.163 HD
ATOM     26  H15 NON d   1      30.111 -13.084   5.126  0.00  0.00     0.162 HD
ENDROOT
BRANCH  21  27
ATOM     27  C15 NON d   1      29.849 -11.751   9.642  0.00  0.00     0.002 C 
ATOM     28  C16 NON d   1      28.681 -12.284  10.040  0.00  0.00    -0.027 C 
BRANCH  28  29
ATOM     29  C17 NON d   1      28.507 -13.395  11.048  0.00  0.00     0.037 C 
BRANCH  29  30
ATOM     30  C18 NON d   1      28.514 -14.795  10.433  0.00  0.00     0.074 C 
BRANCH  30  31
ATOM     31  S2  NON d   1      30.189 -15.483  10.345  0.00  0.00    -0.182 SA
ATOM     32  H25 NON d   1      30.103 -15.906   9.075  0.00  0.00     0.101 HD
ENDBRANCH  30  31
ENDBRANCH  29  30
ENDBRANCH  28  29
ENDBRANCH  21  27
BRANCH   1  33
ATOM     33  C2  NON d   1      29.777  -6.488   9.764  0.00  0.00     0.010 C 
ATOM     34  C1  NON d   1      30.258  -7.718  10.652  0.00  0.00     0.012 C 
ATOM     35  C3  NON d   1      28.427  -5.753  10.184  0.00  0.00     0.012 C 
ENDBRANCH   1  33
TORSDOF 5
ENDMDL
MODEL 6
REMARK VINA RESULT:    -6.630      4.170      6.860
REMARK INTER + INTRA:          -8.809
REMARK INTER:                  -8.122
REMARK INTRA:                  -0.687
REMARK CONF_INDEPENDENT:        1.492
REMARK UNBOUND:                -0.687
REMARK  5 active torsions:
REMARK  status: ('A' for Active; 'I' for Inactive)
REMARK    1  A    between atoms: C4_4  and  C2_2 
REMARK    2  A    between atoms: C14_24  and  C15_25 
REMARK    3  A    between atoms: C16_26  and  C17_27 
REMARK    4  A    between atoms: C17_27  and  C18_28 
REMARK    5  A    between atoms: C18_28  and  S2_29 
ROOT
ATOM      1  C4  NON d   1      26.532 -14.070  -4.419  0.00  0.00     0.187 C 
ATOM      2  N1  NON d   1      27.605 -13.503  -5.266  0.00  0.00    -0.345 N 
ATOM      3  C5  NON d   1      28.402 -14.382  -5.998  0.00  0.00     0.239 C 
ATOM      4  O1  NON d   1      27.991 -15.475  -6.383  0.00  0.00    -0.272 OA
ATOM      5  C6  NON d   1      29.803 -13.908  -6.301  0.00  0.00     0.272 C 
ATOM      6  N2  NON d   1      30.776 -14.860  -5.811  0.00  0.00    -0.182 N 
ATOM      7  N3  NON d   1      31.719 -15.396  -6.613  0.00  0.00     0.025 NA
ATOM      8  N4  NON d   1      32.447 -16.165  -5.813  0.00  0.00    -0.134 NA
ATOM      9  C7  NON d   1      31.938 -16.002  -4.550  0.00  0.00     0.216 C 
ATOM     10  N5  NON d   1      30.926 -15.121  -4.497  0.00  0.00    -0.134 NA
ATOM     11  C8  NON d   1      32.419 -16.817  -3.427  0.00  0.00     0.115 C 
ATOM     12  C9  NON d   1      33.442 -17.744  -3.452  0.00  0.00     0.087 C 
ATOM     13  S1  NON d   1      33.485 -18.605  -1.963  0.00  0.00    -0.083 SA
ATOM     14  C10 NON d   1      32.127 -17.704  -1.420  0.00  0.00     0.093 C 
ATOM     15  N6  NON d   1      31.753 -16.723  -2.222  0.00  0.00    -0.240 NA
ATOM     16  C11 NON d   1      31.415 -18.052  -0.144  0.00  0.00     0.189 C 
ATOM     17  N7  NON d   1      30.447 -17.006   0.148  0.00  0.00    -0.355 N 
ATOM     18  C12 NON d   1      29.291 -16.904  -0.626  0.00  0.00     0.220 C 
ATOM     19  O2  NON d   1      28.838 -17.825  -1.290  0.00  0.00    -0.274 OA
ATOM     20  C13 NON d   1      28.701 -15.509  -0.557  0.00  0.00     0.139 C 
ATOM     21  C14 NON d   1      27.221 -15.316  -0.921  0.00  0.00     0.163 C 
ATOM     22  O3  NON d   1      26.910 -15.316  -2.333  0.00  0.00    -0.310 OA
ATOM     23  C19 NON d   1      27.144 -14.134  -2.975  0.00  0.00     0.282 C 
ATOM     24  O4  NON d   1      27.770 -13.197  -2.481  0.00  0.00    -0.263 OA
ATOM     25  H9  NON d   1      28.074 -12.704  -4.851  0.00  0.00     0.163 HD
ATOM     26  H15 NON d   1      30.852 -16.128   0.448  0.00  0.00     0.162 HD
ENDROOT
BRANCH  21  27
ATOM     27  C15 NON d   1      26.179 -16.128  -0.185  0.00  0.00     0.002 C 
ATOM     28  C16 NON d   1      25.118 -16.775  -0.698  0.00  0.00    -0.027 C 
BRANCH  28  29
ATOM     29  C17 NON d   1      24.299 -17.835   0.000  0.00  0.00     0.037 C 
BRANCH  29  30
ATOM     30  C18 NON d   1      23.295 -18.540  -0.912  0.00  0.00     0.074 C 
BRANCH  30  31
ATOM     31  S2  NON d   1      21.763 -18.953  -0.033  0.00  0.00    -0.182 SA
ATOM     32  H25 NON d   1      22.239 -20.050   0.574  0.00  0.00     0.101 HD
ENDBRANCH  30  31
ENDBRANCH  29  30
ENDBRANCH  28  29
ENDBRANCH  21  27
BRANCH   1  33
ATOM     33  C2  NON d   1      25.150 -13.409  -4.575  0.00  0.00     0.010 C 
ATOM     34  C1  NON d   1      25.529 -11.867  -4.473  0.00  0.00     0.012 C 
ATOM     35  C3  NON d   1      24.408 -14.073  -3.332  0.00  0.00     0.012 C 
ENDBRANCH   1  33
TORSDOF 5
ENDMDL
MODEL 7
REMARK VINA RESULT:    -6.462      2.908      6.117
REMARK INTER + INTRA:          -9.403
REMARK INTER:                  -7.953
REMARK INTRA:                  -1.449
REMARK CONF_INDEPENDENT:        1.492
REMARK UNBOUND:                -1.449
REMARK  5 active torsions:
REMARK  status: ('A' for Active; 'I' for Inactive)
REMARK    1  A    between atoms: C4_4  and  C2_2 
REMARK    2  A    between atoms: C14_24  and  C15_25 
REMARK    3  A    between atoms: C16_26  and  C17_27 
REMARK    4  A    between atoms: C17_27  and  C18_28 
REMARK    5  A    between atoms: C18_28  and  S2_29 
ROOT
ATOM      1  C4  NON d   1      29.155 -10.927  -1.791  0.00  0.00     0.187 C 
ATOM      2  N1  NON d   1      28.444 -11.096  -3.079  0.00  0.00    -0.345 N 
ATOM      3  C5  NON d   1      27.059 -11.244  -3.053  0.00  0.00     0.239 C 
ATOM      4  O1  NON d   1      26.364 -10.759  -2.163  0.00  0.00    -0.272 OA
ATOM      5  C6  NON d   1      26.457 -12.028  -4.194  0.00  0.00     0.272 C 
ATOM      6  N2  NON d   1      25.679 -13.139  -3.689  0.00  0.00    -0.182 N 
ATOM      7  N3  NON d   1      24.386 -13.322  -4.029  0.00  0.00     0.025 NA
ATOM      8  N4  NON d   1      24.034 -14.451  -3.428  0.00  0.00    -0.134 NA
ATOM      9  C7  NON d   1      25.159 -14.925  -2.803  0.00  0.00     0.216 C 
ATOM     10  N5  NON d   1      26.243 -14.159  -3.011  0.00  0.00    -0.134 NA
ATOM     11  C8  NON d   1      25.099 -16.096  -1.920  0.00  0.00     0.115 C 
ATOM     12  C9  NON d   1      23.999 -16.892  -1.669  0.00  0.00     0.087 C 
ATOM     13  S1  NON d   1      24.356 -17.995  -0.397  0.00  0.00    -0.083 SA
ATOM     14  C10 NON d   1      25.924 -17.308  -0.260  0.00  0.00     0.093 C 
ATOM     15  N6  NON d   1      26.226 -16.421  -1.191  0.00  0.00    -0.240 NA
ATOM     16  C11 NON d   1      26.846 -17.678   0.866  0.00  0.00     0.189 C 
ATOM     17  N7  NON d   1      28.153 -17.096   0.606  0.00  0.00    -0.355 N 
ATOM     18  C12 NON d   1      28.330 -15.718   0.737  0.00  0.00     0.220 C 
ATOM     19  O2  NON d   1      27.592 -15.001   1.397  0.00  0.00    -0.274 OA
ATOM     20  C13 NON d   1      29.525 -15.235  -0.062  0.00  0.00     0.139 C 
ATOM     21  C14 NON d   1      30.170 -13.893   0.315  0.00  0.00     0.163 C 
ATOM     22  O3  NON d   1      29.469 -12.707  -0.124  0.00  0.00    -0.310 OA
ATOM     23  C19 NON d   1      29.684 -12.359  -1.427  0.00  0.00     0.282 C 
ATOM     24  O4  NON d   1      30.242 -13.086  -2.248  0.00  0.00    -0.263 OA
ATOM     25  H9  NON d   1      28.949 -11.665  -3.752  0.00  0.00     0.163 HD
ATOM     26  H15 NON d   1      28.668 -17.533  -0.147  0.00  0.00     0.162 HD
ENDROOT
BRANCH  21  27
ATOM     27  C15 NON d   1      30.647 -13.689   1.735  0.00  0.00     0.002 C 
ATOM     28  C16 NON d   1      29.907 -13.454   2.833  0.00  0.00    -0.027 C 
BRANCH  28  29
ATOM     29  C17 NON d   1      30.371 -13.585   4.263  0.00  0.00     0.037 C 
BRANCH  29  30
ATOM     30  C18 NON d   1      29.608 -14.640   5.066  0.00  0.00     0.074 C 
BRANCH  30  31
ATOM     31  S2  NON d   1      27.889 -14.796   4.509  0.00  0.00    -0.182 SA
ATOM     32  H25 NON d   1      28.152 -15.583   3.455  0.00  0.00     0.101 HD
ENDBRANCH  30  31
ENDBRANCH  29  30
ENDBRANCH  28  29
ENDBRANCH  21  27
BRANCH   1  33
ATOM     33  C2  NON d   1      30.164  -9.765  -1.742  0.00  0.00     0.010 C 
ATOM     34  C1  NON d   1      31.527 -10.545  -1.486  0.00  0.00     0.012 C 
ATOM     35  C3  NON d   1      29.543  -8.939  -0.530  0.00  0.00     0.012 C 
ENDBRANCH   1  33
TORSDOF 5
ENDMDL
MODEL 8
REMARK VINA RESULT:    -6.233      3.447      6.523
REMARK INTER + INTRA:          -9.205
REMARK INTER:                  -7.724
REMARK INTRA:                  -1.481
REMARK CONF_INDEPENDENT:        1.492
REMARK UNBOUND:                -1.481
REMARK  5 active torsions:
REMARK  status: ('A' for Active; 'I' for Inactive)
REMARK    1  A    between atoms: C4_4  and  C2_2 
REMARK    2  A    between atoms: C14_24  and  C15_25 
REMARK    3  A    between atoms: C16_26  and  C17_27 
REMARK    4  A    between atoms: C17_27  and  C18_28 
REMARK    5  A    between atoms: C18_28  and  S2_29 
ROOT
ATOM      1  C4  NON d   1      30.392 -12.893  -3.152  0.00  0.00     0.187 C 
ATOM      2  N1  NON d   1      29.446 -12.904  -4.290  0.00  0.00    -0.345 N 
ATOM      3  C5  NON d   1      28.123 -12.537  -4.053  0.00  0.00     0.239 C 
ATOM      4  O1  NON d   1      27.810 -11.759  -3.154  0.00  0.00    -0.272 OA
ATOM      5  C6  NON d   1      27.093 -13.146  -4.973  0.00  0.00     0.272 C 
ATOM      6  N2  NON d   1      26.087 -13.851  -4.209  0.00  0.00    -0.182 N 
ATOM      7  N3  NON d   1      24.771 -13.582  -4.337  0.00  0.00     0.025 NA
ATOM      8  N4  NON d   1      24.167 -14.450  -3.536  0.00  0.00    -0.134 NA
ATOM      9  C7  NON d   1      25.155 -15.244  -3.010  0.00  0.00     0.216 C 
ATOM     10  N5  NON d   1      26.379 -14.943  -3.475  0.00  0.00    -0.134 NA
ATOM     11  C8  NON d   1      24.858 -16.233  -1.967  0.00  0.00     0.115 C 
ATOM     12  C9  NON d   1      23.617 -16.552  -1.453  0.00  0.00     0.087 C 
ATOM     13  S1  NON d   1      23.797 -17.595  -0.097  0.00  0.00    -0.083 SA
ATOM     14  C10 NON d   1      25.503 -17.514  -0.279  0.00  0.00     0.093 C 
ATOM     15  N6  NON d   1      25.917 -16.880  -1.362  0.00  0.00    -0.240 NA
ATOM     16  C11 NON d   1      26.430 -18.094   0.750  0.00  0.00     0.189 C 
ATOM     17  N7  NON d   1      27.788 -18.049   0.230  0.00  0.00    -0.355 N 
ATOM     18  C12 NON d   1      28.447 -16.823   0.134  0.00  0.00     0.220 C 
ATOM     19  O2  NON d   1      28.132 -15.833   0.779  0.00  0.00    -0.274 OA
ATOM     20  C13 NON d   1      29.569 -16.877  -0.884  0.00  0.00     0.139 C 
ATOM     21  C14 NON d   1      30.692 -15.832  -0.799  0.00  0.00     0.163 C 
ATOM     22  O3  NON d   1      30.373 -14.516  -1.304  0.00  0.00    -0.310 OA
ATOM     23  C19 NON d   1      30.455 -14.383  -2.661  0.00  0.00     0.282 C 
ATOM     24  O4  NON d   1      30.571 -15.330  -3.437  0.00  0.00    -0.263 OA
ATOM     25  H9  NON d   1      29.595 -13.673  -4.938  0.00  0.00     0.163 HD
ATOM     26  H15 NON d   1      27.976 -18.707  -0.516  0.00  0.00     0.162 HD
ENDROOT
BRANCH  21  27
ATOM     27  C15 NON d   1      31.459 -15.693   0.496  0.00  0.00     0.002 C 
ATOM     28  C16 NON d   1      31.299 -14.768   1.459  0.00  0.00    -0.027 C 
BRANCH  28  29
ATOM     29  C17 NON d   1      31.837 -14.848   2.868  0.00  0.00     0.037 C 
BRANCH  29  30
ATOM     30  C18 NON d   1      30.780 -14.615   3.948  0.00  0.00     0.074 C 
BRANCH  30  31
ATOM     31  S2  NON d   1      29.201 -14.075   3.238  0.00  0.00    -0.182 SA
ATOM     32  H25 NON d   1      28.876 -15.259   2.696  0.00  0.00     0.101 HD
ENDBRANCH  30  31
ENDBRANCH  29  30
ENDBRANCH  28  29
ENDBRANCH  21  27
BRANCH   1  33
ATOM     33  C2  NON d   1      31.730 -12.176  -3.413  0.00  0.00     0.010 C 
ATOM     34  C1  NON d   1      31.950 -12.479  -4.959  0.00  0.00     0.012 C 
ATOM     35  C3  NON d   1      32.645 -12.954  -2.367  0.00  0.00     0.012 C 
ENDBRANCH   1  33
TORSDOF 5
ENDMDL
MODEL 9
REMARK VINA RESULT:    -5.696      2.468      3.357
REMARK INTER + INTRA:          -8.697
REMARK INTER:                  -7.188
REMARK INTRA:                  -1.509
REMARK CONF_INDEPENDENT:        1.492
REMARK UNBOUND:                -1.509
REMARK  5 active torsions:
REMARK  status: ('A' for Active; 'I' for Inactive)
REMARK    1  A    between atoms: C4_4  and  C2_2 
REMARK    2  A    between atoms: C14_24  and  C15_25 
REMARK    3  A    between atoms: C16_26  and  C17_27 
REMARK    4  A    between atoms: C17_27  and  C18_28 
REMARK    5  A    between atoms: C18_28  and  S2_29 
ROOT
ATOM      1  C4  NON d   1      27.093 -11.213   2.652  0.00  0.00     0.187 C 
ATOM      2  N1  NON d   1      27.279  -9.745   2.623  0.00  0.00    -0.345 N 
ATOM      3  C5  NON d   1      26.237  -8.957   2.136  0.00  0.00     0.239 C 
ATOM      4  O1  NON d   1      25.061  -9.307   2.209  0.00  0.00    -0.272 OA
ATOM      5  C6  NON d   1      26.637  -7.638   1.520  0.00  0.00     0.272 C 
ATOM      6  N2  NON d   1      26.140  -7.542   0.165  0.00  0.00    -0.182 N 
ATOM      7  N3  NON d   1      25.376  -6.508  -0.245  0.00  0.00     0.025 NA
ATOM      8  N4  NON d   1      25.164  -6.734  -1.536  0.00  0.00    -0.134 NA
ATOM      9  C7  NON d   1      25.869  -7.868  -1.851  0.00  0.00     0.216 C 
ATOM     10  N5  NON d   1      26.564  -8.365  -0.815  0.00  0.00    -0.134 NA
ATOM     11  C8  NON d   1      25.751  -8.490  -3.176  0.00  0.00     0.115 C 
ATOM     12  C9  NON d   1      25.032  -8.016  -4.255  0.00  0.00     0.087 C 
ATOM     13  S1  NON d   1      25.009  -9.199  -5.505  0.00  0.00    -0.083 SA
ATOM     14  C10 NON d   1      25.924 -10.253  -4.504  0.00  0.00     0.093 C 
ATOM     15  N6  NON d   1      26.353  -9.716  -3.376  0.00  0.00    -0.240 NA
ATOM     16  C11 NON d   1      26.171 -11.683  -4.891  0.00  0.00     0.189 C 
ATOM     17  N7  NON d   1      27.129 -12.257  -3.959  0.00  0.00    -0.355 N 
ATOM     18  C12 NON d   1      26.732 -12.540  -2.652  0.00  0.00     0.220 C 
ATOM     19  O2  NON d   1      25.565 -12.690  -2.317  0.00  0.00    -0.274 OA
ATOM     20  C13 NON d   1      27.922 -12.605  -1.714  0.00  0.00     0.139 C 
ATOM     21  C14 NON d   1      27.771 -13.356  -0.383  0.00  0.00     0.163 C 
ATOM     22  O3  NON d   1      27.057 -12.657   0.662  0.00  0.00    -0.310 OA
ATOM     23  C19 NON d   1      27.796 -11.738   1.351  0.00  0.00     0.282 C 
ATOM     24  O4  NON d   1      28.911 -11.352   1.000  0.00  0.00    -0.263 OA
ATOM     25  H9  NON d   1      28.220  -9.457   2.373  0.00  0.00     0.163 HD
ATOM     26  H15 NON d   1      28.076 -11.918  -4.065  0.00  0.00     0.162 HD
ENDROOT
BRANCH  21  27
ATOM     27  C15 NON d   1      27.322 -14.799  -0.409  0.00  0.00     0.002 C 
ATOM     28  C16 NON d   1      26.064 -15.276  -0.425  0.00  0.00    -0.027 C 
BRANCH  28  29
ATOM     29  C17 NON d   1      25.651 -16.683  -0.783  0.00  0.00     0.037 C 
BRANCH  29  30
ATOM     30  C18 NON d   1      24.816 -16.776  -2.061  0.00  0.00     0.074 C 
BRANCH  30  31
ATOM     31  S2  NON d   1      25.532 -15.791  -3.405  0.00  0.00    -0.182 SA
ATOM     32  H25 NON d   1      25.663 -14.658  -2.697  0.00  0.00     0.101 HD
ENDBRANCH  30  31
ENDBRANCH  29  30
ENDBRANCH  28  29
ENDBRANCH  21  27
BRANCH   1  33
ATOM     33  C2  NON d   1      27.460 -11.897   3.982  0.00  0.00     0.010 C 
ATOM     34  C1  NON d   1      28.234 -10.727   4.733  0.00  0.00     0.012 C 
ATOM     35  C3  NON d   1      28.322 -13.111   3.415  0.00  0.00     0.012 C 
ENDBRANCH   1  33
TORSDOF 5
ENDMDL
