MODEL 1
REMARK VINA RESULT:   -35.894      0.000      0.000
REMARK INTER + INTRA:         -40.998
REMARK INTER:                 -39.473
REMARK INTRA:                  -1.524
REMARK CONF_INDEPENDENT:        3.580
REMARK UNBOUND:                -1.524
REMARK  12 active torsions:
REMARK  status: ('A' for Active; 'I' for Inactive)
REMARK    1  A    between atoms: N1_1  and  C1_2 
REMARK    2  A    between atoms: C6_7  and  N2_8 
REMARK       I    between atoms: N2_8  and  C7_9 
REMARK    3  A    between atoms: C7_9  and  C8_11 
REMARK    4  A    between atoms: C9_12  and  C10_13 
REMARK    5  A    between atoms: C13_16  and  C14_17 
REMARK    6  A    between atoms: C14_17  and  N3_18 
REMARK    7  A    between atoms: C14_17  and  C21_27 
REMARK    8  A    between atoms: N3_18  and  C15_19 
REMARK    9  A    between atoms: C15_19  and  C16_20 
REMARK   10  A    between atoms: C16_20  and  N4_21 
REMARK       I    between atoms: C21_27  and  N5_29 
REMARK   11  A    between atoms: N5_29  and  C22_30 
REMARK   12  A    between atoms: C25_33  and  C26_34 
ROOT
ATOM      1  C14 NON d   1      29.980 -16.447  -0.671  0.00  0.00     0.310 C 
ENDROOT
BRANCH   1   2
ATOM      2  C13 NON d   1      28.456 -16.706  -0.524  0.00  0.00    -0.019 A 
ATOM      3  C12 NON d   1      27.956 -17.945  -0.071  0.00  0.00     0.010 A 
ATOM      4  C11 NON d   1      26.573 -18.195   0.077  0.00  0.00     0.012 A 
ATOM      5  C10 NON d   1      25.617 -17.198  -0.144  0.00  0.00    -0.036 A 
ATOM      6  C30 NON d   1      26.099 -15.945  -0.526  0.00  0.00     0.012 A 
ATOM      7  C29 NON d   1      27.486 -15.703  -0.704  0.00  0.00     0.010 A 
BRANCH   5   8
ATOM      8  C9  NON d   1      24.182 -17.543  -0.005  0.00  0.00     0.017 C 
ATOM      9  C8  NON d   1      23.199 -17.422  -0.919  0.00  0.00     0.075 C 
BRANCH   9  10
ATOM     10  C7  NON d   1      21.798 -17.855  -0.569  0.00  0.00     0.245 C 
ATOM     11  N2  NON d   1      21.761 -18.846   0.392  0.00  0.00    -0.322 N 
ATOM     12  H7  NON d   1      22.633 -19.241   0.720  0.00  0.00     0.169 HD
ATOM     13  O1  NON d   1      20.834 -17.327  -1.111  0.00  0.00    -0.268 OA
BRANCH  11  14
ATOM     14  C6  NON d   1      20.618 -19.488   0.946  0.00  0.00     0.056 A 
ATOM     15  C5  NON d   1      20.532 -19.889   2.286  0.00  0.00     0.031 A 
ATOM     16  C4  NON d   1      19.347 -20.445   2.789  0.00  0.00     0.002 A 
ATOM     17  C3  NON d   1      18.236 -20.593   1.965  0.00  0.00     0.002 A 
ATOM     18  C2  NON d   1      18.313 -20.207   0.626  0.00  0.00     0.025 A 
ATOM     19  C1  NON d   1      19.510 -19.705   0.096  0.00  0.00     0.033 A 
BRANCH  19  20
ATOM     20  N1  NON d   1      19.554 -19.324  -1.268  0.00  0.00    -0.301 NA
ATOM     21  H1  NON d   1      19.544 -18.312  -1.379  0.00  0.00     0.124 HD
ATOM     22  H2  NON d   1      18.779 -19.736  -1.782  0.00  0.00     0.124 HD
ENDBRANCH  19  20
ENDBRANCH  11  14
ENDBRANCH   9  10
ENDBRANCH   5   8
ENDBRANCH   1   2
BRANCH   1  23
ATOM     23  N3  NON d   1      30.850 -17.206   0.365  0.00  0.00    -0.057 N 
ATOM     24  H13 NON d   1      30.827 -16.663   1.232  0.00  0.00     0.278 HD
ATOM     25  H14 NON d   1      30.374 -18.084   0.604  0.00  0.00     0.278 HD
BRANCH  23  26
ATOM     26  C15 NON d   1      32.310 -17.520   0.097  0.00  0.00     0.264 C 
BRANCH  26  27
ATOM     27  C16 NON d   1      32.530 -18.885  -0.599  0.00  0.00     0.300 C 
BRANCH  27  28
ATOM     28  N4  NON d   1      32.720 -20.027   0.326  0.00  0.00     0.094 N 
ATOM     29  C17 NON d   1      32.282 -19.700   1.713  0.00  0.00     0.298 C 
ATOM     30  C18 NON d   1      32.233 -20.925   2.652  0.00  0.00     0.198 C 
ATOM     31  O2  NON d   1      31.389 -21.946   2.114  0.00  0.00    -0.388 OA
ATOM     32  C19 NON d   1      31.887 -22.366   0.840  0.00  0.00     0.198 C 
ATOM     33  C20 NON d   1      31.911 -21.188  -0.149  0.00  0.00     0.298 C 
ENDBRANCH  27  28
ENDBRANCH  26  27
ENDBRANCH  23  26
ENDBRANCH   1  23
BRANCH   1  34
ATOM     34  C21 NON d   1      30.609 -16.456  -2.146  0.00  0.00     0.257 C 
ATOM     35  O3  NON d   1      31.786 -16.159  -2.345  0.00  0.00    -0.270 OA
ATOM     36  N5  NON d   1      29.729 -16.780  -3.199  0.00  0.00    -0.325 N 
ATOM     37  H27 NON d   1      28.737 -16.614  -3.096  0.00  0.00     0.169 HD
BRANCH  36  38
ATOM     38  C22 NON d   1      30.101 -17.221  -4.522  0.00  0.00     0.034 A 
ATOM     39  C23 NON d   1      30.475 -18.560  -4.731  0.00  0.00     0.030 A 
ATOM     40  C24 NON d   1      30.949 -19.034  -5.995  0.00  0.00     0.018 A 
ATOM     41  C25 NON d   1      31.129 -18.179  -7.096  0.00  0.00     0.048 A 
ATOM     42  C27 NON d   1      30.723 -16.837  -6.865  0.00  0.00     0.018 A 
ATOM     43  C28 NON d   1      30.215 -16.368  -5.618  0.00  0.00     0.030 A 
BRANCH  41  44
ATOM     44  C26 NON d   1      31.652 -18.569  -8.491  0.00  0.00     0.417 C 
ATOM     45  F1  NON d   1      32.174 -18.958  -9.887  0.00  0.00    -0.166 F 
ATOM     46  F2  NON d   1      32.608 -19.491  -7.955  0.00  0.00    -0.166 F 
ATOM     47  F3  NON d   1      30.530 -19.417  -8.769  0.00  0.00    -0.166 F 
ENDBRANCH  41  44
ENDBRANCH  36  38
ENDBRANCH   1  34
TORSDOF 12
ENDMDL
MODEL 2
REMARK VINA RESULT:   -35.626      2.528      3.629
REMARK INTER + INTRA:         -42.008
REMARK INTER:                 -39.205
REMARK INTRA:                  -2.802
REMARK CONF_INDEPENDENT:        3.580
REMARK UNBOUND:                -2.802
REMARK  12 active torsions:
REMARK  status: ('A' for Active; 'I' for Inactive)
REMARK    1  A    between atoms: N1_1  and  C1_2 
REMARK    2  A    between atoms: C6_7  and  N2_8 
REMARK       I    between atoms: N2_8  and  C7_9 
REMARK    3  A    between atoms: C7_9  and  C8_11 
REMARK    4  A    between atoms: C9_12  and  C10_13 
REMARK    5  A    between atoms: C13_16  and  C14_17 
REMARK    6  A    between atoms: C14_17  and  N3_18 
REMARK    7  A    between atoms: C14_17  and  C21_27 
REMARK    8  A    between atoms: N3_18  and  C15_19 
REMARK    9  A    between atoms: C15_19  and  C16_20 
REMARK   10  A    between atoms: C16_20  and  N4_21 
REMARK       I    between atoms: C21_27  and  N5_29 
REMARK   11  A    between atoms: N5_29  and  C22_30 
REMARK   12  A    between atoms: C25_33  and  C26_34 
ROOT
ATOM      1  C14 NON d   1      29.986 -15.840  -0.438  0.00  0.00     0.310 C 
ENDROOT
BRANCH   1   2
ATOM      2  C13 NON d   1      28.507 -16.290  -0.297  0.00  0.00    -0.019 A 
ATOM      3  C12 NON d   1      27.439 -15.378  -0.438  0.00  0.00     0.010 A 
ATOM      4  C11 NON d   1      26.087 -15.772  -0.321  0.00  0.00     0.012 A 
ATOM      5  C10 NON d   1      25.723 -17.110  -0.133  0.00  0.00    -0.036 A 
ATOM      6  C30 NON d   1      26.766 -18.035  -0.060  0.00  0.00     0.012 A 
ATOM      7  C29 NON d   1      28.124 -17.635  -0.147  0.00  0.00     0.010 A 
BRANCH   5   8
ATOM      8  C9  NON d   1      24.287 -17.444   0.017  0.00  0.00     0.017 C 
ATOM      9  C8  NON d   1      23.312 -17.389  -0.913  0.00  0.00     0.075 C 
BRANCH   9  10
ATOM     10  C7  NON d   1      21.908 -17.796  -0.545  0.00  0.00     0.245 C 
ATOM     11  N2  NON d   1      21.865 -18.809   0.393  0.00  0.00    -0.322 N 
ATOM     12  H7  NON d   1      22.732 -19.233   0.693  0.00  0.00     0.169 HD
ATOM     13  O1  NON d   1      20.947 -17.231  -1.054  0.00  0.00    -0.268 OA
BRANCH  11  14
ATOM     14  C6  NON d   1      20.716 -19.435   0.954  0.00  0.00     0.056 A 
ATOM     15  C5  NON d   1      20.621 -19.807   2.302  0.00  0.00     0.031 A 
ATOM     16  C4  NON d   1      19.432 -20.349   2.811  0.00  0.00     0.002 A 
ATOM     17  C3  NON d   1      18.326 -20.512   1.983  0.00  0.00     0.002 A 
ATOM     18  C2  NON d   1      18.412 -20.156   0.636  0.00  0.00     0.025 A 
ATOM     19  C1  NON d   1      19.613 -19.669   0.102  0.00  0.00     0.033 A 
BRANCH  19  20
ATOM     20  N1  NON d   1      19.666 -19.317  -1.270  0.00  0.00    -0.301 NA
ATOM     21  H1  NON d   1      20.624 -19.261  -1.608  0.00  0.00     0.124 HD
ATOM     22  H2  NON d   1      19.188 -18.435  -1.433  0.00  0.00     0.124 HD
ENDBRANCH  19  20
ENDBRANCH  11  14
ENDBRANCH   9  10
ENDBRANCH   5   8
ENDBRANCH   1   2
BRANCH   1  23
ATOM     23  N3  NON d   1      30.772 -15.832   0.900  0.00  0.00    -0.057 N 
ATOM     24  H13 NON d   1      30.241 -16.402   1.565  0.00  0.00     0.278 HD
ATOM     25  H14 NON d   1      31.646 -16.353   0.764  0.00  0.00     0.278 HD
BRANCH  23  26
ATOM     26  C15 NON d   1      31.102 -14.537   1.619  0.00  0.00     0.264 C 
BRANCH  26  27
ATOM     27  C16 NON d   1      31.147 -14.682   3.160  0.00  0.00     0.300 C 
BRANCH  27  28
ATOM     28  N4  NON d   1      29.994 -14.083   3.872  0.00  0.00     0.094 N 
ATOM     29  C17 NON d   1      28.810 -13.922   2.980  0.00  0.00     0.298 C 
ATOM     30  C18 NON d   1      27.517 -13.532   3.729  0.00  0.00     0.198 C 
ATOM     31  O2  NON d   1      27.216 -14.482   4.753  0.00  0.00    -0.388 OA
ATOM     32  C19 NON d   1      28.292 -14.538   5.695  0.00  0.00     0.198 C 
ATOM     33  C20 NON d   1      29.597 -14.970   5.004  0.00  0.00     0.298 C 
ENDBRANCH  27  28
ENDBRANCH  26  27
ENDBRANCH  23  26
ENDBRANCH   1  23
BRANCH   1  34
ATOM     34  C21 NON d   1      30.841 -16.422  -1.663  0.00  0.00     0.257 C 
ATOM     35  O3  NON d   1      31.976 -16.865  -1.503  0.00  0.00    -0.270 OA
ATOM     36  N5  NON d   1      30.234 -16.356  -2.934  0.00  0.00    -0.325 N 
ATOM     37  H27 NON d   1      29.533 -15.654  -3.122  0.00  0.00     0.169 HD
BRANCH  36  38
ATOM     38  C22 NON d   1      30.602 -17.125  -4.099  0.00  0.00     0.034 A 
ATOM     39  C23 NON d   1      30.475 -16.556  -5.379  0.00  0.00     0.030 A 
ATOM     40  C24 NON d   1      30.728 -17.299  -6.575  0.00  0.00     0.018 A 
ATOM     41  C25 NON d   1      31.062 -18.664  -6.553  0.00  0.00     0.048 A 
ATOM     42  C27 NON d   1      31.207 -19.208  -5.248  0.00  0.00     0.018 A 
ATOM     43  C28 NON d   1      30.992 -18.462  -4.052  0.00  0.00     0.030 A 
BRANCH  41  44
ATOM     44  C26 NON d   1      31.334 -19.568  -7.770  0.00  0.00     0.417 C 
ATOM     45  F1  NON d   1      31.605 -20.472  -8.988  0.00  0.00    -0.166 F 
ATOM     46  F2  NON d   1      30.270 -20.466  -7.431  0.00  0.00    -0.166 F 
ATOM     47  F3  NON d   1      30.696 -18.670  -8.688  0.00  0.00    -0.166 F 
ENDBRANCH  41  44
ENDBRANCH  36  38
ENDBRANCH   1  34
TORSDOF 12
ENDMDL
MODEL 3
REMARK VINA RESULT:   -35.150      2.280      3.150
REMARK INTER + INTRA:         -41.336
REMARK INTER:                 -38.730
REMARK INTRA:                  -2.607
REMARK CONF_INDEPENDENT:        3.580
REMARK UNBOUND:                -2.607
REMARK  12 active torsions:
REMARK  status: ('A' for Active; 'I' for Inactive)
REMARK    1  A    between atoms: N1_1  and  C1_2 
REMARK    2  A    between atoms: C6_7  and  N2_8 
REMARK       I    between atoms: N2_8  and  C7_9 
REMARK    3  A    between atoms: C7_9  and  C8_11 
REMARK    4  A    between atoms: C9_12  and  C10_13 
REMARK    5  A    between atoms: C13_16  and  C14_17 
REMARK    6  A    between atoms: C14_17  and  N3_18 
REMARK    7  A    between atoms: C14_17  and  C21_27 
REMARK    8  A    between atoms: N3_18  and  C15_19 
REMARK    9  A    between atoms: C15_19  and  C16_20 
REMARK   10  A    between atoms: C16_20  and  N4_21 
REMARK       I    between atoms: C21_27  and  N5_29 
REMARK   11  A    between atoms: N5_29  and  C22_30 
REMARK   12  A    between atoms: C25_33  and  C26_34 
ROOT
ATOM      1  C14 NON d   1      30.096 -16.296  -0.721  0.00  0.00     0.310 C 
ENDROOT
BRANCH   1   2
ATOM      2  C13 NON d   1      28.572 -16.541  -0.562  0.00  0.00    -0.019 A 
ATOM      3  C12 NON d   1      28.068 -17.730   0.007  0.00  0.00     0.010 A 
ATOM      4  C11 NON d   1      26.684 -17.966   0.167  0.00  0.00     0.012 A 
ATOM      5  C10 NON d   1      25.730 -16.998  -0.161  0.00  0.00    -0.036 A 
ATOM      6  C30 NON d   1      26.214 -15.789  -0.661  0.00  0.00     0.012 A 
ATOM      7  C29 NON d   1      27.602 -15.563  -0.850  0.00  0.00     0.010 A 
BRANCH   5   8
ATOM      8  C9  NON d   1      24.293 -17.330  -0.001  0.00  0.00     0.017 C 
ATOM      9  C8  NON d   1      23.349 -17.442  -0.956  0.00  0.00     0.075 C 
BRANCH   9  10
ATOM     10  C7  NON d   1      21.939 -17.811  -0.569  0.00  0.00     0.245 C 
ATOM     11  N2  NON d   1      21.881 -18.816   0.376  0.00  0.00    -0.322 N 
ATOM     12  H7  NON d   1      22.741 -19.260   0.669  0.00  0.00     0.169 HD
ATOM     13  O1  NON d   1      20.987 -17.225  -1.071  0.00  0.00    -0.268 OA
BRANCH  11  14
ATOM     14  C6  NON d   1      20.724 -19.410   0.955  0.00  0.00     0.056 A 
ATOM     15  C5  NON d   1      20.627 -19.749   2.311  0.00  0.00     0.031 A 
ATOM     16  C4  NON d   1      19.430 -20.258   2.835  0.00  0.00     0.002 A 
ATOM     17  C3  NON d   1      18.319 -20.420   2.015  0.00  0.00     0.002 A 
ATOM     18  C2  NON d   1      18.406 -20.097   0.660  0.00  0.00     0.025 A 
ATOM     19  C1  NON d   1      19.614 -19.643   0.112  0.00  0.00     0.033 A 
BRANCH  19  20
ATOM     20  N1  NON d   1      19.668 -19.324  -1.268  0.00  0.00    -0.301 NA
ATOM     21  H1  NON d   1      20.626 -19.211  -1.592  0.00  0.00     0.124 HD
ATOM     22  H2  NON d   1      19.135 -18.481  -1.463  0.00  0.00     0.124 HD
ENDBRANCH  19  20
ENDBRANCH  11  14
ENDBRANCH   9  10
ENDBRANCH   5   8
ENDBRANCH   1   2
BRANCH   1  23
ATOM     23  N3  NON d   1      30.911 -16.539   0.577  0.00  0.00    -0.057 N 
ATOM     24  H13 NON d   1      30.237 -16.693   1.332  0.00  0.00     0.278 HD
ATOM     25  H14 NON d   1      31.399 -17.438   0.487  0.00  0.00     0.278 HD
BRANCH  23  26
ATOM     26  C15 NON d   1      31.903 -15.514   1.095  0.00  0.00     0.264 C 
BRANCH  26  27
ATOM     27  C16 NON d   1      31.242 -14.370   1.902  0.00  0.00     0.300 C 
BRANCH  27  28
ATOM     28  N4  NON d   1      30.243 -14.815   2.901  0.00  0.00     0.094 N 
ATOM     29  C17 NON d   1      30.620 -14.409   4.286  0.00  0.00     0.298 C 
ATOM     30  C18 NON d   1      29.499 -14.635   5.324  0.00  0.00     0.198 C 
ATOM     31  O2  NON d   1      28.303 -13.955   4.938  0.00  0.00    -0.388 OA
ATOM     32  C19 NON d   1      27.855 -14.443   3.669  0.00  0.00     0.198 C 
ATOM     33  C20 NON d   1      28.921 -14.197   2.587  0.00  0.00     0.298 C 
ENDBRANCH  27  28
ENDBRANCH  26  27
ENDBRANCH  23  26
ENDBRANCH   1  23
BRANCH   1  34
ATOM     34  C21 NON d   1      30.822 -16.865  -2.033  0.00  0.00     0.257 C 
ATOM     35  O3  NON d   1      31.778 -17.633  -1.957  0.00  0.00    -0.270 OA
ATOM     36  N5  NON d   1      30.329 -16.400  -3.270  0.00  0.00    -0.325 N 
ATOM     37  H27 NON d   1      29.863 -15.505  -3.322  0.00  0.00     0.169 HD
BRANCH  36  38
ATOM     38  C22 NON d   1      30.532 -17.017  -4.559  0.00  0.00     0.034 A 
ATOM     39  C23 NON d   1      30.183 -18.365  -4.749  0.00  0.00     0.030 A 
ATOM     40  C24 NON d   1      30.451 -19.060  -5.970  0.00  0.00     0.018 A 
ATOM     41  C25 NON d   1      31.135 -18.459  -7.040  0.00  0.00     0.048 A 
ATOM     42  C27 NON d   1      31.456 -17.090  -6.831  0.00  0.00     0.018 A 
ATOM     43  C28 NON d   1      31.158 -16.382  -5.630  0.00  0.00     0.030 A 
BRANCH  41  44
ATOM     44  C26 NON d   1      31.499 -19.110  -8.388  0.00  0.00     0.417 C 
ATOM     45  F1  NON d   1      31.862 -19.762  -9.735  0.00  0.00    -0.166 F 
ATOM     46  F2  NON d   1      32.581 -19.856  -7.817  0.00  0.00    -0.166 F 
ATOM     47  F3  NON d   1      30.415 -20.046  -8.325  0.00  0.00    -0.166 F 
ENDBRANCH  41  44
ENDBRANCH  36  38
ENDBRANCH   1  34
TORSDOF 12
ENDMDL
MODEL 4
REMARK VINA RESULT:   -35.023      6.400      8.852
REMARK INTER + INTRA:         -40.878
REMARK INTER:                 -38.603
REMARK INTRA:                  -2.275
REMARK CONF_INDEPENDENT:        3.580
REMARK UNBOUND:                -2.275
REMARK  12 active torsions:
REMARK  status: ('A' for Active; 'I' for Inactive)
REMARK    1  A    between atoms: N1_1  and  C1_2 
REMARK    2  A    between atoms: C6_7  and  N2_8 
REMARK       I    between atoms: N2_8  and  C7_9 
REMARK    3  A    between atoms: C7_9  and  C8_11 
REMARK    4  A    between atoms: C9_12  and  C10_13 
REMARK    5  A    between atoms: C13_16  and  C14_17 
REMARK    6  A    between atoms: C14_17  and  N3_18 
REMARK    7  A    between atoms: C14_17  and  C21_27 
REMARK    8  A    between atoms: N3_18  and  C15_19 
REMARK    9  A    between atoms: C15_19  and  C16_20 
REMARK   10  A    between atoms: C16_20  and  N4_21 
REMARK       I    between atoms: C21_27  and  N5_29 
REMARK   11  A    between atoms: N5_29  and  C22_30 
REMARK   12  A    between atoms: C25_33  and  C26_34 
ROOT
ATOM      1  C14 NON d   1      29.438 -14.478   0.158  0.00  0.00     0.310 C 
ENDROOT
BRANCH   1   2
ATOM      2  C13 NON d   1      28.131 -15.313   0.098  0.00  0.00    -0.019 A 
ATOM      3  C12 NON d   1      28.125 -16.698   0.369  0.00  0.00     0.010 A 
ATOM      4  C11 NON d   1      26.943 -17.472   0.327  0.00  0.00     0.012 A 
ATOM      5  C10 NON d   1      25.692 -16.894   0.089  0.00  0.00    -0.036 A 
ATOM      6  C30 NON d   1      25.672 -15.513  -0.113  0.00  0.00     0.012 A 
ATOM      7  C29 NON d   1      26.862 -14.741  -0.101  0.00  0.00     0.010 A 
BRANCH   5   8
ATOM      8  C9  NON d   1      24.501 -17.774   0.023  0.00  0.00     0.017 C 
ATOM      9  C8  NON d   1      23.296 -17.513  -0.524  0.00  0.00     0.075 C 
BRANCH   9  10
ATOM     10  C7  NON d   1      22.222 -18.569  -0.496  0.00  0.00     0.245 C 
ATOM     11  N2  NON d   1      21.514 -18.593   0.690  0.00  0.00    -0.322 N 
ATOM     12  H7  NON d   1      21.802 -17.982   1.442  0.00  0.00     0.169 HD
ATOM     13  O1  NON d   1      22.039 -19.291  -1.471  0.00  0.00    -0.268 OA
BRANCH  11  14
ATOM     14  C6  NON d   1      20.446 -19.460   1.056  0.00  0.00     0.056 A 
ATOM     15  C5  NON d   1      20.272 -19.965   2.351  0.00  0.00     0.031 A 
ATOM     16  C4  NON d   1      19.155 -20.752   2.666  0.00  0.00     0.002 A 
ATOM     17  C3  NON d   1      18.198 -21.030   1.696  0.00  0.00     0.002 A 
ATOM     18  C2  NON d   1      18.365 -20.542   0.399  0.00  0.00     0.025 A 
ATOM     19  C1  NON d   1      19.507 -19.805   0.057  0.00  0.00     0.033 A 
BRANCH  19  20
ATOM     20  N1  NON d   1      19.647 -19.325  -1.269  0.00  0.00    -0.301 NA
ATOM     21  H1  NON d   1      20.044 -18.389  -1.293  0.00  0.00     0.124 HD
ATOM     22  H2  NON d   1      18.751 -19.333  -1.750  0.00  0.00     0.124 HD
ENDBRANCH  19  20
ENDBRANCH  11  14
ENDBRANCH   9  10
ENDBRANCH   5   8
ENDBRANCH   1   2
BRANCH   1  23
ATOM     23  N3  NON d   1      29.650 -13.551  -1.069  0.00  0.00    -0.057 N 
ATOM     24  H13 NON d   1      28.878 -12.878  -1.074  0.00  0.00     0.278 HD
ATOM     25  H14 NON d   1      30.484 -12.977  -0.899  0.00  0.00     0.278 HD
BRANCH  23  26
ATOM     26  C15 NON d   1      29.738 -14.108  -2.478  0.00  0.00     0.264 C 
BRANCH  26  27
ATOM     27  C16 NON d   1      28.859 -13.345  -3.499  0.00  0.00     0.300 C 
BRANCH  27  28
ATOM     28  N4  NON d   1      27.405 -13.594  -3.370  0.00  0.00     0.094 N 
ATOM     29  C17 NON d   1      26.628 -12.947  -4.467  0.00  0.00     0.298 C 
ATOM     30  C18 NON d   1      25.146 -13.376  -4.513  0.00  0.00     0.198 C 
ATOM     31  O2  NON d   1      25.031 -14.797  -4.623  0.00  0.00    -0.388 OA
ATOM     32  C19 NON d   1      25.653 -15.422  -3.496  0.00  0.00     0.198 C 
ATOM     33  C20 NON d   1      27.147 -15.062  -3.432  0.00  0.00     0.298 C 
ENDBRANCH  27  28
ENDBRANCH  26  27
ENDBRANCH  23  26
ENDBRANCH   1  23
BRANCH   1  34
ATOM     34  C21 NON d   1      29.826 -13.777   1.547  0.00  0.00     0.257 C 
ATOM     35  O3  NON d   1      30.264 -12.629   1.588  0.00  0.00    -0.270 OA
ATOM     36  N5  NON d   1      29.676 -14.565   2.707  0.00  0.00    -0.325 N 
ATOM     37  H27 NON d   1      29.724 -15.572   2.642  0.00  0.00     0.169 HD
BRANCH  36  38
ATOM     38  C22 NON d   1      29.587 -14.082   4.064  0.00  0.00     0.034 A 
ATOM     39  C23 NON d   1      28.583 -14.576   4.916  0.00  0.00     0.030 A 
ATOM     40  C24 NON d   1      28.381 -14.067   6.237  0.00  0.00     0.018 A 
ATOM     41  C25 NON d   1      29.134 -12.997   6.751  0.00  0.00     0.048 A 
ATOM     42  C27 NON d   1      30.157 -12.532   5.880  0.00  0.00     0.018 A 
ATOM     43  C28 NON d   1      30.386 -13.062   4.576  0.00  0.00     0.030 A 
BRANCH  41  44
ATOM     44  C26 NON d   1      28.992 -12.352   8.143  0.00  0.00     0.417 C 
ATOM     45  F1  NON d   1      28.850 -11.707   9.534  0.00  0.00    -0.166 F 
ATOM     46  F2  NON d   1      27.903 -11.520   7.725  0.00  0.00    -0.166 F 
ATOM     47  F3  NON d   1      28.315 -13.488   8.695  0.00  0.00    -0.166 F 
ENDBRANCH  41  44
ENDBRANCH  36  38
ENDBRANCH   1  34
TORSDOF 12
ENDMDL
MODEL 5
REMARK VINA RESULT:   -34.441      2.813      3.893
REMARK INTER + INTRA:         -40.517
REMARK INTER:                 -38.021
REMARK INTRA:                  -2.496
REMARK CONF_INDEPENDENT:        3.580
REMARK UNBOUND:                -2.496
REMARK  12 active torsions:
REMARK  status: ('A' for Active; 'I' for Inactive)
REMARK    1  A    between atoms: N1_1  and  C1_2 
REMARK    2  A    between atoms: C6_7  and  N2_8 
REMARK       I    between atoms: N2_8  and  C7_9 
REMARK    3  A    between atoms: C7_9  and  C8_11 
REMARK    4  A    between atoms: C9_12  and  C10_13 
REMARK    5  A    between atoms: C13_16  and  C14_17 
REMARK    6  A    between atoms: C14_17  and  N3_18 
REMARK    7  A    between atoms: C14_17  and  C21_27 
REMARK    8  A    between atoms: N3_18  and  C15_19 
REMARK    9  A    between atoms: C15_19  and  C16_20 
REMARK   10  A    between atoms: C16_20  and  N4_21 
REMARK       I    between atoms: C21_27  and  N5_29 
REMARK   11  A    between atoms: N5_29  and  C22_30 
REMARK   12  A    between atoms: C25_33  and  C26_34 
ROOT
ATOM      1  C14 NON d   1      29.817 -15.025  -0.072  0.00  0.00     0.310 C 
ENDROOT
BRANCH   1   2
ATOM      2  C13 NON d   1      28.470 -15.796  -0.117  0.00  0.00    -0.019 A 
ATOM      3  C12 NON d   1      28.415 -17.200   0.016  0.00  0.00     0.010 A 
ATOM      4  C11 NON d   1      27.197 -17.916  -0.014  0.00  0.00     0.012 A 
ATOM      5  C10 NON d   1      25.962 -17.265  -0.101  0.00  0.00    -0.036 A 
ATOM      6  C30 NON d   1      25.995 -15.871  -0.164  0.00  0.00     0.012 A 
ATOM      7  C29 NON d   1      27.219 -15.154  -0.165  0.00  0.00     0.010 A 
BRANCH   5   8
ATOM      8  C9  NON d   1      24.728 -18.083  -0.165  0.00  0.00     0.017 C 
ATOM      9  C8  NON d   1      23.446 -17.665  -0.194  0.00  0.00     0.075 C 
BRANCH   9  10
ATOM     10  C7  NON d   1      22.334 -18.679  -0.280  0.00  0.00     0.245 C 
ATOM     11  N2  NON d   1      21.523 -18.691   0.838  0.00  0.00    -0.322 N 
ATOM     12  H7  NON d   1      21.766 -18.102   1.623  0.00  0.00     0.169 HD
ATOM     13  O1  NON d   1      22.212 -19.380  -1.279  0.00  0.00    -0.268 OA
BRANCH  11  14
ATOM     14  C6  NON d   1      20.395 -19.520   1.093  0.00  0.00     0.056 A 
ATOM     15  C5  NON d   1      20.111 -20.072   2.350  0.00  0.00     0.031 A 
ATOM     16  C4  NON d   1      18.941 -20.817   2.554  0.00  0.00     0.002 A 
ATOM     17  C3  NON d   1      18.039 -21.005   1.512  0.00  0.00     0.002 A 
ATOM     18  C2  NON d   1      18.315 -20.470   0.253  0.00  0.00     0.025 A 
ATOM     19  C1  NON d   1      19.510 -19.775   0.021  0.00  0.00     0.033 A 
BRANCH  19  20
ATOM     20  N1  NON d   1      19.760 -19.245  -1.270  0.00  0.00    -0.301 NA
ATOM     21  H1  NON d   1      20.226 -19.920  -1.872  0.00  0.00     0.124 HD
ATOM     22  H2  NON d   1      20.314 -18.395  -1.207  0.00  0.00     0.124 HD
ENDBRANCH  19  20
ENDBRANCH  11  14
ENDBRANCH   9  10
ENDBRANCH   5   8
ENDBRANCH   1   2
BRANCH   1  23
ATOM     23  N3  NON d   1      30.627 -15.249   1.233  0.00  0.00    -0.057 N 
ATOM     24  H13 NON d   1      30.019 -15.758   1.881  0.00  0.00     0.278 HD
ATOM     25  H14 NON d   1      31.387 -15.909   1.030  0.00  0.00     0.278 HD
BRANCH  23  26
ATOM     26  C15 NON d   1      31.207 -14.087   2.016  0.00  0.00     0.264 C 
BRANCH  26  27
ATOM     27  C16 NON d   1      31.098 -14.262   3.551  0.00  0.00     0.300 C 
BRANCH  27  28
ATOM     28  N4  NON d   1      29.844 -13.741   4.145  0.00  0.00     0.094 N 
ATOM     29  C17 NON d   1      28.884 -13.275   3.104  0.00  0.00     0.298 C 
ATOM     30  C18 NON d   1      27.479 -12.953   3.656  0.00  0.00     0.198 C 
ATOM     31  O2  NON d   1      26.929 -14.082   4.339  0.00  0.00    -0.388 OA
ATOM     32  C19 NON d   1      27.777 -14.448   5.432  0.00  0.00     0.198 C 
ATOM     33  C20 NON d   1      29.181 -14.825   4.927  0.00  0.00     0.298 C 
ENDBRANCH  27  28
ENDBRANCH  26  27
ENDBRANCH  23  26
ENDBRANCH   1  23
BRANCH   1  34
ATOM     34  C21 NON d   1      30.734 -15.027  -1.387  0.00  0.00     0.257 C 
ATOM     35  O3  NON d   1      31.950 -14.855  -1.324  0.00  0.00    -0.270 OA
ATOM     36  N5  NON d   1      30.063 -15.192  -2.616  0.00  0.00    -0.325 N 
ATOM     37  H27 NON d   1      29.093 -14.921  -2.701  0.00  0.00     0.169 HD
BRANCH  36  38
ATOM     38  C22 NON d   1      30.655 -15.601  -3.867  0.00  0.00     0.034 A 
ATOM     39  C23 NON d   1      30.254 -14.982  -5.064  0.00  0.00     0.030 A 
ATOM     40  C24 NON d   1      30.730 -15.409  -6.344  0.00  0.00     0.018 A 
ATOM     41  C25 NON d   1      31.583 -16.515  -6.494  0.00  0.00     0.048 A 
ATOM     42  C27 NON d   1      31.992 -17.108  -5.269  0.00  0.00     0.018 A 
ATOM     43  C28 NON d   1      31.550 -16.662  -3.989  0.00  0.00     0.030 A 
BRANCH  41  44
ATOM     44  C26 NON d   1      32.140 -17.080  -7.815  0.00  0.00     0.417 C 
ATOM     45  F1  NON d   1      32.696 -17.644  -9.136  0.00  0.00    -0.166 F 
ATOM     46  F2  NON d   1      30.861 -17.581  -8.223  0.00  0.00    -0.166 F 
ATOM     47  F3  NON d   1      32.180 -15.794  -8.447  0.00  0.00    -0.166 F 
ENDBRANCH  41  44
ENDBRANCH  36  38
ENDBRANCH   1  34
TORSDOF 12
ENDMDL
MODEL 6
REMARK VINA RESULT:   -34.420      2.072      2.850
REMARK INTER + INTRA:         -40.291
REMARK INTER:                 -38.000
REMARK INTRA:                  -2.292
REMARK CONF_INDEPENDENT:        3.580
REMARK UNBOUND:                -2.292
REMARK  12 active torsions:
REMARK  status: ('A' for Active; 'I' for Inactive)
REMARK    1  A    between atoms: N1_1  and  C1_2 
REMARK    2  A    between atoms: C6_7  and  N2_8 
REMARK       I    between atoms: N2_8  and  C7_9 
REMARK    3  A    between atoms: C7_9  and  C8_11 
REMARK    4  A    between atoms: C9_12  and  C10_13 
REMARK    5  A    between atoms: C13_16  and  C14_17 
REMARK    6  A    between atoms: C14_17  and  N3_18 
REMARK    7  A    between atoms: C14_17  and  C21_27 
REMARK    8  A    between atoms: N3_18  and  C15_19 
REMARK    9  A    between atoms: C15_19  and  C16_20 
REMARK   10  A    between atoms: C16_20  and  N4_21 
REMARK       I    between atoms: C21_27  and  N5_29 
REMARK   11  A    between atoms: N5_29  and  C22_30 
REMARK   12  A    between atoms: C25_33  and  C26_34 
ROOT
ATOM      1  C14 NON d   1      29.966 -16.123  -0.730  0.00  0.00     0.310 C 
ENDROOT
BRANCH   1   2
ATOM      2  C13 NON d   1      28.487 -16.561  -0.554  0.00  0.00    -0.019 A 
ATOM      3  C12 NON d   1      27.416 -15.719  -0.924  0.00  0.00     0.010 A 
ATOM      4  C11 NON d   1      26.065 -16.105  -0.778  0.00  0.00     0.012 A 
ATOM      5  C10 NON d   1      25.708 -17.380  -0.328  0.00  0.00    -0.036 A 
ATOM      6  C30 NON d   1      26.755 -18.249  -0.023  0.00  0.00     0.012 A 
ATOM      7  C29 NON d   1      28.112 -17.852  -0.140  0.00  0.00     0.010 A 
BRANCH   5   8
ATOM      8  C9  NON d   1      24.269 -17.701  -0.166  0.00  0.00     0.017 C 
ATOM      9  C8  NON d   1      23.222 -17.240  -0.879  0.00  0.00     0.075 C 
BRANCH   9  10
ATOM     10  C7  NON d   1      21.831 -17.719  -0.552  0.00  0.00     0.245 C 
ATOM     11  N2  NON d   1      21.806 -18.680   0.440  0.00  0.00    -0.322 N 
ATOM     12  H7  NON d   1      22.682 -19.028   0.803  0.00  0.00     0.169 HD
ATOM     13  O1  NON d   1      20.862 -17.247  -1.136  0.00  0.00    -0.268 OA
BRANCH  11  14
ATOM     14  C6  NON d   1      20.673 -19.349   0.983  0.00  0.00     0.056 A 
ATOM     15  C5  NON d   1      20.559 -19.699   2.335  0.00  0.00     0.031 A 
ATOM     16  C4  NON d   1      19.383 -20.286   2.823  0.00  0.00     0.002 A 
ATOM     17  C3  NON d   1      18.309 -20.518   1.971  0.00  0.00     0.002 A 
ATOM     18  C2  NON d   1      18.415 -20.184   0.619  0.00  0.00     0.025 A 
ATOM     19  C1  NON d   1      19.605 -19.651   0.107  0.00  0.00     0.033 A 
BRANCH  19  20
ATOM     20  N1  NON d   1      19.680 -19.325  -1.270  0.00  0.00    -0.301 NA
ATOM     21  H1  NON d   1      20.642 -19.276  -1.595  0.00  0.00     0.124 HD
ATOM     22  H2  NON d   1      19.206 -18.444  -1.456  0.00  0.00     0.124 HD
ENDBRANCH  19  20
ENDBRANCH  11  14
ENDBRANCH   9  10
ENDBRANCH   5   8
ENDBRANCH   1   2
BRANCH   1  23
ATOM     23  N3  NON d   1      30.799 -16.181   0.577  0.00  0.00    -0.057 N 
ATOM     24  H13 NON d   1      30.177 -16.522   1.316  0.00  0.00     0.278 HD
ATOM     25  H14 NON d   1      31.503 -16.922   0.478  0.00  0.00     0.278 HD
BRANCH  23  26
ATOM     26  C15 NON d   1      31.487 -14.949   1.135  0.00  0.00     0.264 C 
BRANCH  26  27
ATOM     27  C16 NON d   1      31.722 -15.013   2.664  0.00  0.00     0.300 C 
BRANCH  27  28
ATOM     28  N4  NON d   1      33.013 -15.618   3.067  0.00  0.00     0.094 N 
ATOM     29  C17 NON d   1      33.368 -16.792   2.219  0.00  0.00     0.298 C 
ATOM     30  C18 NON d   1      34.808 -17.304   2.440  0.00  0.00     0.198 C 
ATOM     31  O2  NON d   1      35.758 -16.257   2.225  0.00  0.00    -0.388 OA
ATOM     32  C19 NON d   1      35.510 -15.182   3.136  0.00  0.00     0.198 C 
ATOM     33  C20 NON d   1      34.100 -14.605   2.924  0.00  0.00     0.298 C 
ENDBRANCH  27  28
ENDBRANCH  26  27
ENDBRANCH  23  26
ENDBRANCH   1  23
BRANCH   1  34
ATOM     34  C21 NON d   1      30.768 -16.663  -2.009  0.00  0.00     0.257 C 
ATOM     35  O3  NON d   1      31.952 -16.986  -1.937  0.00  0.00    -0.270 OA
ATOM     36  N5  NON d   1      30.052 -16.704  -3.224  0.00  0.00    -0.325 N 
ATOM     37  H27 NON d   1      29.270 -16.081  -3.369  0.00  0.00     0.169 HD
BRANCH  36  38
ATOM     38  C22 NON d   1      30.396 -17.475  -4.394  0.00  0.00     0.034 A 
ATOM     39  C23 NON d   1      30.845 -16.820  -5.554  0.00  0.00     0.030 A 
ATOM     40  C24 NON d   1      31.106 -17.517  -6.775  0.00  0.00     0.018 A 
ATOM     41  C25 NON d   1      30.873 -18.896  -6.915  0.00  0.00     0.048 A 
ATOM     42  C27 NON d   1      30.441 -19.538  -5.722  0.00  0.00     0.018 A 
ATOM     43  C28 NON d   1      30.216 -18.853  -4.493  0.00  0.00     0.030 A 
BRANCH  41  44
ATOM     44  C26 NON d   1      31.093 -19.747  -8.180  0.00  0.00     0.417 C 
ATOM     45  F1  NON d   1      31.313 -20.598  -9.445  0.00  0.00    -0.166 F 
ATOM     46  F2  NON d   1      31.490 -18.613  -8.961  0.00  0.00    -0.166 F 
ATOM     47  F3  NON d   1      32.351 -20.259  -7.721  0.00  0.00    -0.166 F 
ENDBRANCH  41  44
ENDBRANCH  36  38
ENDBRANCH   1  34
TORSDOF 12
ENDMDL
MODEL 7
REMARK VINA RESULT:   -34.415      1.333      1.895
REMARK INTER + INTRA:         -40.866
REMARK INTER:                 -37.995
REMARK INTRA:                  -2.872
REMARK CONF_INDEPENDENT:        3.580
REMARK UNBOUND:                -2.872
REMARK  12 active torsions:
REMARK  status: ('A' for Active; 'I' for Inactive)
REMARK    1  A    between atoms: N1_1  and  C1_2 
REMARK    2  A    between atoms: C6_7  and  N2_8 
REMARK       I    between atoms: N2_8  and  C7_9 
REMARK    3  A    between atoms: C7_9  and  C8_11 
REMARK    4  A    between atoms: C9_12  and  C10_13 
REMARK    5  A    between atoms: C13_16  and  C14_17 
REMARK    6  A    between atoms: C14_17  and  N3_18 
REMARK    7  A    between atoms: C14_17  and  C21_27 
REMARK    8  A    between atoms: N3_18  and  C15_19 
REMARK    9  A    between atoms: C15_19  and  C16_20 
REMARK   10  A    between atoms: C16_20  and  N4_21 
REMARK       I    between atoms: C21_27  and  N5_29 
REMARK   11  A    between atoms: N5_29  and  C22_30 
REMARK   12  A    between atoms: C25_33  and  C26_34 
ROOT
ATOM      1  C14 NON d   1      30.006 -16.408  -0.539  0.00  0.00     0.310 C 
ENDROOT
BRANCH   1   2
ATOM      2  C13 NON d   1      28.484 -16.683  -0.412  0.00  0.00    -0.019 A 
ATOM      3  C12 NON d   1      27.989 -17.951  -0.040  0.00  0.00     0.010 A 
ATOM      4  C11 NON d   1      26.607 -18.217   0.088  0.00  0.00     0.012 A 
ATOM      5  C10 NON d   1      25.646 -17.213  -0.072  0.00  0.00    -0.036 A 
ATOM      6  C30 NON d   1      26.123 -15.936  -0.374  0.00  0.00     0.012 A 
ATOM      7  C29 NON d   1      27.509 -15.676  -0.532  0.00  0.00     0.010 A 
BRANCH   5   8
ATOM      8  C9  NON d   1      24.213 -17.573   0.041  0.00  0.00     0.017 C 
ATOM      9  C8  NON d   1      23.203 -17.265  -0.798  0.00  0.00     0.075 C 
BRANCH   9  10
ATOM     10  C7  NON d   1      21.810 -17.756  -0.497  0.00  0.00     0.245 C 
ATOM     11  N2  NON d   1      21.778 -18.741   0.470  0.00  0.00    -0.322 N 
ATOM     12  H7  NON d   1      22.652 -19.096   0.833  0.00  0.00     0.169 HD
ATOM     13  O1  NON d   1      20.845 -17.272  -1.079  0.00  0.00    -0.268 OA
BRANCH  11  14
ATOM     14  C6  NON d   1      20.642 -19.427   0.985  0.00  0.00     0.056 A 
ATOM     15  C5  NON d   1      20.521 -19.822   2.324  0.00  0.00     0.031 A 
ATOM     16  C4  NON d   1      19.342 -20.424   2.787  0.00  0.00     0.002 A 
ATOM     17  C3  NON d   1      18.272 -20.625   1.922  0.00  0.00     0.002 A 
ATOM     18  C2  NON d   1      18.384 -20.246   0.583  0.00  0.00     0.025 A 
ATOM     19  C1  NON d   1      19.578 -19.698   0.095  0.00  0.00     0.033 A 
BRANCH  19  20
ATOM     20  N1  NON d   1      19.659 -19.324  -1.270  0.00  0.00    -0.301 NA
ATOM     21  H1  NON d   1      20.623 -19.247  -1.584  0.00  0.00     0.124 HD
ATOM     22  H2  NON d   1      19.170 -18.448  -1.432  0.00  0.00     0.124 HD
ENDBRANCH  19  20
ENDBRANCH  11  14
ENDBRANCH   9  10
ENDBRANCH   5   8
ENDBRANCH   1   2
BRANCH   1  23
ATOM     23  N3  NON d   1      30.867 -17.123   0.536  0.00  0.00    -0.057 N 
ATOM     24  H13 NON d   1      30.605 -16.728   1.443  0.00  0.00     0.278 HD
ATOM     25  H14 NON d   1      30.564 -18.103   0.590  0.00  0.00     0.278 HD
BRANCH  23  26
ATOM     26  C15 NON d   1      32.383 -17.100   0.483  0.00  0.00     0.264 C 
BRANCH  26  27
ATOM     27  C16 NON d   1      33.029 -18.488   0.714  0.00  0.00     0.300 C 
BRANCH  27  28
ATOM     28  N4  NON d   1      33.291 -19.262  -0.523  0.00  0.00     0.094 N 
ATOM     29  C17 NON d   1      32.038 -19.818  -1.109  0.00  0.00     0.298 C 
ATOM     30  C18 NON d   1      32.228 -20.421  -2.518  0.00  0.00     0.198 C 
ATOM     31  O2  NON d   1      32.785 -19.456  -3.414  0.00  0.00    -0.388 OA
ATOM     32  C19 NON d   1      34.059 -19.021  -2.927  0.00  0.00     0.198 C 
ATOM     33  C20 NON d   1      33.916 -18.368  -1.542  0.00  0.00     0.298 C 
ENDBRANCH  27  28
ENDBRANCH  26  27
ENDBRANCH  23  26
ENDBRANCH   1  23
BRANCH   1  34
ATOM     34  C21 NON d   1      30.664 -16.452  -2.001  0.00  0.00     0.257 C 
ATOM     35  O3  NON d   1      31.789 -16.005  -2.214  0.00  0.00    -0.270 OA
ATOM     36  N5  NON d   1      29.864 -16.991  -3.030  0.00  0.00    -0.325 N 
ATOM     37  H27 NON d   1      28.857 -16.963  -2.951  0.00  0.00     0.169 HD
BRANCH  36  38
ATOM     38  C22 NON d   1      30.327 -17.485  -4.304  0.00  0.00     0.034 A 
ATOM     39  C23 NON d   1      30.799 -16.582  -5.273  0.00  0.00     0.030 A 
ATOM     40  C24 NON d   1      31.177 -16.998  -6.588  0.00  0.00     0.018 A 
ATOM     41  C25 NON d   1      31.046 -18.330  -7.019  0.00  0.00     0.048 A 
ATOM     42  C27 NON d   1      30.589 -19.225  -6.014  0.00  0.00     0.018 A 
ATOM     43  C28 NON d   1      30.246 -18.821  -4.691  0.00  0.00     0.030 A 
BRANCH  41  44
ATOM     44  C26 NON d   1      31.397 -18.889  -8.411  0.00  0.00     0.417 C 
ATOM     45  F1  NON d   1      31.748 -19.448  -9.802  0.00  0.00    -0.166 F 
ATOM     46  F2  NON d   1      32.806 -18.836  -8.156  0.00  0.00    -0.166 F 
ATOM     47  F3  NON d   1      31.070 -20.236  -8.046  0.00  0.00    -0.166 F 
ENDBRANCH  41  44
ENDBRANCH  36  38
ENDBRANCH   1  34
TORSDOF 12
ENDMDL
MODEL 8
REMARK VINA RESULT:   -34.379      3.185      4.101
REMARK INTER + INTRA:         -40.699
REMARK INTER:                 -37.958
REMARK INTRA:                  -2.741
REMARK CONF_INDEPENDENT:        3.580
REMARK UNBOUND:                -2.741
REMARK  12 active torsions:
REMARK  status: ('A' for Active; 'I' for Inactive)
REMARK    1  A    between atoms: N1_1  and  C1_2 
REMARK    2  A    between atoms: C6_7  and  N2_8 
REMARK       I    between atoms: N2_8  and  C7_9 
REMARK    3  A    between atoms: C7_9  and  C8_11 
REMARK    4  A    between atoms: C9_12  and  C10_13 
REMARK    5  A    between atoms: C13_16  and  C14_17 
REMARK    6  A    between atoms: C14_17  and  N3_18 
REMARK    7  A    between atoms: C14_17  and  C21_27 
REMARK    8  A    between atoms: N3_18  and  C15_19 
REMARK    9  A    between atoms: C15_19  and  C16_20 
REMARK   10  A    between atoms: C16_20  and  N4_21 
REMARK       I    between atoms: C21_27  and  N5_29 
REMARK   11  A    between atoms: N5_29  and  C22_30 
REMARK   12  A    between atoms: C25_33  and  C26_34 
ROOT
ATOM      1  C14 NON d   1      29.634 -14.997  -0.093  0.00  0.00     0.310 C 
ENDROOT
BRANCH   1   2
ATOM      2  C13 NON d   1      28.284 -15.764  -0.139  0.00  0.00    -0.019 A 
ATOM      3  C12 NON d   1      28.207 -17.144   0.145  0.00  0.00     0.010 A 
ATOM      4  C11 NON d   1      26.987 -17.856   0.117  0.00  0.00     0.012 A 
ATOM      5  C10 NON d   1      25.767 -17.215  -0.120  0.00  0.00    -0.036 A 
ATOM      6  C30 NON d   1      25.817 -15.837  -0.335  0.00  0.00     0.012 A 
ATOM      7  C29 NON d   1      27.046 -15.128  -0.337  0.00  0.00     0.010 A 
BRANCH   5   8
ATOM      8  C9  NON d   1      24.530 -18.032  -0.172  0.00  0.00     0.017 C 
ATOM      9  C8  NON d   1      23.273 -17.632  -0.445  0.00  0.00     0.075 C 
BRANCH   9  10
ATOM     10  C7  NON d   1      22.156 -18.644  -0.463  0.00  0.00     0.245 C 
ATOM     11  N2  NON d   1      21.437 -18.680   0.716  0.00  0.00    -0.322 N 
ATOM     12  H7  NON d   1      21.743 -18.108   1.491  0.00  0.00     0.169 HD
ATOM     13  O1  NON d   1      21.953 -19.323  -1.463  0.00  0.00    -0.268 OA
BRANCH  11  14
ATOM     14  C6  NON d   1      20.332 -19.516   1.043  0.00  0.00     0.056 A 
ATOM     15  C5  NON d   1      20.138 -20.075   2.314  0.00  0.00     0.031 A 
ATOM     16  C4  NON d   1      18.987 -20.825   2.594  0.00  0.00     0.002 A 
ATOM     17  C3  NON d   1      18.017 -21.013   1.615  0.00  0.00     0.002 A 
ATOM     18  C2  NON d   1      18.204 -20.470   0.343  0.00  0.00     0.025 A 
ATOM     19  C1  NON d   1      19.377 -19.769   0.033  0.00  0.00     0.033 A 
BRANCH  19  20
ATOM     20  N1  NON d   1      19.537 -19.232  -1.269  0.00  0.00    -0.301 NA
ATOM     21  H1  NON d   1      20.006 -19.885  -1.893  0.00  0.00     0.124 HD
ATOM     22  H2  NON d   1      20.050 -18.355  -1.235  0.00  0.00     0.124 HD
ENDBRANCH  19  20
ENDBRANCH  11  14
ENDBRANCH   9  10
ENDBRANCH   5   8
ENDBRANCH   1   2
BRANCH   1  23
ATOM     23  N3  NON d   1      30.437 -15.214   1.216  0.00  0.00    -0.057 N 
ATOM     24  H13 NON d   1      30.238 -16.165   1.538  0.00  0.00     0.278 HD
ATOM     25  H14 NON d   1      31.437 -15.232   0.981  0.00  0.00     0.278 HD
BRANCH  23  26
ATOM     26  C15 NON d   1      30.251 -14.310   2.420  0.00  0.00     0.264 C 
BRANCH  26  27
ATOM     27  C16 NON d   1      28.768 -13.991   2.729  0.00  0.00     0.300 C 
BRANCH  27  28
ATOM     28  N4  NON d   1      28.427 -13.969   4.170  0.00  0.00     0.094 N 
ATOM     29  C17 NON d   1      29.457 -14.660   4.998  0.00  0.00     0.298 C 
ATOM     30  C18 NON d   1      29.271 -14.455   6.517  0.00  0.00     0.198 C 
ATOM     31  O2  NON d   1      29.254 -13.063   6.844  0.00  0.00    -0.388 OA
ATOM     32  C19 NON d   1      28.175 -12.418   6.160  0.00  0.00     0.198 C 
ATOM     33  C20 NON d   1      28.339 -12.554   4.636  0.00  0.00     0.298 C 
ENDBRANCH  27  28
ENDBRANCH  26  27
ENDBRANCH  23  26
ENDBRANCH   1  23
BRANCH   1  34
ATOM     34  C21 NON d   1      30.556 -15.011  -1.405  0.00  0.00     0.257 C 
ATOM     35  O3  NON d   1      31.780 -15.094  -1.329  0.00  0.00    -0.270 OA
ATOM     36  N5  NON d   1      29.888 -14.878  -2.640  0.00  0.00    -0.325 N 
ATOM     37  H27 NON d   1      28.993 -14.411  -2.681  0.00  0.00     0.169 HD
BRANCH  36  38
ATOM     38  C22 NON d   1      30.410 -15.231  -3.938  0.00  0.00     0.034 A 
ATOM     39  C23 NON d   1      29.877 -16.333  -4.629  0.00  0.00     0.030 A 
ATOM     40  C24 NON d   1      30.416 -16.793  -5.871  0.00  0.00     0.018 A 
ATOM     41  C25 NON d   1      31.554 -16.210  -6.455  0.00  0.00     0.048 A 
ATOM     42  C27 NON d   1      32.059 -15.084  -5.750  0.00  0.00     0.018 A 
ATOM     43  C28 NON d   1      31.502 -14.599  -4.530  0.00  0.00     0.030 A 
BRANCH  41  44
ATOM     44  C26 NON d   1      32.236 -16.631  -7.770  0.00  0.00     0.417 C 
ATOM     45  F1  NON d   1      32.918 -17.053  -9.086  0.00  0.00    -0.166 F 
ATOM     46  F2  NON d   1      33.549 -16.541  -7.203  0.00  0.00    -0.166 F 
ATOM     47  F3  NON d   1      31.919 -18.018  -7.590  0.00  0.00    -0.166 F 
ENDBRANCH  41  44
ENDBRANCH  36  38
ENDBRANCH   1  34
TORSDOF 12
ENDMDL
MODEL 9
REMARK VINA RESULT:   -33.900      3.790      4.761
REMARK INTER + INTRA:         -40.105
REMARK INTER:                 -37.480
REMARK INTRA:                  -2.625
REMARK CONF_INDEPENDENT:        3.580
REMARK UNBOUND:                -2.625
REMARK  12 active torsions:
REMARK  status: ('A' for Active; 'I' for Inactive)
REMARK    1  A    between atoms: N1_1  and  C1_2 
REMARK    2  A    between atoms: C6_7  and  N2_8 
REMARK       I    between atoms: N2_8  and  C7_9 
REMARK    3  A    between atoms: C7_9  and  C8_11 
REMARK    4  A    between atoms: C9_12  and  C10_13 
REMARK    5  A    between atoms: C13_16  and  C14_17 
REMARK    6  A    between atoms: C14_17  and  N3_18 
REMARK    7  A    between atoms: C14_17  and  C21_27 
REMARK    8  A    between atoms: N3_18  and  C15_19 
REMARK    9  A    between atoms: C15_19  and  C16_20 
REMARK   10  A    between atoms: C16_20  and  N4_21 
REMARK       I    between atoms: C21_27  and  N5_29 
REMARK   11  A    between atoms: N5_29  and  C22_30 
REMARK   12  A    between atoms: C25_33  and  C26_34 
ROOT
ATOM      1  C14 NON d   1      29.459 -14.682   0.085  0.00  0.00     0.310 C 
ENDROOT
BRANCH   1   2
ATOM      2  C13 NON d   1      28.206 -15.597   0.044  0.00  0.00    -0.019 A 
ATOM      3  C12 NON d   1      26.976 -15.146  -0.479  0.00  0.00     0.010 A 
ATOM      4  C11 NON d   1      25.827 -15.968  -0.531  0.00  0.00     0.012 A 
ATOM      5  C10 NON d   1      25.864 -17.309  -0.135  0.00  0.00    -0.036 A 
ATOM      6  C30 NON d   1      27.092 -17.791   0.321  0.00  0.00     0.012 A 
ATOM      7  C29 NON d   1      28.237 -16.957   0.402  0.00  0.00     0.010 A 
BRANCH   5   8
ATOM      8  C9  NON d   1      24.611 -18.101  -0.183  0.00  0.00     0.017 C 
ATOM      9  C8  NON d   1      23.375 -17.691  -0.530  0.00  0.00     0.075 C 
BRANCH   9  10
ATOM     10  C7  NON d   1      22.236 -18.678  -0.527  0.00  0.00     0.245 C 
ATOM     11  N2  NON d   1      21.549 -18.711   0.671  0.00  0.00    -0.322 N 
ATOM     12  H7  NON d   1      21.889 -18.154   1.443  0.00  0.00     0.169 HD
ATOM     13  O1  NON d   1      21.990 -19.342  -1.528  0.00  0.00    -0.268 OA
BRANCH  11  14
ATOM     14  C6  NON d   1      20.435 -19.525   1.020  0.00  0.00     0.056 A 
ATOM     15  C5  NON d   1      20.260 -20.089   2.291  0.00  0.00     0.031 A 
ATOM     16  C4  NON d   1      19.101 -20.817   2.595  0.00  0.00     0.002 A 
ATOM     17  C3  NON d   1      18.102 -20.976   1.640  0.00  0.00     0.002 A 
ATOM     18  C2  NON d   1      18.270 -20.429   0.367  0.00  0.00     0.025 A 
ATOM     19  C1  NON d   1      19.449 -19.750   0.032  0.00  0.00     0.033 A 
BRANCH  19  20
ATOM     20  N1  NON d   1      19.588 -19.207  -1.270  0.00  0.00    -0.301 NA
ATOM     21  H1  NON d   1      19.997 -19.877  -1.917  0.00  0.00     0.124 HD
ATOM     22  H2  NON d   1      20.148 -18.359  -1.247  0.00  0.00     0.124 HD
ENDBRANCH  19  20
ENDBRANCH  11  14
ENDBRANCH   9  10
ENDBRANCH   5   8
ENDBRANCH   1   2
BRANCH   1  23
ATOM     23  N3  NON d   1      30.489 -15.073   1.177  0.00  0.00    -0.057 N 
ATOM     24  H13 NON d   1      30.247 -16.015   1.496  0.00  0.00     0.278 HD
ATOM     25  H14 NON d   1      31.406 -15.186   0.729  0.00  0.00     0.278 HD
BRANCH  23  26
ATOM     26  C15 NON d   1      30.675 -14.234   2.428  0.00  0.00     0.264 C 
BRANCH  26  27
ATOM     27  C16 NON d   1      30.870 -15.078   3.712  0.00  0.00     0.300 C 
BRANCH  27  28
ATOM     28  N4  NON d   1      29.995 -14.693   4.844  0.00  0.00     0.094 N 
ATOM     29  C17 NON d   1      30.370 -13.367   5.414  0.00  0.00     0.298 C 
ATOM     30  C18 NON d   1      29.344 -12.815   6.428  0.00  0.00     0.198 C 
ATOM     31  O2  NON d   1      28.044 -12.729   5.841  0.00  0.00    -0.388 OA
ATOM     32  C19 NON d   1      27.616 -14.028   5.418  0.00  0.00     0.198 C 
ATOM     33  C20 NON d   1      28.583 -14.603   4.369  0.00  0.00     0.298 C 
ENDBRANCH  27  28
ENDBRANCH  26  27
ENDBRANCH  23  26
ENDBRANCH   1  23
BRANCH   1  34
ATOM     34  C21 NON d   1      30.145 -14.276  -1.307  0.00  0.00     0.257 C 
ATOM     35  O3  NON d   1      31.311 -14.573  -1.560  0.00  0.00    -0.270 OA
ATOM     36  N5  NON d   1      29.351 -13.525  -2.198  0.00  0.00    -0.325 N 
ATOM     37  H27 NON d   1      28.599 -12.952  -1.843  0.00  0.00     0.169 HD
BRANCH  36  38
ATOM     38  C22 NON d   1      29.574 -13.364  -3.615  0.00  0.00     0.034 A 
ATOM     39  C23 NON d   1      29.867 -12.091  -4.136  0.00  0.00     0.030 A 
ATOM     40  C24 NON d   1      30.000 -11.850  -5.539  0.00  0.00     0.018 A 
ATOM     41  C25 NON d   1      29.786 -12.857  -6.496  0.00  0.00     0.048 A 
ATOM     42  C27 NON d   1      29.514 -14.138  -5.943  0.00  0.00     0.018 A 
ATOM     43  C28 NON d   1      29.418 -14.391  -4.544  0.00  0.00     0.030 A 
BRANCH  41  44
ATOM     44  C26 NON d   1      29.877 -12.711  -8.027  0.00  0.00     0.417 C 
ATOM     45  F1  NON d   1      29.969 -12.565  -9.557  0.00  0.00    -0.166 F 
ATOM     46  F2  NON d   1      30.957 -13.648  -8.124  0.00  0.00    -0.166 F 
ATOM     47  F3  NON d   1      28.731 -13.539  -8.260  0.00  0.00    -0.166 F 
ENDBRANCH  41  44
ENDBRANCH  36  38
ENDBRANCH   1  34
TORSDOF 12
ENDMDL
