MODEL 1
REMARK VINA RESULT:   -28.142      0.000      0.000
REMARK INTER + INTRA:         -31.209
REMARK INTER:                 -29.932
REMARK INTRA:                  -1.277
REMARK CONF_INDEPENDENT:        1.790
REMARK UNBOUND:                -1.277
REMARK  6 active torsions:
REMARK  status: ('A' for Active; 'I' for Inactive)
REMARK       I    between atoms: C1_2  and  N1_3 
REMARK    1  A    between atoms: C1_2  and  C2_5 
REMARK    2  A    between atoms: N1_3  and  O2_4 
REMARK    3  A    between atoms: C5_8  and  C6_9 
REMARK       I    between atoms: C6_9  and  N2_11 
REMARK    4  A    between atoms: N2_11  and  C7_12 
REMARK    5  A    between atoms: C7_12  and  C8_13 
REMARK    6  A    between atoms: C8_13  and  C9_14 
ROOT
ATOM      1  C2  NON d   1      26.083 -12.496  -3.371  0.00  0.00     0.034 A 
ATOM      2  C3  NON d   1      26.877 -12.762  -2.243  0.00  0.00     0.018 A 
ATOM      3  C4  NON d   1      26.860 -14.021  -1.622  0.00  0.00     0.018 A 
ATOM      4  C5  NON d   1      26.043 -15.039  -2.124  0.00  0.00     0.032 A 
ATOM      5  C14 NON d   1      25.251 -14.771  -3.252  0.00  0.00     0.018 A 
ATOM      6  C15 NON d   1      25.268 -13.515  -3.873  0.00  0.00     0.018 A 
ENDROOT
BRANCH   4   7
ATOM      7  C6  NON d   1      25.947 -16.407  -1.530  0.00  0.00     0.251 C 
ATOM      8  O3  NON d   1      26.897 -17.179  -1.637  0.00  0.00    -0.268 OA
ATOM      9  N2  NON d   1      24.788 -16.766  -0.867  0.00  0.00    -0.357 N 
ATOM     10  H5  NON d   1      24.034 -16.111  -0.727  0.00  0.00     0.162 HD
BRANCH   9  11
ATOM     11  C7  NON d   1      24.699 -18.084  -0.261  0.00  0.00     0.127 C 
BRANCH  11  12
ATOM     12  C8  NON d   1      23.571 -18.206   0.766  0.00  0.00     0.058 C 
BRANCH  12  13
ATOM     13  C9  NON d   1      22.214 -18.607   0.228  0.00  0.00    -0.054 A 
ATOM     14  C10 NON d   1      22.014 -18.602  -1.158  0.00  0.00     0.026 A 
ATOM     15  C11 NON d   1      20.773 -18.963  -1.664  0.00  0.00     0.116 A 
ATOM     16  N3  NON d   1      19.726 -19.324  -0.896  0.00  0.00    -0.273 NA
ATOM     17  C12 NON d   1      19.931 -19.323   0.437  0.00  0.00     0.116 A 
ATOM     18  C13 NON d   1      21.135 -18.977   1.037  0.00  0.00     0.026 A 
ENDBRANCH  12  13
ENDBRANCH  11  12
ENDBRANCH   9  11
ENDBRANCH   4   7
BRANCH   1  19
ATOM     19  C1  NON d   1      26.158 -11.133  -3.974  0.00  0.00     0.275 C 
ATOM     20  O1  NON d   1      26.757 -10.224  -3.402  0.00  0.00    -0.265 OA
ATOM     21  N1  NON d   1      25.532 -10.921  -5.181  0.00  0.00    -0.233 N 
ATOM     22  H1  NON d   1      24.948 -11.570  -5.690  0.00  0.00     0.197 HD
BRANCH  21  23
ATOM     23  O2  NON d   1      25.591  -9.600  -5.682  0.00  0.00    -0.287 OA
ATOM     24  H2  NON d   1      26.372  -9.237  -5.208  0.00  0.00     0.244 HD
ENDBRANCH  21  23
ENDBRANCH   1  19
TORSDOF 6
ENDMDL
MODEL 2
REMARK VINA RESULT:   -27.754      3.846      5.255
REMARK INTER + INTRA:         -30.040
REMARK INTER:                 -29.544
REMARK INTRA:                  -0.496
REMARK CONF_INDEPENDENT:        1.790
REMARK UNBOUND:                -0.496
REMARK  6 active torsions:
REMARK  status: ('A' for Active; 'I' for Inactive)
REMARK       I    between atoms: C1_2  and  N1_3 
REMARK    1  A    between atoms: C1_2  and  C2_5 
REMARK    2  A    between atoms: N1_3  and  O2_4 
REMARK    3  A    between atoms: C5_8  and  C6_9 
REMARK       I    between atoms: C6_9  and  N2_11 
REMARK    4  A    between atoms: N2_11  and  C7_12 
REMARK    5  A    between atoms: C7_12  and  C8_13 
REMARK    6  A    between atoms: C8_13  and  C9_14 
ROOT
ATOM      1  C2  NON d   1      30.489 -15.381   0.598  0.00  0.00     0.034 A 
ATOM      2  C3  NON d   1      30.515 -16.471  -0.289  0.00  0.00     0.018 A 
ATOM      3  C4  NON d   1      29.331 -16.994  -0.832  0.00  0.00     0.018 A 
ATOM      4  C5  NON d   1      28.096 -16.431  -0.494  0.00  0.00     0.032 A 
ATOM      5  C14 NON d   1      28.074 -15.341   0.392  0.00  0.00     0.018 A 
ATOM      6  C15 NON d   1      29.255 -14.818   0.934  0.00  0.00     0.018 A 
ENDROOT
BRANCH   4   7
ATOM      7  C6  NON d   1      26.782 -16.920  -1.011  0.00  0.00     0.251 C 
ATOM      8  O3  NON d   1      26.504 -16.765  -2.197  0.00  0.00    -0.268 OA
ATOM      9  N2  NON d   1      25.912 -17.543  -0.135  0.00  0.00    -0.357 N 
ATOM     10  H5  NON d   1      26.166 -17.724   0.824  0.00  0.00     0.162 HD
BRANCH   9  11
ATOM     11  C7  NON d   1      24.645 -18.048  -0.635  0.00  0.00     0.127 C 
BRANCH  11  12
ATOM     12  C8  NON d   1      23.670 -18.454   0.473  0.00  0.00     0.058 C 
BRANCH  12  13
ATOM     13  C9  NON d   1      22.253 -18.763   0.039  0.00  0.00    -0.054 A 
ATOM     14  C10 NON d   1      21.973 -18.841  -1.331  0.00  0.00     0.026 A 
ATOM     15  C11 NON d   1      20.677 -19.119  -1.742  0.00  0.00     0.116 A 
ATOM     16  N3  NON d   1      19.649 -19.323  -0.895  0.00  0.00    -0.273 NA
ATOM     17  C12 NON d   1      19.931 -19.244   0.422  0.00  0.00     0.116 A 
ATOM     18  C13 NON d   1      21.194 -18.970   0.930  0.00  0.00     0.026 A 
ENDBRANCH  12  13
ENDBRANCH  11  12
ENDBRANCH   9  11
ENDBRANCH   4   7
BRANCH   1  19
ATOM     19  C1  NON d   1      31.791 -14.883   1.131  0.00  0.00     0.275 C 
ATOM     20  O1  NON d   1      32.616 -14.357   0.387  0.00  0.00    -0.265 OA
ATOM     21  N1  NON d   1      32.045 -15.037   2.475  0.00  0.00    -0.233 N 
ATOM     22  H1  NON d   1      31.477 -15.525   3.153  0.00  0.00     0.197 HD
BRANCH  21  23
ATOM     23  O2  NON d   1      33.313 -14.594   2.917  0.00  0.00    -0.287 OA
ATOM     24  H2  NON d   1      33.097 -14.205   3.794  0.00  0.00     0.244 HD
ENDBRANCH  21  23
ENDBRANCH   1  19
TORSDOF 6
ENDMDL
MODEL 3
REMARK VINA RESULT:   -27.156      2.390      2.553
REMARK INTER + INTRA:         -30.272
REMARK INTER:                 -28.946
REMARK INTRA:                  -1.326
REMARK CONF_INDEPENDENT:        1.790
REMARK UNBOUND:                -1.326
REMARK  6 active torsions:
REMARK  status: ('A' for Active; 'I' for Inactive)
REMARK       I    between atoms: C1_2  and  N1_3 
REMARK    1  A    between atoms: C1_2  and  C2_5 
REMARK    2  A    between atoms: N1_3  and  O2_4 
REMARK    3  A    between atoms: C5_8  and  C6_9 
REMARK       I    between atoms: C6_9  and  N2_11 
REMARK    4  A    between atoms: N2_11  and  C7_12 
REMARK    5  A    between atoms: C7_12  and  C8_13 
REMARK    6  A    between atoms: C8_13  and  C9_14 
ROOT
ATOM      1  C2  NON d   1      27.905 -14.202  -4.386  0.00  0.00     0.034 A 
ATOM      2  C3  NON d   1      28.219 -14.151  -3.017  0.00  0.00     0.018 A 
ATOM      3  C4  NON d   1      27.380 -14.736  -2.057  0.00  0.00     0.018 A 
ATOM      4  C5  NON d   1      26.207 -15.385  -2.453  0.00  0.00     0.032 A 
ATOM      5  C14 NON d   1      25.896 -15.436  -3.822  0.00  0.00     0.018 A 
ATOM      6  C15 NON d   1      26.733 -14.853  -4.782  0.00  0.00     0.018 A 
ENDROOT
BRANCH   4   7
ATOM      7  C6  NON d   1      25.245 -16.031  -1.509  0.00  0.00     0.251 C 
ATOM      8  O3  NON d   1      24.047 -15.777  -1.600  0.00  0.00    -0.268 OA
ATOM      9  N2  NON d   1      25.733 -16.907  -0.557  0.00  0.00    -0.357 N 
ATOM     10  H5  NON d   1      26.708 -17.161  -0.523  0.00  0.00     0.162 HD
BRANCH   9  11
ATOM     11  C7  NON d   1      24.802 -17.562   0.346  0.00  0.00     0.127 C 
BRANCH  11  12
ATOM     12  C8  NON d   1      24.120 -18.788  -0.267  0.00  0.00     0.058 C 
BRANCH  12  13
ATOM     13  C9  NON d   1      22.628 -18.678  -0.502  0.00  0.00    -0.054 A 
ATOM     14  C10 NON d   1      21.808 -19.742  -0.109  0.00  0.00     0.026 A 
ATOM     15  C11 NON d   1      20.439 -19.656  -0.323  0.00  0.00     0.116 A 
ATOM     16  N3  NON d   1      19.834 -18.596  -0.896  0.00  0.00    -0.273 NA
ATOM     17  C12 NON d   1      20.636 -17.578  -1.270  0.00  0.00     0.116 A 
ATOM     18  C13 NON d   1      22.014 -17.572  -1.100  0.00  0.00     0.026 A 
ENDBRANCH  12  13
ENDBRANCH  11  12
ENDBRANCH   9  11
ENDBRANCH   4   7
BRANCH   1  19
ATOM     19  C1  NON d   1      28.850 -13.556  -5.345  0.00  0.00     0.275 C 
ATOM     20  O1  NON d   1      29.802 -12.893  -4.940  0.00  0.00    -0.265 OA
ATOM     21  N1  NON d   1      28.618 -13.716  -6.692  0.00  0.00    -0.233 N 
ATOM     22  H1  NON d   1      27.825 -14.167  -7.128  0.00  0.00     0.197 HD
BRANCH  21  23
ATOM     23  O2  NON d   1      29.512 -13.043  -7.555  0.00  0.00    -0.287 OA
ATOM     24  H2  NON d   1      30.193 -12.714  -6.927  0.00  0.00     0.244 HD
ENDBRANCH  21  23
ENDBRANCH   1  19
TORSDOF 6
ENDMDL
MODEL 4
REMARK VINA RESULT:   -27.016      3.138      3.621
REMARK INTER + INTRA:         -30.053
REMARK INTER:                 -28.805
REMARK INTRA:                  -1.248
REMARK CONF_INDEPENDENT:        1.790
REMARK UNBOUND:                -1.248
REMARK  6 active torsions:
REMARK  status: ('A' for Active; 'I' for Inactive)
REMARK       I    between atoms: C1_2  and  N1_3 
REMARK    1  A    between atoms: C1_2  and  C2_5 
REMARK    2  A    between atoms: N1_3  and  O2_4 
REMARK    3  A    between atoms: C5_8  and  C6_9 
REMARK       I    between atoms: C6_9  and  N2_11 
REMARK    4  A    between atoms: N2_11  and  C7_12 
REMARK    5  A    between atoms: C7_12  and  C8_13 
REMARK    6  A    between atoms: C8_13  and  C9_14 
ROOT
ATOM      1  C2  NON d   1      28.865 -15.858  -4.819  0.00  0.00     0.034 A 
ATOM      2  C3  NON d   1      27.589 -15.273  -4.758  0.00  0.00     0.018 A 
ATOM      3  C4  NON d   1      26.784 -15.403  -3.616  0.00  0.00     0.018 A 
ATOM      4  C5  NON d   1      27.248 -16.122  -2.510  0.00  0.00     0.032 A 
ATOM      5  C14 NON d   1      28.525 -16.704  -2.573  0.00  0.00     0.018 A 
ATOM      6  C15 NON d   1      29.329 -16.575  -3.713  0.00  0.00     0.018 A 
ENDROOT
BRANCH   4   7
ATOM      7  C6  NON d   1      26.465 -16.324  -1.252  0.00  0.00     0.251 C 
ATOM      8  O3  NON d   1      27.018 -16.167  -0.166  0.00  0.00    -0.268 OA
ATOM      9  N2  NON d   1      25.132 -16.677  -1.347  0.00  0.00    -0.357 N 
ATOM     10  H5  NON d   1      24.665 -16.745  -2.238  0.00  0.00     0.162 HD
BRANCH   9  11
ATOM     11  C7  NON d   1      24.356 -16.845  -0.130  0.00  0.00     0.127 C 
BRANCH  11  12
ATOM     12  C8  NON d   1      23.944 -18.295   0.135  0.00  0.00     0.058 C 
BRANCH  12  13
ATOM     13  C9  NON d   1      22.508 -18.652  -0.180  0.00  0.00    -0.054 A 
ATOM     14  C10 NON d   1      22.165 -18.945  -1.506  0.00  0.00     0.026 A 
ATOM     15  C11 NON d   1      20.849 -19.269  -1.809  0.00  0.00     0.116 A 
ATOM     16  N3  NON d   1      19.860 -19.321  -0.896  0.00  0.00    -0.273 NA
ATOM     17  C12 NON d   1      20.203 -19.035   0.377  0.00  0.00     0.116 A 
ATOM     18  C13 NON d   1      21.489 -18.699   0.778  0.00  0.00     0.026 A 
ENDBRANCH  12  13
ENDBRANCH  11  12
ENDBRANCH   9  11
ENDBRANCH   4   7
BRANCH   1  19
ATOM     19  C1  NON d   1      29.660 -15.674  -6.070  0.00  0.00     0.275 C 
ATOM     20  O1  NON d   1      30.149 -16.640  -6.652  0.00  0.00    -0.265 OA
ATOM     21  N1  NON d   1      29.837 -14.395  -6.545  0.00  0.00    -0.233 N 
ATOM     22  H1  NON d   1      29.552 -13.532  -6.102  0.00  0.00     0.197 HD
BRANCH  21  23
ATOM     23  O2  NON d   1      30.639 -14.273  -7.702  0.00  0.00    -0.287 OA
ATOM     24  H2  NON d   1      30.562 -15.169  -8.099  0.00  0.00     0.244 HD
ENDBRANCH  21  23
ENDBRANCH   1  19
TORSDOF 6
ENDMDL
MODEL 5
REMARK VINA RESULT:   -26.905      1.990      2.424
REMARK INTER + INTRA:         -30.067
REMARK INTER:                 -28.695
REMARK INTRA:                  -1.372
REMARK CONF_INDEPENDENT:        1.790
REMARK UNBOUND:                -1.372
REMARK  6 active torsions:
REMARK  status: ('A' for Active; 'I' for Inactive)
REMARK       I    between atoms: C1_2  and  N1_3 
REMARK    1  A    between atoms: C1_2  and  C2_5 
REMARK    2  A    between atoms: N1_3  and  O2_4 
REMARK    3  A    between atoms: C5_8  and  C6_9 
REMARK       I    between atoms: C6_9  and  N2_11 
REMARK    4  A    between atoms: N2_11  and  C7_12 
REMARK    5  A    between atoms: C7_12  and  C8_13 
REMARK    6  A    between atoms: C8_13  and  C9_14 
ROOT
ATOM      1  C2  NON d   1      27.513 -13.164  -1.870  0.00  0.00     0.034 A 
ATOM      2  C3  NON d   1      27.051 -13.916  -2.963  0.00  0.00     0.018 A 
ATOM      3  C4  NON d   1      26.219 -15.032  -2.778  0.00  0.00     0.018 A 
ATOM      4  C5  NON d   1      25.834 -15.413  -1.489  0.00  0.00     0.032 A 
ATOM      5  C14 NON d   1      26.296 -14.658  -0.398  0.00  0.00     0.018 A 
ATOM      6  C15 NON d   1      27.125 -13.545  -0.582  0.00  0.00     0.018 A 
ENDROOT
BRANCH   4   7
ATOM      7  C6  NON d   1      24.960 -16.588  -1.187  0.00  0.00     0.251 C 
ATOM      8  O3  NON d   1      23.773 -16.553  -1.500  0.00  0.00    -0.268 OA
ATOM      9  N2  NON d   1      25.518 -17.691  -0.567  0.00  0.00    -0.357 N 
ATOM     10  H5  NON d   1      26.505 -17.742  -0.367  0.00  0.00     0.162 HD
BRANCH   9  11
ATOM     11  C7  NON d   1      24.682 -18.849  -0.298  0.00  0.00     0.127 C 
BRANCH  11  12
ATOM     12  C8  NON d   1      23.540 -18.562   0.680  0.00  0.00     0.058 C 
BRANCH  12  13
ATOM     13  C9  NON d   1      22.140 -18.832   0.173  0.00  0.00    -0.054 A 
ATOM     14  C10 NON d   1      21.935 -18.936  -1.208  0.00  0.00     0.026 A 
ATOM     15  C11 NON d   1      20.655 -19.179  -1.687  0.00  0.00     0.116 A 
ATOM     16  N3  NON d   1      19.574 -19.325  -0.895  0.00  0.00    -0.273 NA
ATOM     17  C12 NON d   1      19.784 -19.221   0.433  0.00  0.00     0.116 A 
ATOM     18  C13 NON d   1      21.025 -18.978   1.006  0.00  0.00     0.026 A 
ENDBRANCH  12  13
ENDBRANCH  11  12
ENDBRANCH   9  11
ENDBRANCH   4   7
BRANCH   1  19
ATOM     19  C1  NON d   1      28.393 -11.991  -2.150  0.00  0.00     0.275 C 
ATOM     20  O1  NON d   1      27.918 -10.864  -2.275  0.00  0.00    -0.265 OA
ATOM     21  N1  NON d   1      29.746 -12.209  -2.273  0.00  0.00    -0.233 N 
ATOM     22  H1  NON d   1      30.225 -13.099  -2.271  0.00  0.00     0.197 HD
BRANCH  21  23
ATOM     23  O2  NON d   1      30.527 -11.074  -2.588  0.00  0.00    -0.287 OA
ATOM     24  H2  NON d   1      29.940 -10.338  -2.303  0.00  0.00     0.244 HD
ENDBRANCH  21  23
ENDBRANCH   1  19
TORSDOF 6
ENDMDL
MODEL 6
REMARK VINA RESULT:   -26.734      3.780      5.292
REMARK INTER + INTRA:         -29.729
REMARK INTER:                 -28.524
REMARK INTRA:                  -1.205
REMARK CONF_INDEPENDENT:        1.790
REMARK UNBOUND:                -1.205
REMARK  6 active torsions:
REMARK  status: ('A' for Active; 'I' for Inactive)
REMARK       I    between atoms: C1_2  and  N1_3 
REMARK    1  A    between atoms: C1_2  and  C2_5 
REMARK    2  A    between atoms: N1_3  and  O2_4 
REMARK    3  A    between atoms: C5_8  and  C6_9 
REMARK       I    between atoms: C6_9  and  N2_11 
REMARK    4  A    between atoms: N2_11  and  C7_12 
REMARK    5  A    between atoms: C7_12  and  C8_13 
REMARK    6  A    between atoms: C8_13  and  C9_14 
ROOT
ATOM      1  C2  NON d   1      30.591 -15.537   0.420  0.00  0.00     0.034 A 
ATOM      2  C3  NON d   1      29.572 -14.600   0.661  0.00  0.00     0.018 A 
ATOM      3  C4  NON d   1      28.247 -14.852   0.271  0.00  0.00     0.018 A 
ATOM      4  C5  NON d   1      27.921 -16.052  -0.368  0.00  0.00     0.032 A 
ATOM      5  C14 NON d   1      28.941 -16.987  -0.606  0.00  0.00     0.018 A 
ATOM      6  C15 NON d   1      30.264 -16.736  -0.217  0.00  0.00     0.018 A 
ENDROOT
BRANCH   4   7
ATOM      7  C6  NON d   1      26.544 -16.410  -0.828  0.00  0.00     0.251 C 
ATOM      8  O3  NON d   1      25.942 -15.648  -1.580  0.00  0.00    -0.268 OA
ATOM      9  N2  NON d   1      25.986 -17.600  -0.398  0.00  0.00    -0.357 N 
ATOM     10  H5  NON d   1      26.505 -18.253   0.169  0.00  0.00     0.162 HD
BRANCH   9  11
ATOM     11  C7  NON d   1      24.661 -17.970  -0.865  0.00  0.00     0.127 C 
BRANCH  11  12
ATOM     12  C8  NON d   1      23.698 -18.340   0.266  0.00  0.00     0.058 C 
BRANCH  12  13
ATOM     13  C9  NON d   1      22.258 -18.583  -0.133  0.00  0.00    -0.054 A 
ATOM     14  C10 NON d   1      21.603 -17.614  -0.902  0.00  0.00     0.026 A 
ATOM     15  C11 NON d   1      20.280 -17.823  -1.270  0.00  0.00     0.116 A 
ATOM     16  N3  NON d   1      19.571 -18.918  -0.930  0.00  0.00    -0.273 NA
ATOM     17  C12 NON d   1      20.214 -19.843  -0.188  0.00  0.00     0.116 A 
ATOM     18  C13 NON d   1      21.533 -19.723   0.230  0.00  0.00     0.026 A 
ENDBRANCH  12  13
ENDBRANCH  11  12
ENDBRANCH   9  11
ENDBRANCH   4   7
BRANCH   1  19
ATOM     19  C1  NON d   1      31.975 -15.195   0.866  0.00  0.00     0.275 C 
ATOM     20  O1  NON d   1      32.825 -14.832   0.056  0.00  0.00    -0.265 OA
ATOM     21  N1  NON d   1      32.272 -15.306   2.205  0.00  0.00    -0.233 N 
ATOM     22  H1  NON d   1      31.676 -15.671   2.936  0.00  0.00     0.197 HD
BRANCH  21  23
ATOM     23  O2  NON d   1      33.608 -15.020   2.566  0.00  0.00    -0.287 OA
ATOM     24  H2  NON d   1      33.883 -14.401   1.853  0.00  0.00     0.244 HD
ENDBRANCH  21  23
ENDBRANCH   1  19
TORSDOF 6
ENDMDL
MODEL 7
REMARK VINA RESULT:   -26.502      3.652      4.944
REMARK INTER + INTRA:         -29.533
REMARK INTER:                 -28.292
REMARK INTRA:                  -1.240
REMARK CONF_INDEPENDENT:        1.790
REMARK UNBOUND:                -1.240
REMARK  6 active torsions:
REMARK  status: ('A' for Active; 'I' for Inactive)
REMARK       I    between atoms: C1_2  and  N1_3 
REMARK    1  A    between atoms: C1_2  and  C2_5 
REMARK    2  A    between atoms: N1_3  and  O2_4 
REMARK    3  A    between atoms: C5_8  and  C6_9 
REMARK       I    between atoms: C6_9  and  N2_11 
REMARK    4  A    between atoms: N2_11  and  C7_12 
REMARK    5  A    between atoms: C7_12  and  C8_13 
REMARK    6  A    between atoms: C8_13  and  C9_14 
ROOT
ATOM      1  C2  NON d   1      30.759 -16.497  -1.571  0.00  0.00     0.034 A 
ATOM      2  C3  NON d   1      30.153 -17.243  -0.546  0.00  0.00     0.018 A 
ATOM      3  C4  NON d   1      28.756 -17.322  -0.433  0.00  0.00     0.018 A 
ATOM      4  C5  NON d   1      27.940 -16.654  -1.351  0.00  0.00     0.032 A 
ATOM      5  C14 NON d   1      28.549 -15.911  -2.376  0.00  0.00     0.018 A 
ATOM      6  C15 NON d   1      29.943 -15.831  -2.489  0.00  0.00     0.018 A 
ENDROOT
BRANCH   4   7
ATOM      7  C6  NON d   1      26.446 -16.670  -1.313  0.00  0.00     0.251 C 
ATOM      8  O3  NON d   1      25.813 -16.302  -2.299  0.00  0.00    -0.268 OA
ATOM      9  N2  NON d   1      25.814 -17.107  -0.163  0.00  0.00    -0.357 N 
ATOM     10  H5  NON d   1      26.335 -17.466   0.622  0.00  0.00     0.162 HD
BRANCH   9  11
ATOM     11  C7  NON d   1      24.363 -17.155  -0.128  0.00  0.00     0.127 C 
BRANCH  11  12
ATOM     12  C8  NON d   1      23.808 -18.516   0.300  0.00  0.00     0.058 C 
BRANCH  12  13
ATOM     13  C9  NON d   1      22.369 -18.800  -0.074  0.00  0.00    -0.054 A 
ATOM     14  C10 NON d   1      22.045 -18.947  -1.428  0.00  0.00     0.026 A 
ATOM     15  C11 NON d   1      20.728 -19.203  -1.786  0.00  0.00     0.116 A 
ATOM     16  N3  NON d   1      19.720 -19.323  -0.898  0.00  0.00    -0.273 NA
ATOM     17  C12 NON d   1      20.046 -19.178   0.403  0.00  0.00     0.116 A 
ATOM     18  C13 NON d   1      21.332 -18.919   0.857  0.00  0.00     0.026 A 
ENDBRANCH  12  13
ENDBRANCH  11  12
ENDBRANCH   9  11
ENDBRANCH   4   7
BRANCH   1  19
ATOM     19  C1  NON d   1      32.251 -16.463  -1.622  0.00  0.00     0.275 C 
ATOM     20  O1  NON d   1      32.923 -17.177  -0.880  0.00  0.00    -0.265 OA
ATOM     21  N1  NON d   1      32.851 -15.604  -2.514  0.00  0.00    -0.233 N 
ATOM     22  H1  NON d   1      32.397 -14.920  -3.105  0.00  0.00     0.197 HD
BRANCH  21  23
ATOM     23  O2  NON d   1      34.264 -15.574  -2.486  0.00  0.00    -0.287 OA
ATOM     24  H2  NON d   1      34.469 -16.265  -1.818  0.00  0.00     0.244 HD
ENDBRANCH  21  23
ENDBRANCH   1  19
TORSDOF 6
ENDMDL
MODEL 8
REMARK VINA RESULT:   -26.476      1.610      2.034
REMARK INTER + INTRA:         -29.470
REMARK INTER:                 -28.266
REMARK INTRA:                  -1.205
REMARK CONF_INDEPENDENT:        1.790
REMARK UNBOUND:                -1.205
REMARK  6 active torsions:
REMARK  status: ('A' for Active; 'I' for Inactive)
REMARK       I    between atoms: C1_2  and  N1_3 
REMARK    1  A    between atoms: C1_2  and  C2_5 
REMARK    2  A    between atoms: N1_3  and  O2_4 
REMARK    3  A    between atoms: C5_8  and  C6_9 
REMARK       I    between atoms: C6_9  and  N2_11 
REMARK    4  A    between atoms: N2_11  and  C7_12 
REMARK    5  A    between atoms: C7_12  and  C8_13 
REMARK    6  A    between atoms: C8_13  and  C9_14 
ROOT
ATOM      1  C2  NON d   1      26.782 -11.447  -2.384  0.00  0.00     0.034 A 
ATOM      2  C3  NON d   1      25.795 -11.818  -3.312  0.00  0.00     0.018 A 
ATOM      3  C4  NON d   1      25.376 -13.152  -3.433  0.00  0.00     0.018 A 
ATOM      4  C5  NON d   1      25.942 -14.141  -2.622  0.00  0.00     0.032 A 
ATOM      5  C14 NON d   1      26.928 -13.766  -1.694  0.00  0.00     0.018 A 
ATOM      6  C15 NON d   1      27.346 -12.435  -1.572  0.00  0.00     0.018 A 
ENDROOT
BRANCH   4   7
ATOM      7  C6  NON d   1      25.572 -15.588  -2.679  0.00  0.00     0.251 C 
ATOM      8  O3  NON d   1      25.653 -16.189  -3.747  0.00  0.00    -0.268 OA
ATOM      9  N2  NON d   1      25.151 -16.214  -1.520  0.00  0.00    -0.357 N 
ATOM     10  H5  NON d   1      25.143 -15.735  -0.633  0.00  0.00     0.162 HD
BRANCH   9  11
ATOM     11  C7  NON d   1      24.818 -17.628  -1.561  0.00  0.00     0.127 C 
BRANCH  11  12
ATOM     12  C8  NON d   1      24.069 -18.113  -0.318  0.00  0.00     0.058 C 
BRANCH  12  13
ATOM     13  C9  NON d   1      22.608 -18.461  -0.508  0.00  0.00    -0.054 A 
ATOM     14  C10 NON d   1      21.764 -17.511  -1.094  0.00  0.00     0.026 A 
ATOM     15  C11 NON d   1      20.420 -17.815  -1.269  0.00  0.00     0.116 A 
ATOM     16  N3  NON d   1      19.864 -18.988  -0.906  0.00  0.00    -0.273 NA
ATOM     17  C12 NON d   1      20.688 -19.894  -0.342  0.00  0.00     0.116 A 
ATOM     18  C13 NON d   1      22.043 -19.682  -0.123  0.00  0.00     0.026 A 
ENDBRANCH  12  13
ENDBRANCH  11  12
ENDBRANCH   9  11
ENDBRANCH   4   7
BRANCH   1  19
ATOM     19  C1  NON d   1      27.172 -10.007  -2.316  0.00  0.00     0.275 C 
ATOM     20  O1  NON d   1      26.874  -9.320  -1.341  0.00  0.00    -0.265 OA
ATOM     21  N1  NON d   1      27.863  -9.470  -3.377  0.00  0.00    -0.233 N 
ATOM     22  H1  NON d   1      28.083  -9.920  -4.256  0.00  0.00     0.197 HD
BRANCH  21  23
ATOM     23  O2  NON d   1      28.162  -8.091  -3.284  0.00  0.00    -0.287 OA
ATOM     24  H2  NON d   1      27.369  -7.742  -2.820  0.00  0.00     0.244 HD
ENDBRANCH  21  23
ENDBRANCH   1  19
TORSDOF 6
ENDMDL
MODEL 9
REMARK VINA RESULT:   -26.441      3.570      4.188
REMARK INTER + INTRA:         -29.492
REMARK INTER:                 -28.231
REMARK INTRA:                  -1.260
REMARK CONF_INDEPENDENT:        1.790
REMARK UNBOUND:                -1.260
REMARK  6 active torsions:
REMARK  status: ('A' for Active; 'I' for Inactive)
REMARK       I    between atoms: C1_2  and  N1_3 
REMARK    1  A    between atoms: C1_2  and  C2_5 
REMARK    2  A    between atoms: N1_3  and  O2_4 
REMARK    3  A    between atoms: C5_8  and  C6_9 
REMARK       I    between atoms: C6_9  and  N2_11 
REMARK    4  A    between atoms: N2_11  and  C7_12 
REMARK    5  A    between atoms: C7_12  and  C8_13 
REMARK    6  A    between atoms: C8_13  and  C9_14 
ROOT
ATOM      1  C2  NON d   1      29.950 -15.605  -3.786  0.00  0.00     0.034 A 
ATOM      2  C3  NON d   1      29.938 -16.248  -2.537  0.00  0.00     0.018 A 
ATOM      3  C4  NON d   1      28.748 -16.394  -1.806  0.00  0.00     0.018 A 
ATOM      4  C5  NON d   1      27.546 -15.897  -2.318  0.00  0.00     0.032 A 
ATOM      5  C14 NON d   1      27.561 -15.256  -3.568  0.00  0.00     0.018 A 
ATOM      6  C15 NON d   1      28.748 -15.109  -4.297  0.00  0.00     0.018 A 
ENDROOT
BRANCH   4   7
ATOM      7  C6  NON d   1      26.230 -15.995  -1.615  0.00  0.00     0.251 C 
ATOM      8  O3  NON d   1      25.363 -15.154  -1.838  0.00  0.00    -0.268 OA
ATOM      9  N2  NON d   1      26.023 -17.040  -0.734  0.00  0.00    -0.357 N 
ATOM     10  H5  NON d   1      26.712 -17.763  -0.599  0.00  0.00     0.162 HD
BRANCH   9  11
ATOM     11  C7  NON d   1      24.736 -17.160  -0.069  0.00  0.00     0.127 C 
BRANCH  11  12
ATOM     12  C8  NON d   1      24.134 -18.564  -0.156  0.00  0.00     0.058 C 
BRANCH  12  13
ATOM     13  C9  NON d   1      22.644 -18.641  -0.409  0.00  0.00    -0.054 A 
ATOM     14  C10 NON d   1      22.015 -17.559  -1.037  0.00  0.00     0.026 A 
ATOM     15  C11 NON d   1      20.647 -17.614  -1.271  0.00  0.00     0.116 A 
ATOM     16  N3  NON d   1      19.869 -18.660  -0.927  0.00  0.00    -0.273 NA
ATOM     17  C12 NON d   1      20.488 -19.694  -0.321  0.00  0.00     0.116 A 
ATOM     18  C13 NON d   1      21.848 -19.731  -0.044  0.00  0.00     0.026 A 
ENDBRANCH  12  13
ENDBRANCH  11  12
ENDBRANCH   9  11
ENDBRANCH   4   7
BRANCH   1  19
ATOM     19  C1  NON d   1      31.256 -15.490  -4.501  0.00  0.00     0.275 C 
ATOM     20  O1  NON d   1      31.551 -14.465  -5.112  0.00  0.00    -0.265 OA
ATOM     21  N1  NON d   1      32.113 -16.566  -4.464  0.00  0.00    -0.233 N 
ATOM     22  H1  NON d   1      31.935 -17.478  -4.065  0.00  0.00     0.197 HD
BRANCH  21  23
ATOM     23  O2  NON d   1      33.312 -16.424  -5.199  0.00  0.00    -0.287 OA
ATOM     24  H2  NON d   1      33.426 -15.448  -5.216  0.00  0.00     0.244 HD
ENDBRANCH  21  23
ENDBRANCH   1  19
TORSDOF 6
ENDMDL
