MODEL 1
REMARK VINA RESULT:    -9.023      0.000      0.000
REMARK INTER + INTRA:         -11.218
REMARK INTER:                 -10.216
REMARK INTRA:                  -1.003
REMARK CONF_INDEPENDENT:        1.193
REMARK UNBOUND:                -1.003
REMARK  4 active torsions:
REMARK  status: ('A' for Active; 'I' for Inactive)
REMARK    1  A    between atoms: N1_1  and  C1_2 
REMARK    2  A    between atoms: C4_5  and  C5_6 
REMARK    3  A    between atoms: C12_14  and  N2_15 
REMARK       I    between atoms: N2_15  and  C13_16 
REMARK    4  A    between atoms: C13_16  and  C14_18 
ROOT
ATOM      1  C1  NON d   1      25.303 -17.591  -0.053  0.00  0.00     0.033 C 
ATOM      2  C2  NON d   1      26.593 -17.260  -0.463  0.00  0.00     0.026 C 
ATOM      3  C3  NON d   1      26.796 -16.314  -1.474  0.00  0.00     0.014 C 
ATOM      4  C4  NON d   1      25.719 -15.675  -2.114  0.00  0.00    -0.024 C 
ATOM      5  C11 NON d   1      24.421 -16.065  -1.725  0.00  0.00     0.043 C 
ATOM      6  C12 NON d   1      24.206 -17.053  -0.755  0.00  0.00     0.057 C 
ENDROOT
BRANCH   6   7
ATOM      7  N2  NON d   1      22.939 -17.620  -0.472  0.00  0.00    -0.321 N 
ATOM      8  C13 NON d   1      22.344 -18.716  -1.066  0.00  0.00     0.256 C 
ATOM      9  O1  NON d   1      22.774 -19.325  -2.040  0.00  0.00    -0.267 OA
ATOM     10  H10 NON d   1      22.537 -17.251   0.380  0.00  0.00     0.169 HD
BRANCH   8  11
ATOM     11  C14 NON d   1      21.075 -19.199  -0.432  0.00  0.00     0.032 A 
ATOM     12  C15 NON d   1      21.030 -19.274   0.968  0.00  0.00     0.017 A 
ATOM     13  C16 NON d   1      19.875 -19.709   1.621  0.00  0.00     0.001 A 
ATOM     14  C17 NON d   1      18.754 -20.076   0.881  0.00  0.00     0.000 A 
ATOM     15  C18 NON d   1      18.790 -20.018  -0.512  0.00  0.00     0.001 A 
ATOM     16  C19 NON d   1      19.947 -19.589  -1.169  0.00  0.00     0.017 A 
ENDBRANCH   8  11
ENDBRANCH   6   7
BRANCH   1  17
ATOM     17  N1  NON d   1      25.110 -18.570   0.951  0.00  0.00    -0.301 NA
ATOM     18  H1  NON d   1      25.513 -18.286   1.842  0.00  0.00     0.124 HD
ATOM     19  H2  NON d   1      24.118 -18.764   1.071  0.00  0.00     0.124 HD
ENDBRANCH   1  17
BRANCH   4  20
ATOM     20  C5  NON d   1      25.944 -14.666  -3.183  0.00  0.00    -0.026 A 
ATOM     21  C6  NON d   1      26.819 -14.916  -4.260  0.00  0.00     0.015 A 
ATOM     22  C7  NON d   1      27.016 -13.975  -5.278  0.00  0.00     0.043 A 
ATOM     23  C8  NON d   1      26.351 -12.760  -5.226  0.00  0.00     0.116 A 
ATOM     24  F1  NON d   1      26.543 -11.857  -6.198  0.00  0.00    -0.206 F 
ATOM     25  C9  NON d   1      25.490 -12.471  -4.180  0.00  0.00     0.043 A 
ATOM     26  C10 NON d   1      25.284 -13.419  -3.171  0.00  0.00     0.015 A 
ENDBRANCH   4  20
TORSDOF 4
ENDMDL
MODEL 2
REMARK VINA RESULT:    -8.198      3.252      8.006
REMARK INTER + INTRA:         -10.652
REMARK INTER:                  -9.392
REMARK INTRA:                  -1.261
REMARK CONF_INDEPENDENT:        1.193
REMARK UNBOUND:                -1.261
REMARK  4 active torsions:
REMARK  status: ('A' for Active; 'I' for Inactive)
REMARK    1  A    between atoms: N1_1  and  C1_2 
REMARK    2  A    between atoms: C4_5  and  C5_6 
REMARK    3  A    between atoms: C12_14  and  N2_15 
REMARK       I    between atoms: N2_15  and  C13_16 
REMARK    4  A    between atoms: C13_16  and  C14_18 
ROOT
ATOM      1  C1  NON d   1      26.367 -17.075  -0.638  0.00  0.00     0.033 C 
ATOM      2  C2  NON d   1      25.935 -17.724   0.518  0.00  0.00     0.026 C 
ATOM      3  C3  NON d   1      24.632 -18.226   0.605  0.00  0.00     0.014 C 
ATOM      4  C4  NON d   1      23.716 -18.087  -0.453  0.00  0.00    -0.024 C 
ATOM      5  C11 NON d   1      24.153 -17.378  -1.591  0.00  0.00     0.043 C 
ATOM      6  C12 NON d   1      25.437 -16.822  -1.666  0.00  0.00     0.057 C 
ENDROOT
BRANCH   6   7
ATOM      7  N2  NON d   1      25.857 -15.938  -2.690  0.00  0.00    -0.321 N 
ATOM      8  C13 NON d   1      25.166 -14.870  -3.230  0.00  0.00     0.256 C 
ATOM      9  O1  NON d   1      24.002 -14.574  -2.988  0.00  0.00    -0.267 OA
ATOM     10  H10 NON d   1      26.842 -16.035  -2.898  0.00  0.00     0.169 HD
BRANCH   8  11
ATOM     11  C14 NON d   1      25.937 -13.999  -4.174  0.00  0.00     0.032 A 
ATOM     12  C15 NON d   1      25.574 -12.647  -4.262  0.00  0.00     0.017 A 
ATOM     13  C16 NON d   1      26.258 -11.780  -5.117  0.00  0.00     0.001 A 
ATOM     14  C17 NON d   1      27.310 -12.256  -5.895  0.00  0.00     0.000 A 
ATOM     15  C18 NON d   1      27.673 -13.600  -5.826  0.00  0.00     0.001 A 
ATOM     16  C19 NON d   1      26.986 -14.473  -4.976  0.00  0.00     0.017 A 
ENDBRANCH   8  11
ENDBRANCH   6   7
BRANCH   1  17
ATOM     17  N1  NON d   1      27.680 -16.548  -0.703  0.00  0.00    -0.301 NA
ATOM     18  H1  NON d   1      27.804 -15.758  -0.074  0.00  0.00     0.124 HD
ATOM     19  H2  NON d   1      28.363 -17.270  -0.484  0.00  0.00     0.124 HD
ENDBRANCH   1  17
BRANCH   4  20
ATOM     20  C5  NON d   1      22.334 -18.629  -0.354  0.00  0.00    -0.026 A 
ATOM     21  C6  NON d   1      21.710 -18.835   0.894  0.00  0.00     0.015 A 
ATOM     22  C7  NON d   1      20.403 -19.325   0.988  0.00  0.00     0.043 A 
ATOM     23  C8  NON d   1      19.701 -19.632  -0.168  0.00  0.00     0.116 A 
ATOM     24  F1  NON d   1      18.451 -20.106  -0.079  0.00  0.00    -0.206 F 
ATOM     25  C9  NON d   1      20.281 -19.453  -1.414  0.00  0.00     0.043 A 
ATOM     26  C10 NON d   1      21.584 -18.950  -1.505  0.00  0.00     0.015 A 
ENDBRANCH   4  20
TORSDOF 4
ENDMDL
MODEL 3
REMARK VINA RESULT:    -7.850      3.311      8.065
REMARK INTER + INTRA:         -10.815
REMARK INTER:                  -9.043
REMARK INTRA:                  -1.771
REMARK CONF_INDEPENDENT:        1.193
REMARK UNBOUND:                -1.771
REMARK  4 active torsions:
REMARK  status: ('A' for Active; 'I' for Inactive)
REMARK    1  A    between atoms: N1_1  and  C1_2 
REMARK    2  A    between atoms: C4_5  and  C5_6 
REMARK    3  A    between atoms: C12_14  and  N2_15 
REMARK       I    between atoms: N2_15  and  C13_16 
REMARK    4  A    between atoms: C13_16  and  C14_18 
ROOT
ATOM      1  C1  NON d   1      25.960 -17.058  -0.506  0.00  0.00     0.033 C 
ATOM      2  C2  NON d   1      25.649 -18.017   0.457  0.00  0.00     0.026 C 
ATOM      3  C3  NON d   1      24.353 -18.535   0.550  0.00  0.00     0.014 C 
ATOM      4  C4  NON d   1      23.324 -18.107  -0.308  0.00  0.00    -0.024 C 
ATOM      5  C11 NON d   1      23.644 -17.095  -1.237  0.00  0.00     0.043 C 
ATOM      6  C12 NON d   1      24.924 -16.529  -1.300  0.00  0.00     0.057 C 
ENDROOT
BRANCH   6   7
ATOM      7  N2  NON d   1      25.244 -15.383  -2.069  0.00  0.00    -0.321 N 
ATOM      8  C13 NON d   1      26.336 -15.189  -2.893  0.00  0.00     0.256 C 
ATOM      9  O1  NON d   1      27.292 -15.948  -3.008  0.00  0.00    -0.267 OA
ATOM     10  H10 NON d   1      24.474 -14.730  -2.120  0.00  0.00     0.169 HD
BRANCH   8  11
ATOM     11  C14 NON d   1      26.317 -13.944  -3.727  0.00  0.00     0.032 A 
ATOM     12  C15 NON d   1      27.014 -13.960  -4.944  0.00  0.00     0.017 A 
ATOM     13  C16 NON d   1      27.029 -12.835  -5.772  0.00  0.00     0.001 A 
ATOM     14  C17 NON d   1      26.349 -11.682  -5.390  0.00  0.00     0.000 A 
ATOM     15  C18 NON d   1      25.662 -11.648  -4.177  0.00  0.00     0.001 A 
ATOM     16  C19 NON d   1      25.650 -12.771  -3.343  0.00  0.00     0.017 A 
ENDBRANCH   8  11
ENDBRANCH   6   7
BRANCH   1  17
ATOM     17  N1  NON d   1      27.269 -16.522  -0.571  0.00  0.00    -0.301 NA
ATOM     18  H1  NON d   1      27.862 -17.043  -1.212  0.00  0.00     0.124 HD
ATOM     19  H2  NON d   1      27.237 -15.544  -0.852  0.00  0.00     0.124 HD
ENDBRANCH   1  17
BRANCH   4  20
ATOM     20  C5  NON d   1      21.950 -18.668  -0.207  0.00  0.00    -0.026 A 
ATOM     21  C6  NON d   1      21.183 -18.952  -1.356  0.00  0.00     0.015 A 
ATOM     22  C7  NON d   1      19.898 -19.498  -1.263  0.00  0.00     0.043 A 
ATOM     23  C8  NON d   1      19.351 -19.757  -0.015  0.00  0.00     0.116 A 
ATOM     24  F1  NON d   1      18.120 -20.276   0.076  0.00  0.00    -0.206 F 
ATOM     25  C9  NON d   1      20.068 -19.484   1.139  0.00  0.00     0.043 A 
ATOM     26  C10 NON d   1      21.359 -18.950   1.042  0.00  0.00     0.015 A 
ENDBRANCH   4  20
TORSDOF 4
ENDMDL
MODEL 4
REMARK VINA RESULT:    -7.282      3.502      5.434
REMARK INTER + INTRA:          -9.905
REMARK INTER:                  -8.475
REMARK INTRA:                  -1.430
REMARK CONF_INDEPENDENT:        1.193
REMARK UNBOUND:                -1.430
REMARK  4 active torsions:
REMARK  status: ('A' for Active; 'I' for Inactive)
REMARK    1  A    between atoms: N1_1  and  C1_2 
REMARK    2  A    between atoms: C4_5  and  C5_6 
REMARK    3  A    between atoms: C12_14  and  N2_15 
REMARK       I    between atoms: N2_15  and  C13_16 
REMARK    4  A    between atoms: C13_16  and  C14_18 
ROOT
ATOM      1  C1  NON d   1      25.645 -13.903  -4.618  0.00  0.00     0.033 C 
ATOM      2  C2  NON d   1      26.361 -12.961  -5.356  0.00  0.00     0.026 C 
ATOM      3  C3  NON d   1      27.599 -13.291  -5.917  0.00  0.00     0.014 C 
ATOM      4  C4  NON d   1      28.168 -14.567  -5.752  0.00  0.00    -0.024 C 
ATOM      5  C11 NON d   1      27.456 -15.487  -4.954  0.00  0.00     0.043 C 
ATOM      6  C12 NON d   1      26.243 -15.148  -4.340  0.00  0.00     0.057 C 
ENDROOT
BRANCH   6   7
ATOM      7  N2  NON d   1      25.591 -15.957  -3.377  0.00  0.00    -0.321 N 
ATOM      8  C13 NON d   1      25.259 -15.632  -2.076  0.00  0.00     0.256 C 
ATOM      9  O1  NON d   1      25.582 -14.605  -1.489  0.00  0.00    -0.267 OA
ATOM     10  H10 NON d   1      25.196 -16.794  -3.786  0.00  0.00     0.169 HD
BRANCH   8  11
ATOM     11  C14 NON d   1      24.406 -16.626  -1.348  0.00  0.00     0.032 A 
ATOM     12  C15 NON d   1      23.046 -16.325  -1.182  0.00  0.00     0.017 A 
ATOM     13  C16 NON d   1      22.196 -17.213  -0.519  0.00  0.00     0.001 A 
ATOM     14  C17 NON d   1      22.697 -18.409  -0.013  0.00  0.00     0.000 A 
ATOM     15  C18 NON d   1      24.050 -18.715  -0.160  0.00  0.00     0.001 A 
ATOM     16  C19 NON d   1      24.905 -17.825  -0.818  0.00  0.00     0.017 A 
ENDBRANCH   8  11
ENDBRANCH   6   7
BRANCH   1  17
ATOM     17  N1  NON d   1      24.406 -13.548  -4.033  0.00  0.00    -0.301 NA
ATOM     18  H1  NON d   1      23.621 -13.761  -4.645  0.00  0.00     0.124 HD
ATOM     19  H2  NON d   1      24.285 -14.026  -3.143  0.00  0.00     0.124 HD
ENDBRANCH   1  17
BRANCH   4  20
ATOM     20  C5  NON d   1      29.482 -14.911  -6.356  0.00  0.00    -0.026 A 
ATOM     21  C6  NON d   1      30.025 -16.209  -6.252  0.00  0.00     0.015 A 
ATOM     22  C7  NON d   1      31.252 -16.539  -6.837  0.00  0.00     0.043 A 
ATOM     23  C8  NON d   1      31.966 -15.571  -7.527  0.00  0.00     0.116 A 
ATOM     24  F1  NON d   1      33.143 -15.885  -8.084  0.00  0.00    -0.206 F 
ATOM     25  C9  NON d   1      31.473 -14.281  -7.645  0.00  0.00     0.043 A 
ATOM     26  C10 NON d   1      30.239 -13.957  -7.069  0.00  0.00     0.015 A 
ENDBRANCH   4  20
TORSDOF 4
ENDMDL
MODEL 5
REMARK VINA RESULT:    -7.106      5.288      8.188
REMARK INTER + INTRA:          -9.401
REMARK INTER:                  -8.299
REMARK INTRA:                  -1.102
REMARK CONF_INDEPENDENT:        1.193
REMARK UNBOUND:                -1.102
REMARK  4 active torsions:
REMARK  status: ('A' for Active; 'I' for Inactive)
REMARK    1  A    between atoms: N1_1  and  C1_2 
REMARK    2  A    between atoms: C4_5  and  C5_6 
REMARK    3  A    between atoms: C12_14  and  N2_15 
REMARK       I    between atoms: N2_15  and  C13_16 
REMARK    4  A    between atoms: C13_16  and  C14_18 
ROOT
ATOM      1  C1  NON d   1      28.954 -15.773  -0.036  0.00  0.00     0.033 C 
ATOM      2  C2  NON d   1      28.624 -16.617  -1.095  0.00  0.00     0.026 C 
ATOM      3  C3  NON d   1      27.312 -17.075  -1.255  0.00  0.00     0.014 C 
ATOM      4  C4  NON d   1      26.290 -16.714  -0.359  0.00  0.00    -0.024 C 
ATOM      5  C11 NON d   1      26.655 -15.907   0.738  0.00  0.00     0.043 C 
ATOM      6  C12 NON d   1      27.977 -15.490   0.940  0.00  0.00     0.057 C 
ENDROOT
BRANCH   6   7
ATOM      7  N2  NON d   1      28.433 -14.851   2.119  0.00  0.00    -0.321 N 
ATOM      8  C13 NON d   1      27.761 -13.937   2.907  0.00  0.00     0.256 C 
ATOM      9  O1  NON d   1      26.676 -13.428   2.648  0.00  0.00    -0.267 OA
ATOM     10  H10 NON d   1      29.282 -15.269   2.476  0.00  0.00     0.169 HD
BRANCH   8  11
ATOM     11  C14 NON d   1      28.424 -13.570   4.200  0.00  0.00     0.032 A 
ATOM     12  C15 NON d   1      29.354 -14.473   4.738  0.00  0.00     0.017 A 
ATOM     13  C16 NON d   1      30.013 -14.187   5.935  0.00  0.00     0.001 A 
ATOM     14  C17 NON d   1      29.748 -12.998   6.609  0.00  0.00     0.000 A 
ATOM     15  C18 NON d   1      28.817 -12.098   6.091  0.00  0.00     0.001 A 
ATOM     16  C19 NON d   1      28.151 -12.383   4.895  0.00  0.00     0.017 A 
ENDBRANCH   8  11
ENDBRANCH   6   7
BRANCH   1  17
ATOM     17  N1  NON d   1      30.291 -15.339   0.131  0.00  0.00    -0.301 NA
ATOM     18  H1  NON d   1      30.406 -14.358  -0.115  0.00  0.00     0.124 HD
ATOM     19  H2  NON d   1      30.595 -15.488   1.091  0.00  0.00     0.124 HD
ENDBRANCH   1  17
BRANCH   4  20
ATOM     20  C5  NON d   1      24.896 -17.201  -0.541  0.00  0.00    -0.026 A 
ATOM     21  C6  NON d   1      24.587 -18.577  -0.520  0.00  0.00     0.015 A 
ATOM     22  C7  NON d   1      23.273 -19.035  -0.670  0.00  0.00     0.043 A 
ATOM     23  C8  NON d   1      22.246 -18.123  -0.859  0.00  0.00     0.116 A 
ATOM     24  F1  NON d   1      20.989 -18.561  -1.008  0.00  0.00    -0.206 F 
ATOM     25  C9  NON d   1      22.508 -16.763  -0.895  0.00  0.00     0.043 A 
ATOM     26  C10 NON d   1      23.821 -16.307  -0.731  0.00  0.00     0.015 A 
ENDBRANCH   4  20
TORSDOF 4
ENDMDL
MODEL 6
REMARK VINA RESULT:    -6.957      3.600      8.341
REMARK INTER + INTRA:          -9.561
REMARK INTER:                  -8.150
REMARK INTRA:                  -1.410
REMARK CONF_INDEPENDENT:        1.193
REMARK UNBOUND:                -1.410
REMARK  4 active torsions:
REMARK  status: ('A' for Active; 'I' for Inactive)
REMARK    1  A    between atoms: N1_1  and  C1_2 
REMARK    2  A    between atoms: C4_5  and  C5_6 
REMARK    3  A    between atoms: C12_14  and  N2_15 
REMARK       I    between atoms: N2_15  and  C13_16 
REMARK    4  A    between atoms: C13_16  and  C14_18 
ROOT
ATOM      1  C1  NON d   1      28.182 -15.821  -1.496  0.00  0.00     0.033 C 
ATOM      2  C2  NON d   1      27.809 -16.316  -0.247  0.00  0.00     0.026 C 
ATOM      3  C3  NON d   1      26.529 -16.844  -0.047  0.00  0.00     0.014 C 
ATOM      4  C4  NON d   1      25.578 -16.887  -1.083  0.00  0.00    -0.024 C 
ATOM      5  C11 NON d   1      25.955 -16.329  -2.322  0.00  0.00     0.043 C 
ATOM      6  C12 NON d   1      27.214 -15.746  -2.517  0.00  0.00     0.057 C 
ENDROOT
BRANCH   6   7
ATOM      7  N2  NON d   1      27.571 -15.001  -3.668  0.00  0.00    -0.321 N 
ATOM      8  C13 NON d   1      26.745 -14.550  -4.680  0.00  0.00     0.256 C 
ATOM      9  O1  NON d   1      25.558 -14.825  -4.813  0.00  0.00    -0.267 OA
ATOM     10  H10 NON d   1      28.513 -14.639  -3.612  0.00  0.00     0.169 HD
BRANCH   8  11
ATOM     11  C14 NON d   1      27.374 -13.626  -5.678  0.00  0.00     0.032 A 
ATOM     12  C15 NON d   1      28.385 -14.143  -6.503  0.00  0.00     0.017 A 
ATOM     13  C16 NON d   1      29.006 -13.335  -7.458  0.00  0.00     0.001 A 
ATOM     14  C17 NON d   1      28.625 -12.004  -7.598  0.00  0.00     0.000 A 
ATOM     15  C18 NON d   1      27.631 -11.474  -6.776  0.00  0.00     0.001 A 
ATOM     16  C19 NON d   1      27.011 -12.278  -5.814  0.00  0.00     0.017 A 
ENDBRANCH   8  11
ENDBRANCH   6   7
BRANCH   1  17
ATOM     17  N1  NON d   1      29.471 -15.264  -1.678  0.00  0.00    -0.301 NA
ATOM     18  H1  NON d   1      29.999 -15.754  -2.398  0.00  0.00     0.124 HD
ATOM     19  H2  NON d   1      29.401 -14.278  -1.917  0.00  0.00     0.124 HD
ENDBRANCH   1  17
BRANCH   4  20
ATOM     20  C5  NON d   1      24.221 -17.455  -0.864  0.00  0.00    -0.026 A 
ATOM     21  C6  NON d   1      23.057 -16.689  -1.077  0.00  0.00     0.015 A 
ATOM     22  C7  NON d   1      21.780 -17.229  -0.890  0.00  0.00     0.043 A 
ATOM     23  C8  NON d   1      21.645 -18.544  -0.471  0.00  0.00     0.116 A 
ATOM     24  F1  NON d   1      20.422 -19.060  -0.288  0.00  0.00    -0.206 F 
ATOM     25  C9  NON d   1      22.764 -19.328  -0.241  0.00  0.00     0.043 A 
ATOM     26  C10 NON d   1      24.040 -18.789  -0.442  0.00  0.00     0.015 A 
ENDBRANCH   4  20
TORSDOF 4
ENDMDL
MODEL 7
REMARK VINA RESULT:    -6.901      3.772      8.426
REMARK INTER + INTRA:          -9.496
REMARK INTER:                  -8.094
REMARK INTRA:                  -1.402
REMARK CONF_INDEPENDENT:        1.193
REMARK UNBOUND:                -1.402
REMARK  4 active torsions:
REMARK  status: ('A' for Active; 'I' for Inactive)
REMARK    1  A    between atoms: N1_1  and  C1_2 
REMARK    2  A    between atoms: C4_5  and  C5_6 
REMARK    3  A    between atoms: C12_14  and  N2_15 
REMARK       I    between atoms: N2_15  and  C13_16 
REMARK    4  A    between atoms: C13_16  and  C14_18 
ROOT
ATOM      1  C1  NON d   1      28.616 -15.668  -1.163  0.00  0.00     0.033 C 
ATOM      2  C2  NON d   1      28.064 -15.915   0.093  0.00  0.00     0.026 C 
ATOM      3  C3  NON d   1      26.763 -16.414   0.211  0.00  0.00     0.014 C 
ATOM      4  C4  NON d   1      25.967 -16.674  -0.919  0.00  0.00    -0.024 C 
ATOM      5  C11 NON d   1      26.521 -16.364  -2.178  0.00  0.00     0.043 C 
ATOM      6  C12 NON d   1      27.802 -15.809  -2.304  0.00  0.00     0.057 C 
ENDROOT
BRANCH   6   7
ATOM      7  N2  NON d   1      28.326 -15.298  -3.517  0.00  0.00    -0.321 N 
ATOM      8  C13 NON d   1      27.684 -15.167  -4.734  0.00  0.00     0.256 C 
ATOM      9  O1  NON d   1      26.564 -15.588  -5.003  0.00  0.00    -0.267 OA
ATOM     10  H10 NON d   1      29.215 -14.836  -3.384  0.00  0.00     0.169 HD
BRANCH   8  11
ATOM     11  C14 NON d   1      28.434 -14.420  -5.795  0.00  0.00     0.032 A 
ATOM     12  C15 NON d   1      27.840 -13.264  -6.324  0.00  0.00     0.017 A 
ATOM     13  C16 NON d   1      28.490 -12.518  -7.310  0.00  0.00     0.001 A 
ATOM     14  C17 NON d   1      29.738 -12.921  -7.778  0.00  0.00     0.000 A 
ATOM     15  C18 NON d   1      30.333 -14.075  -7.269  0.00  0.00     0.001 A 
ATOM     16  C19 NON d   1      29.682 -14.828  -6.286  0.00  0.00     0.017 A 
ENDBRANCH   8  11
ENDBRANCH   6   7
BRANCH   1  17
ATOM     17  N1  NON d   1      29.924 -15.136  -1.267  0.00  0.00    -0.301 NA
ATOM     18  H1  NON d   1      29.979 -14.186  -0.908  0.00  0.00     0.124 HD
ATOM     19  H2  NON d   1      30.587 -15.728  -0.771  0.00  0.00     0.124 HD
ENDBRANCH   1  17
BRANCH   4  20
ATOM     20  C5  NON d   1      24.587 -17.211  -0.785  0.00  0.00    -0.026 A 
ATOM     21  C6  NON d   1      24.348 -18.575  -0.516  0.00  0.00     0.015 A 
ATOM     22  C7  NON d   1      23.051 -19.077  -0.369  0.00  0.00     0.043 A 
ATOM     23  C8  NON d   1      21.966 -18.225  -0.504  0.00  0.00     0.116 A 
ATOM     24  F1  NON d   1      20.722 -18.706  -0.369  0.00  0.00    -0.206 F 
ATOM     25  C9  NON d   1      22.156 -16.880  -0.778  0.00  0.00     0.043 A 
ATOM     26  C10 NON d   1      23.455 -16.378  -0.911  0.00  0.00     0.015 A 
ENDBRANCH   4  20
TORSDOF 4
ENDMDL
MODEL 8
REMARK VINA RESULT:    -6.826      3.263      5.346
REMARK INTER + INTRA:          -9.781
REMARK INTER:                  -8.019
REMARK INTRA:                  -1.761
REMARK CONF_INDEPENDENT:        1.193
REMARK UNBOUND:                -1.761
REMARK  4 active torsions:
REMARK  status: ('A' for Active; 'I' for Inactive)
REMARK    1  A    between atoms: N1_1  and  C1_2 
REMARK    2  A    between atoms: C4_5  and  C5_6 
REMARK    3  A    between atoms: C12_14  and  N2_15 
REMARK       I    between atoms: N2_15  and  C13_16 
REMARK    4  A    between atoms: C13_16  and  C14_18 
ROOT
ATOM      1  C1  NON d   1      26.636 -14.200  -4.820  0.00  0.00     0.033 C 
ATOM      2  C2  NON d   1      27.086 -13.284  -5.770  0.00  0.00     0.026 C 
ATOM      3  C3  NON d   1      26.771 -11.926  -5.651  0.00  0.00     0.014 C 
ATOM      4  C4  NON d   1      25.990 -11.440  -4.588  0.00  0.00    -0.024 C 
ATOM      5  C11 NON d   1      25.496 -12.389  -3.669  0.00  0.00     0.043 C 
ATOM      6  C12 NON d   1      25.757 -13.759  -3.810  0.00  0.00     0.057 C 
ENDROOT
BRANCH   6   7
ATOM      7  N2  NON d   1      25.129 -14.767  -3.039  0.00  0.00    -0.321 N 
ATOM      8  C13 NON d   1      25.716 -15.851  -2.414  0.00  0.00     0.256 C 
ATOM      9  O1  NON d   1      26.889 -16.192  -2.521  0.00  0.00    -0.267 OA
ATOM     10  H10 NON d   1      24.173 -14.532  -2.809  0.00  0.00     0.169 HD
BRANCH   8  11
ATOM     11  C14 NON d   1      24.825 -16.650  -1.512  0.00  0.00     0.032 A 
ATOM     12  C15 NON d   1      25.369 -17.787  -0.895  0.00  0.00     0.017 A 
ATOM     13  C16 NON d   1      24.594 -18.570  -0.037  0.00  0.00     0.001 A 
ATOM     14  C17 NON d   1      23.268 -18.227   0.211  0.00  0.00     0.000 A 
ATOM     15  C18 NON d   1      22.712 -17.107  -0.405  0.00  0.00     0.001 A 
ATOM     16  C19 NON d   1      23.483 -16.323  -1.270  0.00  0.00     0.017 A 
ENDBRANCH   8  11
ENDBRANCH   6   7
BRANCH   1  17
ATOM     17  N1  NON d   1      26.938 -15.575  -4.967  0.00  0.00    -0.301 NA
ATOM     18  H1  NON d   1      27.795 -15.830  -4.480  0.00  0.00     0.124 HD
ATOM     19  H2  NON d   1      26.168 -16.146  -4.625  0.00  0.00     0.124 HD
ENDBRANCH   1  17
BRANCH   4  20
ATOM     20  C5  NON d   1      25.665  -9.993  -4.466  0.00  0.00    -0.026 A 
ATOM     21  C6  NON d   1      25.155  -9.258  -5.556  0.00  0.00     0.015 A 
ATOM     22  C7  NON d   1      24.830  -7.902  -5.437  0.00  0.00     0.043 A 
ATOM     23  C8  NON d   1      25.023  -7.254  -4.227  0.00  0.00     0.116 A 
ATOM     24  F1  NON d   1      24.716  -5.954  -4.113  0.00  0.00    -0.206 F 
ATOM     25  C9  NON d   1      25.531  -7.938  -3.134  0.00  0.00     0.043 A 
ATOM     26  C10 NON d   1      25.842  -9.297  -3.252  0.00  0.00     0.015 A 
ENDBRANCH   4  20
TORSDOF 4
ENDMDL
MODEL 9
REMARK VINA RESULT:    -6.470      4.631      9.041
REMARK INTER + INTRA:          -9.351
REMARK INTER:                  -7.663
REMARK INTRA:                  -1.688
REMARK CONF_INDEPENDENT:        1.193
REMARK UNBOUND:                -1.688
REMARK  4 active torsions:
REMARK  status: ('A' for Active; 'I' for Inactive)
REMARK    1  A    between atoms: N1_1  and  C1_2 
REMARK    2  A    between atoms: C4_5  and  C5_6 
REMARK    3  A    between atoms: C12_14  and  N2_15 
REMARK       I    between atoms: N2_15  and  C13_16 
REMARK    4  A    between atoms: C13_16  and  C14_18 
ROOT
ATOM      1  C1  NON d   1      26.802 -13.433  -5.133  0.00  0.00     0.033 C 
ATOM      2  C2  NON d   1      27.373 -14.692  -4.957  0.00  0.00     0.026 C 
ATOM      3  C3  NON d   1      26.924 -15.538  -3.937  0.00  0.00     0.014 C 
ATOM      4  C4  NON d   1      25.899 -15.151  -3.054  0.00  0.00    -0.024 C 
ATOM      5  C11 NON d   1      25.375 -13.851  -3.213  0.00  0.00     0.043 C 
ATOM      6  C12 NON d   1      25.856 -12.975  -4.194  0.00  0.00     0.057 C 
ENDROOT
BRANCH   6   7
ATOM      7  N2  NON d   1      25.509 -11.604  -4.269  0.00  0.00    -0.321 N 
ATOM      8  C13 NON d   1      26.331 -10.531  -4.556  0.00  0.00     0.256 C 
ATOM      9  O1  NON d   1      27.550 -10.576  -4.683  0.00  0.00    -0.267 OA
ATOM     10  H10 NON d   1      24.507 -11.464  -4.272  0.00  0.00     0.169 HD
BRANCH   8  11
ATOM     11  C14 NON d   1      25.647  -9.212  -4.749  0.00  0.00     0.032 A 
ATOM     12  C15 NON d   1      25.757  -8.262  -3.722  0.00  0.00     0.017 A 
ATOM     13  C16 NON d   1      25.149  -7.010  -3.843  0.00  0.00     0.001 A 
ATOM     14  C17 NON d   1      24.424  -6.697  -4.989  0.00  0.00     0.000 A 
ATOM     15  C18 NON d   1      24.296  -7.636  -6.011  0.00  0.00     0.001 A 
ATOM     16  C19 NON d   1      24.898  -8.893  -5.891  0.00  0.00     0.017 A 
ENDBRANCH   8  11
ENDBRANCH   6   7
BRANCH   1  17
ATOM     17  N1  NON d   1      27.284 -12.576  -6.152  0.00  0.00    -0.301 NA
ATOM     18  H1  NON d   1      26.662 -11.786  -6.311  0.00  0.00     0.124 HD
ATOM     19  H2  NON d   1      28.214 -12.235  -5.918  0.00  0.00     0.124 HD
ENDBRANCH   1  17
BRANCH   4  20
ATOM     20  C5  NON d   1      25.424 -16.059  -1.976  0.00  0.00    -0.026 A 
ATOM     21  C6  NON d   1      26.320 -16.865  -1.243  0.00  0.00     0.015 A 
ATOM     22  C7  NON d   1      25.877 -17.704  -0.215  0.00  0.00     0.043 A 
ATOM     23  C8  NON d   1      24.525 -17.763   0.088  0.00  0.00     0.116 A 
ATOM     24  F1  NON d   1      24.099 -18.570   1.069  0.00  0.00    -0.206 F 
ATOM     25  C9  NON d   1      23.611 -16.994  -0.614  0.00  0.00     0.043 A 
ATOM     26  C10 NON d   1      24.059 -16.146  -1.633  0.00  0.00     0.015 A 
ENDBRANCH   4  20
TORSDOF 4
ENDMDL
