REMARK  11 active torsions:
REMARK  status: ('A' for Active; 'I' for Inactive)
REMARK    1  A    between atoms: N1_1  and  C1_2 
REMARK    2  A    between atoms: C5_6  and  C6_7 
REMARK    3  A    between atoms: C8_9  and  C9_10 
REMARK       I    between atoms: C9_10  and  N2_12 
REMARK    4  A    between atoms: N2_12  and  C10_13 
REMARK    5  A    between atoms: C10_13  and  C11_14 
REMARK    6  A    between atoms: C11_14  and  C12_15 
REMARK    7  A    between atoms: C12_15  and  C13_16 
REMARK    8  A    between atoms: C13_16  and  C14_17 
REMARK    9  A    between atoms: C14_17  and  C15_18 
REMARK   10  A    between atoms: C15_18  and  C16_19 
REMARK       I    between atoms: C16_19  and  N3_21 
REMARK   11  A    between atoms: N3_21  and  O3_22 
ROOT
ATOM      1  C9  NON d   1       6.345   6.551  -0.169  0.00  0.00     0.272 C 
ATOM      2  O1  NON d   1       6.412   7.776  -0.241  0.00  0.00    -0.266 OA
ATOM      3  N2  NON d   1       7.480   5.756  -0.126  0.00  0.00    -0.356 N 
ATOM      4  H7  NON d   1       7.362   4.750  -0.089  0.00  0.00     0.162 HD
ENDROOT
BRANCH   1   5
ATOM      5  C8  NON d   1       5.050   5.867  -0.112  0.00  0.00     0.154 A 
ATOM      6  C7  NON d   1       3.792   6.518  -0.126  0.00  0.00     0.080 A 
ATOM      7  C6  NON d   1       2.854   5.519  -0.050  0.00  0.00     0.114 A 
ATOM      8  O4  NON d   1       3.513   4.322   0.005  0.00  0.00    -0.212 OA
ATOM      9  N4  NON d   1       4.893   4.534  -0.031  0.00  0.00    -0.122 NA
BRANCH   7  10
ATOM     10  C5  NON d   1       1.393   5.513  -0.015  0.00  0.00     0.002 A 
ATOM     11  C4  NON d   1       0.697   6.735   0.020  0.00  0.00     0.014 A 
ATOM     12  C3  NON d   1      -0.697   6.772   0.007  0.00  0.00     0.003 A 
ATOM     13  C2  NON d   1      -1.421   5.583  -0.021  0.00  0.00     0.023 A 
ATOM     14  C1  NON d   1      -0.763   4.352   0.008  0.00  0.00     0.006 A 
ATOM     15  C17 NON d   1       0.639   4.328  -0.040  0.00  0.00     0.037 A 
BRANCH  14  16
ATOM     16  N1  NON d   1      -1.501   3.170  -0.148  0.00  0.00    -0.303 NA
ATOM     17  H1  NON d   1      -2.456   3.232   0.194  0.00  0.00     0.124 HD
ATOM     18  H2  NON d   1      -1.022   2.343   0.193  0.00  0.00     0.124 HD
ENDBRANCH  14  16
ENDBRANCH   7  10
ENDBRANCH   1   5
BRANCH   3  19
ATOM     19  C10 NON d   1       8.782   6.385  -0.164  0.00  0.00     0.123 C 
BRANCH  19  20
ATOM     20  C11 NON d   1       9.975   5.466   0.086  0.00  0.00     0.020 C 
BRANCH  20  21
ATOM     21  C12 NON d   1      10.516   4.755  -1.161  0.00  0.00     0.002 C 
BRANCH  21  22
ATOM     22  C13 NON d   1       9.808   3.438  -1.464  0.00  0.00     0.001 C 
BRANCH  22  23
ATOM     23  C14 NON d   1      10.346   2.730  -2.717  0.00  0.00     0.009 C 
BRANCH  23  24
ATOM     24  C15 NON d   1      11.588   1.862  -2.489  0.00  0.00     0.105 C 
BRANCH  24  25
ATOM     25  C16 NON d   1      12.936   2.556  -2.613  0.00  0.00     0.240 C 
ATOM     26  O2  NON d   1      13.077   3.729  -2.938  0.00  0.00    -0.271 OA
ATOM     27  N3  NON d   1      13.976   1.668  -2.373  0.00  0.00    -0.237 N 
ATOM     28  H20 NON d   1      13.811   0.836  -1.816  0.00  0.00     0.197 HD
BRANCH  27  29
ATOM     29  O3  NON d   1      15.256   2.244  -2.216  0.00  0.00    -0.287 OA
ATOM     30  H21 NON d   1      15.664   2.080  -3.086  0.00  0.00     0.244 HD
ENDBRANCH  27  29
ENDBRANCH  24  25
ENDBRANCH  23  24
ENDBRANCH  22  23
ENDBRANCH  21  22
ENDBRANCH  20  21
ENDBRANCH  19  20
ENDBRANCH   3  19
TORSDOF 11
