REMARK  6 active torsions:
REMARK  status: ('A' for Active; 'I' for Inactive)
REMARK       I    between atoms: C1_2  and  N1_3 
REMARK    1  A    between atoms: C1_2  and  C2_5 
REMARK    2  A    between atoms: N1_3  and  O2_4 
REMARK    3  A    between atoms: C5_8  and  C6_9 
REMARK    4  A    between atoms: C6_9  and  N2_10 
REMARK    5  A    between atoms: C14_20  and  C15_21 
REMARK    6  A    between atoms: C15_21  and  C16_22 
ROOT
ATOM      1  N2  NON d   1       2.846   0.065  -0.181  0.00  0.00    -0.361 N 
ATOM      2  C7  NON d   1       3.970  -0.769  -0.322  0.00  0.00     0.058 C 
ATOM      3  C8  NON d   1       5.191  -0.335  -0.853  0.00  0.00     0.031 C 
ATOM      4  C9  NON d   1       6.343  -1.141  -0.855  0.00  0.00     0.002 C 
ATOM      5  C10 NON d   1       6.284  -2.455  -0.414  0.00  0.00     0.002 C 
ATOM      6  C11 NON d   1       5.056  -2.981  -0.050  0.00  0.00     0.032 C 
ATOM      7  C12 NON d   1       3.922  -2.157  -0.035  0.00  0.00     0.061 C 
ATOM      8  N3  NON d   1       2.700  -2.799   0.168  0.00  0.00    -0.323 N 
ATOM      9  C13 NON d   1       1.526  -2.110   0.139  0.00  0.00     0.245 C 
ATOM     10  O3  NON d   1       0.470  -2.720  -0.019  0.00  0.00    -0.271 OA
ATOM     11  C14 NON d   1       1.653  -0.615   0.489  0.00  0.00     0.181 C 
ATOM     12  H11 NON d   1       2.632  -3.802   0.071  0.00  0.00     0.169 HD
ENDROOT
BRANCH   1  13
ATOM     13  C6  NON d   1       2.898   1.521   0.156  0.00  0.00     0.162 C 
BRANCH  13  14
ATOM     14  C5  NON d   1       4.157   2.367   0.186  0.00  0.00    -0.040 A 
ATOM     15  C4  NON d   1       5.277   2.060   0.971  0.00  0.00     0.010 A 
ATOM     16  C3  NON d   1       6.417   2.880   0.947  0.00  0.00     0.017 A 
ATOM     17  C2  NON d   1       6.421   4.077   0.218  0.00  0.00     0.034 A 
ATOM     18  C23 NON d   1       5.275   4.438  -0.495  0.00  0.00     0.017 A 
ATOM     19  C22 NON d   1       4.161   3.592  -0.508  0.00  0.00     0.010 A 
BRANCH  17  20
ATOM     20  C1  NON d   1       7.662   4.910   0.197  0.00  0.00     0.275 C 
ATOM     21  O1  NON d   1       8.758   4.385   0.344  0.00  0.00    -0.265 OA
ATOM     22  N1  NON d   1       7.474   6.265   0.011  0.00  0.00    -0.233 N 
ATOM     23  H1  NON d   1       6.584   6.685  -0.215  0.00  0.00     0.197 HD
BRANCH  22  24
ATOM     24  O2  NON d   1       8.611   7.020  -0.350  0.00  0.00    -0.287 OA
ATOM     25  H2  NON d   1       9.106   7.059   0.489  0.00  0.00     0.244 HD
ENDBRANCH  22  24
ENDBRANCH  17  20
ENDBRANCH  13  14
ENDBRANCH   1  13
BRANCH  11  26
ATOM     26  C15 NON d   1       0.289   0.071   0.207  0.00  0.00     0.073 C 
BRANCH  26  27
ATOM     27  C16 NON d   1      -0.800  -0.099   1.262  0.00  0.00    -0.056 A 
ATOM     28  C17 NON d   1      -1.980   0.651   1.125  0.00  0.00     0.007 A 
ATOM     29  C18 NON d   1      -3.022   0.534   2.050  0.00  0.00     0.001 A 
ATOM     30  C19 NON d   1      -2.903  -0.339   3.127  0.00  0.00     0.000 A 
ATOM     31  C20 NON d   1      -1.746  -1.096   3.276  0.00  0.00     0.001 A 
ATOM     32  C21 NON d   1      -0.706  -0.978   2.351  0.00  0.00     0.007 A 
ENDBRANCH  26  27
ENDBRANCH  11  26
TORSDOF 6
