@<TRIPOS>MOLECULE
*****
 38 39 0 0 0
SMALL
USER_CHARGES

@<TRIPOS>ATOM
      1 O1         -0.4671    1.9128   -0.8578 O.2     1  NONAME1    -0.2688
      2 C1          0.4470    1.3238   -0.2866 C.2     1  NONAME1     0.2590
      3 C2          0.3809   -0.1457   -0.0726 C.2     1  NONAME1    -0.0015
      4 C3          1.3986   -0.9394    0.3025 C.2     1  NONAME1    -0.0759
      5 C4          1.3573   -2.4450    0.4936 C.3     1  NONAME1    -0.0224
      6 C5          2.4958   -3.0898   -0.3078 C.3     1  NONAME1    -0.0462
      7 C6          2.5610   -4.6016   -0.1017 C.3     1  NONAME1    -0.0457
      8 C7          1.2347   -5.3194   -0.4343 C.3     1  NONAME1    -0.0158
      9 C8          1.2743   -6.8379   -0.2177 C.ar    1  NONAME1    -0.0440
     10 C9          2.4771   -7.5422   -0.0293 C.ar    1  NONAME1    -0.0549
     11 C10         2.4903   -8.9314    0.1339 C.ar    1  NONAME1    -0.0199
     12 C11         1.3010   -9.6411    0.1074 C.ar    1  NONAME1     0.1169
     13 O2          1.3601  -10.9913    0.2760 O.3     1  NONAME1    -0.5068
     14 C12         0.0963   -8.9849   -0.0956 C.ar    1  NONAME1    -0.0199
     15 C13         0.0883   -7.5959   -0.2697 C.ar    1  NONAME1    -0.0549
     16 C14         0.0841   -4.6402    0.3432 C.3     1  NONAME1    -0.0457
     17 C15         0.0315   -3.1259    0.1302 C.3     1  NONAME1    -0.0462
     18 N1          1.5358    1.9771    0.2207 N.am    1  NONAME1    -0.1940
     19 O3          1.5132    3.3881    0.1335 O.3     1  NONAME1    -0.2949
     20 H1         -0.6026   -0.5493   -0.2936 H       1  NONAME1     0.0667
     21 H2          2.3782   -0.5052    0.4908 H       1  NONAME1     0.0576
     22 H3          1.5467   -2.6265    1.5609 H       1  NONAME1     0.0343
     23 H4          2.3716   -2.8769   -1.3777 H       1  NONAME1     0.0271
     24 H5          3.4594   -2.6559   -0.0111 H       1  NONAME1     0.0271
     25 H6          3.3702   -4.9848   -0.7348 H       1  NONAME1     0.0271
     26 H7          2.8436   -4.8053    0.9400 H       1  NONAME1     0.0271
     27 H8          1.0484   -5.1747   -1.5082 H       1  NONAME1     0.0349
     28 H9          3.4375   -7.0355   -0.0094 H       1  NONAME1     0.0622
     29 H10         3.4320   -9.4544    0.2773 H       1  NONAME1     0.0654
     30 H11         0.4583  -11.3482    0.2381 H       1  NONAME1     0.2921
     31 H12        -0.8422   -9.5284   -0.1291 H       1  NONAME1     0.0654
     32 H13        -0.8705   -7.1186   -0.4548 H       1  NONAME1     0.0622
     33 H14         0.1838   -4.8536    1.4154 H       1  NONAME1     0.0271
     34 H15        -0.8870   -5.0419    0.0344 H       1  NONAME1     0.0271
     35 H16        -0.7839   -2.7170    0.7394 H       1  NONAME1     0.0271
     36 H17        -0.2215   -2.9258   -0.9195 H       1  NONAME1     0.0271
     37 H18         2.1937    1.5755    0.8757 H       1  NONAME1     0.1825
     38 H19         0.6598    3.5550   -0.3244 H       1  NONAME1     0.2414
@<TRIPOS>BOND
     1     1     2    2
     2     2     3    1
     3     3     4    2
     4     4     5    1
     5     5     6    1
     6     6     7    1
     7     7     8    1
     8     8     9    1
     9     9    10   ar
    10    10    11   ar
    11    11    12   ar
    12    12    13    1
    13    12    14   ar
    14    14    15   ar
    15     9    15   ar
    16     8    16    1
    17    16    17    1
    18     5    17    1
    19     2    18   am
    20    18    19    1
    21     3    20    1
    22     4    21    1
    23     5    22    1
    24     6    23    1
    25     6    24    1
    26     7    25    1
    27     7    26    1
    28     8    27    1
    29    10    28    1
    30    11    29    1
    31    13    30    1
    32    14    31    1
    33    15    32    1
    34    16    33    1
    35    16    34    1
    36    17    35    1
    37    17    36    1
    38    18    37    1
    39    19    38    1
