REMARK  9 active torsions:
REMARK  status: ('A' for Active; 'I' for Inactive)
REMARK    1  A    between atoms: N3_3  and  C1_4 
REMARK    2  A    between atoms: C1_4  and  C2_5 
REMARK    3  A    between atoms: C2_5  and  O1_6 
REMARK    4  A    between atoms: O1_6  and  C3_7 
REMARK    5  A    between atoms: C6_10  and  C7_11 
REMARK       I    between atoms: C7_11  and  N4_13 
REMARK    6  A    between atoms: N4_13  and  C8_14 
REMARK    7  A    between atoms: C10_16  and  C11_17 
REMARK    8  A    between atoms: C17_24  and  N5_25 
REMARK    9  A    between atoms: C19_27  and  N6_28 
ROOT
ATOM      1  N1  NON d   1       9.330  17.307  -0.199  0.00  0.00     0.068 N 
ATOM      2  N2  NON d   1       8.361  16.851   0.194  0.00  0.00    -0.168 NA
ATOM      3  N3  NON d   1       7.299  16.352   0.620  0.00  0.00    -0.113 NA
ENDROOT
BRANCH   3   4
ATOM      4  C1  NON d   1       7.123  14.914   0.365  0.00  0.00     0.216 C 
BRANCH   4   5
ATOM      5  C2  NON d   1       5.652  14.525   0.571  0.00  0.00     0.200 C 
BRANCH   5   6
ATOM      6  O1  NON d   1       5.422  13.263  -0.073  0.00  0.00    -0.347 OA
BRANCH   6   7
ATOM      7  C3  NON d   1       4.173  12.700   0.027  0.00  0.00     0.100 A 
ATOM      8  C4  NON d   1       4.176  11.294   0.103  0.00  0.00     0.040 A 
ATOM      9  C5  NON d   1       2.984  10.550   0.187  0.00  0.00     0.020 A 
ATOM     10  C6  NON d   1       1.760  11.214   0.194  0.00  0.00     0.034 A 
ATOM     11  C18 NON d   1       1.759  12.619   0.082  0.00  0.00     0.054 A 
ATOM     12  C19 NON d   1       2.941  13.371  -0.026  0.00  0.00     0.127 A 
BRANCH  10  13
ATOM     13  C7  NON d   1       0.426  10.561   0.383  0.00  0.00     0.256 C 
ATOM     14  O2  NON d   1      -0.439  11.263   0.909  0.00  0.00    -0.267 OA
ATOM     15  N4  NON d   1       0.240   9.243  -0.015  0.00  0.00    -0.321 N 
ATOM     16  H7  NON d   1       1.057   8.695  -0.242  0.00  0.00     0.169 HD
BRANCH  15  17
ATOM     17  C8  NON d   1      -1.013   8.530  -0.028  0.00  0.00     0.057 A 
ATOM     18  C9  NON d   1      -0.951   7.109  -0.012  0.00  0.00     0.044 A 
ATOM     19  C10 NON d   1      -2.111   6.294  -0.004  0.00  0.00    -0.017 A 
ATOM     20  C15 NON d   1      -3.347   6.949  -0.039  0.00  0.00     0.014 A 
ATOM     21  C16 NON d   1      -3.431   8.336  -0.104  0.00  0.00     0.026 A 
ATOM     22  C17 NON d   1      -2.288   9.144  -0.073  0.00  0.00     0.033 A 
BRANCH  19  23
ATOM     23  C11 NON d   1      -2.041   4.803   0.019  0.00  0.00     0.015 A 
ATOM     24  C12 NON d   1      -0.941   3.958   0.017  0.00  0.00     0.020 A 
ATOM     25  C13 NON d   1      -1.286   2.572   0.024  0.00  0.00     0.008 A 
ATOM     26  C14 NON d   1      -2.645   2.373   0.040  0.00  0.00     0.050 A 
ATOM     27  S1  NON d   1      -3.489   3.847   0.049  0.00  0.00    -0.101 SA
ENDBRANCH  19  23
BRANCH  22  28
ATOM     28  N5  NON d   1      -2.496  10.506  -0.384  0.00  0.00    -0.301 NA
ATOM     29  H14 NON d   1      -1.760  11.077   0.042  0.00  0.00     0.124 HD
ATOM     30  H15 NON d   1      -3.396  10.847  -0.066  0.00  0.00     0.124 HD
ENDBRANCH  22  28
ENDBRANCH  15  17
ENDBRANCH  10  13
BRANCH  12  31
ATOM     31  N6  NON d   1       2.801  14.761  -0.173  0.00  0.00    -0.070 NA
ATOM     32  N7  NON d   1       2.958  15.132  -1.355  0.00  0.00    -0.162 NA
ATOM     33  N8  NON d   1       3.116  15.492  -2.425  0.00  0.00     0.068 N 
ENDBRANCH  12  31
ENDBRANCH   6   7
ENDBRANCH   5   6
ENDBRANCH   4   5
ENDBRANCH   3   4
TORSDOF 9
