@<TRIPOS>MOLECULE
*****
 36 37 0 0 0
SMALL
USER_CHARGES

@<TRIPOS>ATOM
      1 O1         -3.6218   -1.1907   -0.0552 O.2     1  NONAME1    -0.2681
      2 C1         -3.6450   -2.4204   -0.0386 C.2     1  NONAME1     0.2665
      3 N1         -4.8365   -3.1070   -0.0296 N.am    1  NONAME1    -0.1935
      4 O2         -6.0062   -2.3130    0.0008 O.3     1  NONAME1    -0.2949
      5 C2         -2.3767   -3.2080   -0.0180 C.ar    1  NONAME1     0.0387
      6 C3         -1.1635   -2.5011    0.0069 C.ar    1  NONAME1    -0.0489
      7 C4          0.0685   -3.1730    0.0273 C.ar    1  NONAME1    -0.0489
      8 C5          0.1048   -4.5706    0.0207 C.ar    1  NONAME1     0.0367
      9 C6          1.3631   -5.3779    0.0491 C.2     1  NONAME1     0.2441
     10 O3          1.2929   -6.6028    0.1049 O.2     1  NONAME1    -0.2702
     11 N2          2.5780   -4.7190    0.0038 N.am    1  NONAME1    -0.3110
     12 C7          3.8053   -5.4970   -0.0001 C.3     1  NONAME1     0.0159
     13 C8          5.0708   -4.6378   -0.0439 C.3     1  NONAME1    -0.0120
     14 C9          6.3877   -5.3841   -0.0313 C.ar    1  NONAME1    -0.0430
     15 C10         7.5775   -4.6451   -0.0128 C.ar    1  NONAME1    -0.0404
     16 C11         8.7919   -5.3168   -0.0056 C.ar    1  NONAME1     0.0278
     17 N3          8.9062   -6.6598   -0.0163 N.ar    1  NONAME1    -0.2632
     18 C12         7.7535   -7.3598   -0.0355 C.ar    1  NONAME1     0.0278
     19 C13         6.4922   -6.7786   -0.0447 C.ar    1  NONAME1    -0.0404
     20 C14        -1.1101   -5.2747   -0.0057 C.ar    1  NONAME1    -0.0489
     21 C15        -2.3402   -4.6051   -0.0260 C.ar    1  NONAME1    -0.0489
     22 H1         -4.9681   -4.1048    0.0657 H       1  NONAME1     0.1825
     23 H2         -5.6343   -1.4032   -0.0029 H       1  NONAME1     0.2414
     24 H3         -1.1705   -1.4111    0.0130 H       1  NONAME1     0.0625
     25 H4          0.9701   -2.5717    0.0548 H       1  NONAME1     0.0625
     26 H5          2.6329   -3.7180   -0.1036 H       1  NONAME1     0.1490
     27 H6          3.7638   -6.1645   -0.8695 H       1  NONAME1     0.0465
     28 H7          3.7978   -6.1243    0.9000 H       1  NONAME1     0.0465
     29 H8          5.0570   -3.9531    0.8144 H       1  NONAME1     0.0328
     30 H9          5.0402   -4.0156   -0.9481 H       1  NONAME1     0.0328
     31 H10         7.5660   -3.5600   -0.0052 H       1  NONAME1     0.0635
     32 H11         9.7322   -4.7732    0.0085 H       1  NONAME1     0.0829
     33 H12         7.8687   -8.4402   -0.0439 H       1  NONAME1     0.0829
     34 H13         5.6245   -7.4292   -0.0614 H       1  NONAME1     0.0635
     35 H14        -1.1069   -6.3649   -0.0107 H       1  NONAME1     0.0625
     36 H15        -3.2393   -5.2108   -0.0505 H       1  NONAME1     0.0625
@<TRIPOS>BOND
     1     1     2    2
     2     2     3   am
     3     3     4    1
     4     2     5    1
     5     5     6   ar
     6     6     7   ar
     7     7     8   ar
     8     8     9    1
     9     9    10    2
    10     9    11   am
    11    11    12    1
    12    12    13    1
    13    13    14    1
    14    14    15   ar
    15    15    16   ar
    16    16    17   ar
    17    17    18   ar
    18    18    19   ar
    19    14    19   ar
    20     8    20   ar
    21    20    21   ar
    22     5    21   ar
    23     3    22    1
    24     4    23    1
    25     6    24    1
    26     7    25    1
    27    11    26    1
    28    12    27    1
    29    12    28    1
    30    13    29    1
    31    13    30    1
    32    15    31    1
    33    16    32    1
    34    18    33    1
    35    19    34    1
    36    20    35    1
    37    21    36    1
