REMARK  6 active torsions:
REMARK  status: ('A' for Active; 'I' for Inactive)
REMARK       I    between atoms: C1_2  and  N1_3 
REMARK    1  A    between atoms: C1_2  and  C2_5 
REMARK    2  A    between atoms: N1_3  and  O2_4 
REMARK    3  A    between atoms: C4_8  and  N3_9 
REMARK    4  A    between atoms: C9_14  and  N4_15 
REMARK    5  A    between atoms: N4_15  and  C10_16 
REMARK    6  A    between atoms: C10_16  and  C11_17 
ROOT
ATOM      1  N3  NON d   1      -4.416  -7.160  -0.416  0.00  0.00    -0.213 N 
ATOM      2  C5  NON d   1      -4.371  -5.796   0.092  0.00  0.00     0.148 C 
ATOM      3  C6  NON d   1      -2.929  -5.610   0.481  0.00  0.00     0.043 A 
ATOM      4  C7  NON d   1      -2.249  -6.935   0.385  0.00  0.00     0.043 A 
ATOM      5  C8  NON d   1      -3.243  -7.954  -0.081  0.00  0.00     0.148 C 
ATOM      6  C9  NON d   1      -1.811  -5.808  -0.511  0.00  0.00     0.198 A 
ENDROOT
BRANCH   6   7
ATOM      7  N4  NON d   1      -0.517  -5.177  -0.155  0.00  0.00    -0.065 N 
ATOM      8  H11 NON d   1      -0.063  -5.764   0.562  0.00  0.00     0.278 HD
ATOM      9  H12 NON d   1      -0.677  -4.251   0.254  0.00  0.00     0.278 HD
BRANCH   7  10
ATOM     10  C10 NON d   1       0.496  -5.083  -1.256  0.00  0.00     0.291 C 
BRANCH  10  11
ATOM     11  C11 NON d   1       1.200  -6.392  -1.538  0.00  0.00     0.060 A 
ATOM     12  C12 NON d   1       2.115  -6.478  -2.579  0.00  0.00     0.030 A 
ATOM     13  C13 NON d   1       2.749  -7.694  -2.803  0.00  0.00     0.016 A 
ATOM     14  C14 NON d   1       2.456  -8.795  -1.993  0.00  0.00    -0.004 A 
ATOM     15  C15 NON d   1       3.066 -10.041  -2.209  0.00  0.00     0.056 A 
ATOM     16  C19 NON d   1       1.523  -8.622  -0.944  0.00  0.00     0.067 A 
ATOM     17  C16 NON d   1       2.747 -11.116  -1.392  0.00  0.00     0.117 A 
ATOM     18  F1  NON d   1       3.327 -12.303  -1.603  0.00  0.00    -0.206 F 
ATOM     19  C17 NON d   1       1.833 -10.969  -0.360  0.00  0.00     0.044 A 
ATOM     20  C18 NON d   1       1.234  -9.722  -0.143  0.00  0.00     0.035 A 
ATOM     21  N5  NON d   1       0.916  -7.437  -0.711  0.00  0.00    -0.251 NA
ENDBRANCH  10  11
ENDBRANCH   7  10
ENDBRANCH   6   7
BRANCH   1  22
ATOM     22  C4  NON d   1      -5.637  -7.807  -0.350  0.00  0.00     0.724 A 
ATOM     23  N2  NON d   1      -6.756  -7.072  -0.257  0.00  0.00    -0.074 NA
ATOM     24  C3  NON d   1      -7.936  -7.733  -0.163  0.00  0.00     0.155 A 
ATOM     25  C2  NON d   1      -8.051  -9.105  -0.159  0.00  0.00     0.070 A 
ATOM     26  C20 NON d   1      -6.856  -9.771  -0.268  0.00  0.00     0.155 A 
ATOM     27  N6  NON d   1      -5.656  -9.151  -0.369  0.00  0.00    -0.074 NA
BRANCH  25  28
ATOM     28  C1  NON d   1      -9.375  -9.735  -0.036  0.00  0.00     0.277 C 
ATOM     29  O1  NON d   1     -10.382  -9.040   0.080  0.00  0.00    -0.265 OA
ATOM     30  N1  NON d   1      -9.455 -11.108  -0.057  0.00  0.00    -0.233 N 
ATOM     31  H1  NON d   1      -8.710 -11.777  -0.209  0.00  0.00     0.197 HD
BRANCH  30  32
ATOM     32  O2  NON d   1     -10.759 -11.648   0.025  0.00  0.00    -0.287 OA
ATOM     33  H2  NON d   1     -11.318 -10.841   0.080  0.00  0.00     0.244 HD
ENDBRANCH  30  32
ENDBRANCH  25  28
ENDBRANCH   1  22
TORSDOF 6
