@<TRIPOS>MOLECULE
*****
 62 65 0 0 0
SMALL
USER_CHARGES

@<TRIPOS>ATOM
      1 C1          1.3337  -10.0100    0.0000 C.3     1  NONAME1    -0.0431
      2 N1          1.3337  -11.5500    0.0000 N.4     1  NONAME1     0.2341
      3 C2          2.4551  -12.3236   -0.6383 C.3     1  NONAME1    -0.0200
      4 C3          1.9806  -13.7854   -0.6382 C.3     1  NONAME1     0.0873
      5 C4          2.9593  -14.6611    0.1440 C.2     1  NONAME1     0.2262
      6 O1          2.6401  -15.1554    1.2181 O.2     1  NONAME1    -0.2749
      7 N2          4.1907  -14.8420   -0.4623 N.am    1  NONAME1    -0.2851
      8 C5          5.0704  -15.9146   -0.1807 C.ar    1  NONAME1     0.0335
      9 C6          6.4228  -15.7681   -0.5097 C.ar    1  NONAME1    -0.0391
     10 C7          7.3147  -16.8316   -0.3280 C.ar    1  NONAME1    -0.0416
     11 C8          6.8502  -18.0551    0.1485 C.ar    1  NONAME1     0.0411
     12 Cl1         7.9362  -19.3768    0.3207 Cl      1  NONAME1    -0.0835
     13 C9          5.5065  -18.2139    0.4732 C.ar    1  NONAME1    -0.0416
     14 C10         4.6209  -17.1404    0.3240 C.ar    1  NONAME1    -0.0391
     15 C11         0.5603  -13.7688    0.0086 C.3     1  NONAME1     0.0429
     16 C12        -0.3834  -14.9279   -0.2809 C.ar    1  NONAME1    -0.0031
     17 C13         0.0774  -16.2419   -0.4625 C.ar    1  NONAME1    -0.0548
     18 C14        -0.8082  -17.3398   -0.4715 C.ar    1  NONAME1    -0.0542
     19 C15        -2.1886  -17.1722   -0.3002 C.ar    1  NONAME1    -0.0221
     20 C16        -3.0592  -18.3711   -0.1826 C.2     1  NONAME1    -0.0496
     21 C17        -4.4022  -18.3418   -0.1784 C.2     1  NONAME1     0.0010
     22 C18        -5.3875  -19.4511    0.0420 C.2     1  NONAME1     0.2411
     23 O2         -6.5067  -19.1167    0.4231 O.2     1  NONAME1    -0.2705
     24 N3         -4.9499  -20.7286   -0.1965 N.am    1  NONAME1    -0.2804
     25 C19        -5.6908  -21.9500   -0.1315 C.ar    1  NONAME1     0.0545
     26 C20        -4.9042  -23.1180   -0.0869 C.ar    1  NONAME1    -0.0387
     27 C21        -5.4811  -24.3902   -0.0251 C.ar    1  NONAME1    -0.0599
     28 C22        -6.8612  -24.5231   -0.0360 C.ar    1  NONAME1    -0.0599
     29 C23        -7.6571  -23.3822   -0.1057 C.ar    1  NONAME1    -0.0392
     30 C24        -7.0998  -22.0874   -0.1167 C.ar    1  NONAME1     0.0461
     31 N4         -7.9940  -21.0346   -0.3959 N.pl3   1  NONAME1    -0.3565
     32 C25        -2.6537  -15.8607   -0.1543 C.ar    1  NONAME1    -0.0190
     33 C26        -1.7680  -14.7750   -0.1465 C.ar    1  NONAME1     0.1276
     34 F1         -2.2804  -13.5544    0.0639 F       1  NONAME1    -0.2052
     35 C27         0.0777  -12.3322   -0.2923 C.3     1  NONAME1    -0.0242
     36 H1          2.4324   -9.9125   -0.0457 H       1  NONAME1     0.0777
     37 H2          1.3337   -8.4700    0.0000 H       1  NONAME1     0.0777
     38 H3          0.9254   -9.9245   -1.0224 H       1  NONAME1     0.0777
     39 H4          1.4688  -11.7110    1.0113 H       1  NONAME1     0.2031
     40 H5          2.5774  -11.9398   -1.6557 H       1  NONAME1     0.0822
     41 H6          3.3594  -12.1379   -0.0496 H       1  NONAME1     0.0822
     42 H7          1.9321  -14.1613   -1.6679 H       1  NONAME1     0.0455
     43 H8          4.5586  -14.1408   -1.0927 H       1  NONAME1     0.1548
     44 H9          6.8136  -14.8273   -0.8871 H       1  NONAME1     0.0636
     45 H10         8.3680  -16.7042   -0.5667 H       1  NONAME1     0.0633
     46 H11         5.1384  -19.1721    0.8323 H       1  NONAME1     0.0633
     47 H12         3.5760  -17.3077    0.5687 H       1  NONAME1     0.0636
     48 H13         0.6803  -13.8109    1.1034 H       1  NONAME1     0.0411
     49 H14         1.1378  -16.4726   -0.5316 H       1  NONAME1     0.0621
     50 H15        -0.3860  -18.3403   -0.5699 H       1  NONAME1     0.0624
     51 H16        -2.5350  -19.3099   -0.0339 H       1  NONAME1     0.0625
     52 H17        -4.9354  -17.4015   -0.2836 H       1  NONAME1     0.0670
     53 H18        -3.9677  -20.8454   -0.3908 H       1  NONAME1     0.1552
     54 H19        -3.8191  -23.0552   -0.0866 H       1  NONAME1     0.0637
     55 H20        -4.8519  -25.2752    0.0180 H       1  NONAME1     0.0618
     56 H21        -7.3223  -25.5073   -0.0152 H       1  NONAME1     0.0618
     57 H22        -8.7367  -23.5050   -0.1690 H       1  NONAME1     0.0636
     58 H23        -7.6176  -20.1347   -0.0778 H       1  NONAME1     0.1424
     59 H24        -8.9192  -21.1776   -0.0072 H       1  NONAME1     0.1424
     60 H25        -3.7049  -15.6436    0.0106 H       1  NONAME1     0.0652
     61 H26        -0.1907  -12.1730   -1.3417 H       1  NONAME1     0.0820
     62 H27        -0.6984  -11.9670    0.3842 H       1  NONAME1     0.0820
@<TRIPOS>BOND
     1     1     2    1
     2     2     3    1
     3     4     3    1
     4     4     5    1
     5     5     6    2
     6     5     7   am
     7     7     8    1
     8     8     9   ar
     9     9    10   ar
    10    10    11   ar
    11    11    12    1
    12    11    13   ar
    13    13    14   ar
    14     8    14   ar
    15     4    15    1
    16    15    16    1
    17    16    17   ar
    18    17    18   ar
    19    18    19   ar
    20    19    20    1
    21    20    21    2
    22    21    22    1
    23    22    23    2
    24    22    24   am
    25    24    25    1
    26    25    26   ar
    27    26    27   ar
    28    27    28   ar
    29    28    29   ar
    30    29    30   ar
    31    25    30   ar
    32    30    31    1
    33    19    32   ar
    34    32    33   ar
    35    16    33   ar
    36    33    34    1
    37    15    35    1
    38     2    35    1
    39     1    36    1
    40     1    37    1
    41     1    38    1
    42     2    39    1
    43     3    40    1
    44     3    41    1
    45     4    42    1
    46     7    43    1
    47     9    44    1
    48    10    45    1
    49    13    46    1
    50    14    47    1
    51    15    48    1
    52    17    49    1
    53    18    50    1
    54    20    51    1
    55    21    52    1
    56    24    53    1
    57    26    54    1
    58    27    55    1
    59    28    56    1
    60    29    57    1
    61    31    58    1
    62    31    59    1
    63    32    60    1
    64    35    61    1
    65    35    62    1
