REMARK  8 active torsions:
REMARK  status: ('A' for Active; 'I' for Inactive)
REMARK    1  A    between atoms: N1_1  and  C1_2 
REMARK    2  A    between atoms: C6_7  and  N2_8 
REMARK       I    between atoms: N2_8  and  C7_9 
REMARK    3  A    between atoms: C7_9  and  C8_11 
REMARK    4  A    between atoms: C11_14  and  C12_15 
REMARK    5  A    between atoms: C12_15  and  C13_16 
REMARK    6  A    between atoms: C12_15  and  C20_25 
REMARK       I    between atoms: C13_16  and  N3_18 
REMARK    7  A    between atoms: N3_18  and  C14_19 
REMARK       I    between atoms: C20_25  and  N4_27 
REMARK    8  A    between atoms: N4_27  and  C21_28 
ROOT
ATOM      1  C12 NON d   1       7.698  -3.106   0.242  0.00  0.00     0.203 C 
ENDROOT
BRANCH   1   2
ATOM      2  C11 NON d   1       8.515  -1.818   0.021  0.00  0.00    -0.036 A 
ATOM      3  C10 NON d   1       9.714  -1.763  -0.703  0.00  0.00     0.009 A 
ATOM      4  C9  NON d   1      10.454  -0.572  -0.776  0.00  0.00     0.017 A 
ATOM      5  C8  NON d   1       9.992   0.611  -0.180  0.00  0.00     0.032 A 
ATOM      6  C28 NON d   1       8.776   0.580   0.506  0.00  0.00     0.017 A 
ATOM      7  C27 NON d   1       8.060  -0.620   0.612  0.00  0.00     0.009 A 
BRANCH   5   8
ATOM      8  C7  NON d   1      10.855   1.833  -0.267  0.00  0.00     0.256 C 
ATOM      9  N2  NON d   1      10.224   3.047  -0.091  0.00  0.00    -0.321 N 
ATOM     10  H7  NON d   1       9.216   3.083   0.007  0.00  0.00     0.169 HD
ATOM     11  O1  NON d   1      12.049   1.669  -0.499  0.00  0.00    -0.267 OA
BRANCH   9  12
ATOM     12  C6  NON d   1      10.814   4.332  -0.038  0.00  0.00     0.056 A 
ATOM     13  C5  NON d   1      12.190   4.567  -0.076  0.00  0.00     0.031 A 
ATOM     14  C4  NON d   1      12.683   5.872   0.000  0.00  0.00     0.002 A 
ATOM     15  C3  NON d   1      11.807   6.952   0.106  0.00  0.00     0.002 A 
ATOM     16  C2  NON d   1      10.431   6.730   0.138  0.00  0.00     0.025 A 
ATOM     17  C1  NON d   1       9.927   5.425   0.093  0.00  0.00     0.033 A 
BRANCH  17  18
ATOM     18  N1  NON d   1       8.526   5.208   0.000  0.00  0.00    -0.301 NA
ATOM     19  H1  NON d   1       8.007   6.040   0.276  0.00  0.00     0.124 HD
ATOM     20  H2  NON d   1       8.286   4.975  -0.964  0.00  0.00     0.124 HD
ENDBRANCH  17  18
ENDBRANCH   9  12
ENDBRANCH   5   8
ENDBRANCH   1   2
BRANCH   1  21
ATOM     21  C13 NON d   1       6.229  -2.994  -0.250  0.00  0.00     0.239 C 
ATOM     22  O2  NON d   1       5.766  -1.944  -0.695  0.00  0.00    -0.272 OA
ATOM     23  N3  NON d   1       5.477  -4.139  -0.018  0.00  0.00    -0.326 N 
ATOM     24  H11 NON d   1       6.000  -5.011   0.009  0.00  0.00     0.169 HD
BRANCH  23  25
ATOM     25  C14 NON d   1       4.076  -4.273  -0.067  0.00  0.00     0.034 A 
ATOM     26  C15 NON d   1       3.552  -5.569   0.023  0.00  0.00     0.029 A 
ATOM     27  C16 NON d   1       2.170  -5.784   0.022  0.00  0.00     0.002 A 
ATOM     28  C17 NON d   1       1.299  -4.700  -0.066  0.00  0.00     0.000 A 
ATOM     29  C18 NON d   1       1.811  -3.408  -0.146  0.00  0.00     0.002 A 
ATOM     30  C19 NON d   1       3.194  -3.196  -0.143  0.00  0.00     0.029 A 
ENDBRANCH  23  25
ENDBRANCH   1  21
BRANCH   1  31
ATOM     31  C20 NON d   1       8.357  -4.423  -0.187  0.00  0.00     0.239 C 
ATOM     32  O3  NON d   1       7.758  -5.222  -0.907  0.00  0.00    -0.272 OA
ATOM     33  N4  NON d   1       9.596  -4.678   0.386  0.00  0.00    -0.326 N 
ATOM     34  H17 NON d   1      10.080  -3.897   0.815  0.00  0.00     0.169 HD
BRANCH  33  35
ATOM     35  C21 NON d   1      10.343  -5.871   0.246  0.00  0.00     0.034 A 
ATOM     36  C22 NON d   1      11.717  -5.814   0.507  0.00  0.00     0.029 A 
ATOM     37  C23 NON d   1      12.515  -6.954   0.366  0.00  0.00     0.002 A 
ATOM     38  C24 NON d   1      11.943  -8.168  -0.008  0.00  0.00     0.000 A 
ATOM     39  C25 NON d   1      10.573  -8.240  -0.243  0.00  0.00     0.002 A 
ATOM     40  C26 NON d   1       9.778  -7.096  -0.121  0.00  0.00     0.029 A 
ENDBRANCH  33  35
ENDBRANCH   1  31
TORSDOF 8
