@<TRIPOS>MOLECULE
*****
 74 76 0 0 0
SMALL
USER_CHARGES

@<TRIPOS>ATOM
      1 C1          5.0213    2.1037    1.0765 C.3     1  NONAME1     0.0788
      2 O1          4.7083    1.1275    2.2258 O.3     1  NONAME1    -0.4951
      3 C2          3.3619    1.0387    2.4249 C.ar    1  NONAME1     0.1204
      4 C3          3.1715    0.3103    3.5856 C.ar    1  NONAME1    -0.0199
      5 C4          1.9546   -0.2103    3.7846 C.ar    1  NONAME1    -0.0580
      6 C5          1.0285   -0.0410    2.7479 C.ar    1  NONAME1    -0.0562
      7 C6          1.0786    0.6992    1.2908 C.ar    1  NONAME1    -0.0184
      8 C7         -0.2378    0.3228   -0.3687 C.3     1  NONAME1     0.0738
      9 O2         -0.7931   -1.2208   -1.0447 O.3     1  NONAME1    -0.3628
     10 C8         -1.3337   -2.3100    0.0000 C.3     1  NONAME1     0.1352
     11 C9         -2.2938   -3.4643   -0.6652 C.3     1  NONAME1    -0.0180
     12 C10        -3.5616   -3.0379   -1.4520 C.3     1  NONAME1    -0.0502
     13 C11        -4.8057   -3.8999   -1.1499 C.3     1  NONAME1    -0.0525
     14 C12        -5.7378   -3.3801   -0.0392 C.3     1  NONAME1    -0.0447
     15 C13        -5.3075   -3.7228    1.3886 C.3     1  NONAME1     0.0259
     16 C14        -6.4215   -3.4803    2.4058 C.2     1  NONAME1     0.2354
     17 O3         -7.4877   -2.9444    2.1211 O.2     1  NONAME1    -0.2737
     18 N1         -6.0846   -3.9385    3.6644 N.am    1  NONAME1    -0.1975
     19 O4         -7.0370   -3.7386    4.6855 O.3     1  NONAME1    -0.2952
     20 C15         0.0000   -3.0800    0.0000 C.2     1  NONAME1     0.2490
     21 O5          0.0426   -4.3188   -0.0840 O.2     1  NONAME1    -0.2724
     22 N2          1.1817   -2.4449    0.2700 N.am    1  NONAME1    -0.2650
     23 C16         2.5042   -3.1572    0.1143 C.3     1  NONAME1     0.0450
     24 C17         3.9469   -2.5966    0.0895 C.ar    1  NONAME1    -0.0263
     25 C18         4.2783   -1.2573    0.0721 C.ar    1  NONAME1    -0.0568
     26 C19         5.5314   -0.7600   -0.2939 C.ar    1  NONAME1    -0.0580
     27 C20         6.6005   -1.6092   -0.4183 C.ar    1  NONAME1    -0.0199
     28 C21         6.4007   -2.9579   -0.1698 C.ar    1  NONAME1     0.1204
     29 O6          7.4426   -3.8504   -0.0905 O.3     1  NONAME1    -0.4951
     30 C22         8.7358   -3.2566    0.1020 C.3     1  NONAME1     0.0788
     31 C23         5.0766   -3.4533    0.0051 C.ar    1  NONAME1    -0.0153
     32 C24         0.9228   -1.1086    0.3884 C.ar    1  NONAME1     0.0367
     33 C25        -0.6122   -0.5253    1.3252 C.ar    1  NONAME1    -0.0403
     34 C26        -0.9862    1.2541    1.3453 C.ar    1  NONAME1    -0.0600
     35 C27        -0.0344    2.3465    0.2858 C.ar    1  NONAME1    -0.0616
     36 C28         1.2876    1.7557   -0.7494 C.ar    1  NONAME1    -0.0600
     37 C29         1.7716    0.0329   -0.7121 C.ar    1  NONAME1    -0.0403
     38 C30         2.3742    1.3757    1.4130 C.ar    1  NONAME1    -0.0146
     39 H1          6.1092    1.9167    1.1320 H       1  NONAME1     0.0660
     40 H2          5.3343    3.0799   -0.0727 H       1  NONAME1     0.0660
     41 H3          4.8323    3.0098    1.6865 H       1  NONAME1     0.0660
     42 H4          3.9966    0.0837    4.2523 H       1  NONAME1     0.0654
     43 H5          1.7523   -0.8719    4.6209 H       1  NONAME1     0.0619
     44 H6          0.2188   -0.6948    3.0894 H       1  NONAME1     0.0621
     45 H7         -0.0247    0.6256   -1.4415 H       1  NONAME1     0.0610
     46 H8         -1.2829    0.7441   -0.4450 H       1  NONAME1     0.0610
     47 H9         -2.6674   -1.5400    0.0000 H       1  NONAME1     0.0693
     48 H10        -2.6070   -4.0847    0.1868 H       1  NONAME1     0.0295
     49 H11        -1.7434   -4.1093   -1.3592 H       1  NONAME1     0.0295
     50 H12        -3.8305   -1.9819   -1.3653 H       1  NONAME1     0.0266
     51 H13        -3.3216   -3.1746   -2.5148 H       1  NONAME1     0.0266
     52 H14        -4.5287   -4.9436   -0.9615 H       1  NONAME1     0.0265
     53 H15        -5.4075   -3.9092   -2.0689 H       1  NONAME1     0.0265
     54 H16        -5.8803   -2.2967   -0.1351 H       1  NONAME1     0.0270
     55 H17        -6.7270   -3.8267   -0.2126 H       1  NONAME1     0.0270
     56 H18        -5.0298   -4.7816    1.4485 H       1  NONAME1     0.0359
     57 H19        -4.4426   -3.1174    1.6788 H       1  NONAME1     0.0359
     58 H20        -5.1356   -4.1786    3.9255 H       1  NONAME1     0.1822
     59 H21        -6.5045   -3.5818    5.4841 H       1  NONAME1     0.2414
     60 H22         2.4972   -3.9058    0.9191 H       1  NONAME1     0.0518
     61 H23         2.4084   -3.7186   -0.8251 H       1  NONAME1     0.0518
     62 H24         3.5615   -0.5314    0.3717 H       1  NONAME1     0.0621
     63 H25         5.6804    0.3003   -0.4440 H       1  NONAME1     0.0619
     64 H26         7.5666   -1.1782   -0.6544 H       1  NONAME1     0.0654
     65 H27         9.4348   -4.0343    0.4211 H       1  NONAME1     0.0660
     66 H28         9.1119   -2.8362   -0.8387 H       1  NONAME1     0.0660
     67 H29         8.7316   -2.4877    0.8872 H       1  NONAME1     0.0660
     68 H30         4.9463   -4.5294    0.0960 H       1  NONAME1     0.0657
     69 H31        -1.2364   -1.1753    1.9360 H       1  NONAME1     0.0636
     70 H32        -1.8194    1.6529    1.9134 H       1  NONAME1     0.0618
     71 H33        -0.2842    3.4061    0.2305 H       1  NONAME1     0.0618
     72 H34         1.7850    2.4212   -1.4575 H       1  NONAME1     0.0618
     73 H35         2.4635   -0.3417   -1.4641 H       1  NONAME1     0.0636
     74 H36         2.7691    2.0586    0.6738 H       1  NONAME1     0.0657
@<TRIPOS>BOND
     1     1     2    1
     2     2     3    1
     3     3     4   ar
     4     4     5   ar
     5     5     6   ar
     6     6     7   ar
     7     7     8    1
     8     8     9    1
     9     9    10    1
    10    10    11    1
    11    11    12    1
    12    12    13    1
    13    13    14    1
    14    14    15    1
    15    15    16    1
    16    16    17    2
    17    16    18   am
    18    18    19    1
    19    10    20    1
    20    20    21    2
    21    20    22   am
    22    22    23    1
    23    23    24    1
    24    24    25   ar
    25    25    26   ar
    26    26    27   ar
    27    27    28   ar
    28    28    29    1
    29    29    30    1
    30    28    31   ar
    31    24    31   ar
    32    22    32    1
    33    32    33   ar
    34    33    34   ar
    35    34    35   ar
    36    35    36   ar
    37    36    37   ar
    38    32    37   ar
    39     7    38   ar
    40     3    38   ar
    41     1    39    1
    42     1    40    1
    43     1    41    1
    44     4    42    1
    45     5    43    1
    46     6    44    1
    47     8    45    1
    48     8    46    1
    49    10    47    1
    50    11    48    1
    51    11    49    1
    52    12    50    1
    53    12    51    1
    54    13    52    1
    55    13    53    1
    56    14    54    1
    57    14    55    1
    58    15    56    1
    59    15    57    1
    60    18    58    1
    61    19    59    1
    62    23    60    1
    63    23    61    1
    64    25    62    1
    65    26    63    1
    66    27    64    1
    67    30    65    1
    68    30    66    1
    69    30    67    1
    70    31    68    1
    71    33    69    1
    72    34    70    1
    73    35    71    1
    74    36    72    1
    75    37    73    1
    76    38    74    1
