REMARK  5 active torsions:
REMARK  status: ('A' for Active; 'I' for Inactive)
REMARK    1  A    between atoms: O1_2  and  C2_3 
REMARK    2  A    between atoms: C5_6  and  C6_7 
REMARK    3  A    between atoms: C9_10  and  N1_11 
REMARK    4  A    between atoms: C10_12  and  N2_13 
REMARK       I    between atoms: N2_13  and  C11_14 
REMARK    5  A    between atoms: C11_14  and  C12_16 
ROOT
ATOM      1  C6  NON d   1       6.654 -11.144  -0.066  0.00  0.00    -0.024 A 
ATOM      2  C7  NON d   1       7.894 -11.797  -0.173  0.00  0.00     0.014 A 
ATOM      3  C8  NON d   1       8.015 -13.188  -0.203  0.00  0.00     0.026 A 
ATOM      4  C9  NON d   1       6.904 -14.023  -0.091  0.00  0.00     0.033 A 
ATOM      5  C10 NON d   1       5.627 -13.427  -0.017  0.00  0.00     0.057 A 
ATOM      6  C18 NON d   1       5.527 -12.003  -0.011  0.00  0.00     0.043 A 
ENDROOT
BRANCH   5   7
ATOM      7  N2  NON d   1       4.394 -14.157   0.019  0.00  0.00    -0.321 N 
ATOM      8  C11 NON d   1       4.216 -15.477   0.408  0.00  0.00     0.256 C 
ATOM      9  O2  NON d   1       5.073 -16.180   0.942  0.00  0.00    -0.267 OA
ATOM     10  H10 NON d   1       3.575 -13.625  -0.229  0.00  0.00     0.169 HD
BRANCH   8  11
ATOM     11  C12 NON d   1       2.882 -16.110   0.175  0.00  0.00     0.032 A 
ATOM     12  C13 NON d   1       2.848 -17.513   0.060  0.00  0.00     0.017 A 
ATOM     13  C14 NON d   1       1.643 -18.190  -0.127  0.00  0.00     0.001 A 
ATOM     14  C15 NON d   1       0.454 -17.471  -0.194  0.00  0.00     0.000 A 
ATOM     15  C16 NON d   1       0.473 -16.081  -0.078  0.00  0.00     0.001 A 
ATOM     16  C17 NON d   1       1.682 -15.397   0.107  0.00  0.00     0.017 A 
ENDBRANCH   8  11
ENDBRANCH   5   7
BRANCH   4  17
ATOM     17  N1  NON d   1       7.127 -15.390  -0.360  0.00  0.00    -0.301 NA
ATOM     18  H8  NON d   1       6.409 -15.964   0.097  0.00  0.00     0.124 HD
ATOM     19  H9  NON d   1       8.040 -15.711  -0.058  0.00  0.00     0.124 HD
ENDBRANCH   4  17
BRANCH   1  20
ATOM     20  C5  NON d   1       6.582  -9.636  -0.033  0.00  0.00    -0.026 A 
ATOM     21  C4  NON d   1       7.749  -8.849   0.079  0.00  0.00     0.015 A 
ATOM     22  C3  NON d   1       7.727  -7.447   0.078  0.00  0.00     0.037 A 
ATOM     23  C2  NON d   1       6.530  -6.752  -0.014  0.00  0.00     0.068 A 
ATOM     24  C20 NON d   1       5.351  -7.484  -0.107  0.00  0.00     0.037 A 
ATOM     25  C19 NON d   1       5.381  -8.903  -0.119  0.00  0.00     0.015 A 
BRANCH  23  26
ATOM     26  O1  NON d   1       6.668  -5.390   0.000  0.00  0.00    -0.356 OA
ATOM     27  C1  NON d   1       5.335  -4.620   0.000  0.00  0.00     0.210 C 
ENDBRANCH  23  26
ENDBRANCH   1  20
TORSDOF 5
