@<TRIPOS>MOLECULE
*****
 66 69 0 0 0
SMALL
USER_CHARGES

@<TRIPOS>ATOM
      1 C1         -1.8596   -1.3028    0.0000 C.3     1  NONAME1    -0.0547
      2 C2         -0.3196   -1.3028    0.0000 C.3     1  NONAME1     0.0027
      3 C3         -0.3196   -2.8428    0.0000 C.3     1  NONAME1    -0.0547
      4 C4         -0.3196    0.2372    0.0000 C.3     1  NONAME1    -0.0547
      5 C5          1.2204   -1.3028    0.0000 C.ar    1  NONAME1     0.0261
      6 N1          2.0997   -0.2304    0.2162 N.ar    1  NONAME1    -0.3573
      7 C6          3.4256   -0.5438    0.0841 C.ar    1  NONAME1     0.0470
      8 C7          4.5493    0.2793    0.2560 C.ar    1  NONAME1    -0.0378
      9 C8          5.8165   -0.2859    0.0933 C.ar    1  NONAME1    -0.0598
     10 C9          5.9554   -1.6173   -0.2649 C.ar    1  NONAME1    -0.0611
     11 C10         4.8215   -2.4041   -0.4813 C.ar    1  NONAME1    -0.0523
     12 C11         3.5224   -1.8707   -0.2812 C.ar    1  NONAME1     0.0036
     13 C12         2.1778   -2.4255   -0.3659 C.ar    1  NONAME1    -0.0105
     14 C13         2.1212   -4.0848   -0.7576 C.3     1  NONAME1     0.0267
     15 C14         2.8067   -4.9466    0.3684 C.3     1  NONAME1    -0.0365
     16 C15         2.6813   -6.4728    0.1483 C.3     1  NONAME1    -0.0118
     17 C16         1.2454   -6.9959    0.0747 C.3     1  NONAME1    -0.0315
     18 N2          0.3158   -5.8299   -0.1150 N.4     1  NONAME1     0.2390
     19 C17        -1.1665   -6.2215   -0.1894 C.3     1  NONAME1    -0.0031
     20 C18        -1.7875   -6.8454    1.0587 C.ar    1  NONAME1     0.0322
     21 C19        -1.1816   -6.9211    2.3197 C.ar    1  NONAME1    -0.0502
     22 C20        -1.7976   -7.6026    3.3910 C.ar    1  NONAME1    -0.0540
     23 C21        -3.0610   -8.1975    3.2596 C.ar    1  NONAME1    -0.0221
     24 C22        -3.7174   -8.9475    4.3601 C.2     1  NONAME1    -0.0495
     25 C23        -3.0739   -9.5011    5.4023 C.2     1  NONAME1     0.0027
     26 C24        -3.8006  -10.2744    6.4615 C.2     1  NONAME1     0.2593
     27 O1         -4.9795  -10.6019    6.3353 O.2     1  NONAME1    -0.2687
     28 N3         -2.9840  -10.5635    7.5329 N.am    1  NONAME1    -0.1940
     29 O2         -3.6373  -11.0065    8.7048 O.3     1  NONAME1    -0.2949
     30 C25        -3.7185   -8.0293    2.0366 C.ar    1  NONAME1    -0.0188
     31 C26        -3.0861   -7.3715    0.9674 C.ar    1  NONAME1     0.1321
     32 F1         -3.7518   -7.2431   -0.1891 F       1  NONAME1    -0.2050
     33 C27         0.9035   -4.9622   -1.2813 C.3     1  NONAME1    -0.0245
     34 H1         -2.0071   -0.7111   -0.9508 H       1  NONAME1     0.0239
     35 H2         -3.3996   -1.3028    0.0000 H       1  NONAME1     0.0239
     36 H3         -2.1341   -2.2437   -0.5406 H       1  NONAME1     0.0239
     37 H4         -1.1809   -3.3204    0.5050 H       1  NONAME1     0.0239
     38 H5         -0.3661   -3.1083   -1.0423 H       1  NONAME1     0.0239
     39 H6          0.4039   -3.2869    0.6867 H       1  NONAME1     0.0239
     40 H7         -0.0537    0.3455    1.0874 H       1  NONAME1     0.0239
     41 H8         -0.3196    1.7772    0.0000 H       1  NONAME1     0.0239
     42 H9         -1.3843    0.5636    0.0838 H       1  NONAME1     0.0239
     43 H10         1.8280    0.7181    0.4288 H       1  NONAME1     0.1656
     44 H11         4.4492    1.3278    0.5195 H       1  NONAME1     0.0638
     45 H12         6.7032    0.3255    0.2434 H       1  NONAME1     0.0618
     46 H13         6.9461   -2.0500   -0.3842 H       1  NONAME1     0.0618
     47 H14         4.9740   -3.4312   -0.7956 H       1  NONAME1     0.0624
     48 H15         2.7974   -4.0960   -1.6278 H       1  NONAME1     0.0402
     49 H16         2.3791   -4.6865    1.3443 H       1  NONAME1     0.0275
     50 H17         3.8720   -4.7254    0.4398 H       1  NONAME1     0.0275
     51 H18         3.2065   -7.0075    0.9483 H       1  NONAME1     0.0317
     52 H19         3.1975   -6.7448   -0.7816 H       1  NONAME1     0.0317
     53 H20         1.1007   -7.6821   -0.7690 H       1  NONAME1     0.0814
     54 H21         0.9794   -7.5230    0.9917 H       1  NONAME1     0.0814
     55 H22         0.3605   -5.2544    0.7315 H       1  NONAME1     0.2037
     56 H23        -1.2607   -6.9048   -1.0398 H       1  NONAME1     0.0868
     57 H24        -1.7147   -5.3012   -0.4144 H       1  NONAME1     0.0868
     58 H25        -0.2115   -6.4793    2.5267 H       1  NONAME1     0.0623
     59 H26        -1.2629   -7.6563    4.3373 H       1  NONAME1     0.0624
     60 H27        -4.7987   -9.0780    4.2786 H       1  NONAME1     0.0625
     61 H28        -1.9994   -9.4323    5.5193 H       1  NONAME1     0.0670
     62 H29        -2.1424  -10.0234    7.6964 H       1  NONAME1     0.1825
     63 H30        -3.5878  -11.9759    8.6146 H       1  NONAME1     0.2414
     64 H31        -4.7247   -8.4184    1.8898 H       1  NONAME1     0.0652
     65 H32         1.3033   -5.7016   -1.9913 H       1  NONAME1     0.0820
     66 H33         0.1045   -4.5226   -1.8742 H       1  NONAME1     0.0820
@<TRIPOS>BOND
     1     1     2    1
     2     2     3    1
     3     2     4    1
     4     2     5    1
     5     5     6   ar
     6     6     7   ar
     7     7     8   ar
     8     8     9   ar
     9     9    10   ar
    10    10    11   ar
    11    11    12   ar
    12     7    12   ar
    13    12    13   ar
    14     5    13   ar
    15    14    13    1
    16    14    15    1
    17    15    16    1
    18    16    17    1
    19    17    18    1
    20    18    19    1
    21    19    20    1
    22    20    21   ar
    23    21    22   ar
    24    22    23   ar
    25    23    24    1
    26    24    25    2
    27    25    26    1
    28    26    27    2
    29    26    28   am
    30    28    29    1
    31    23    30   ar
    32    30    31   ar
    33    20    31   ar
    34    31    32    1
    35    18    33    1
    36    14    33    1
    37     1    34    1
    38     1    35    1
    39     1    36    1
    40     3    37    1
    41     3    38    1
    42     3    39    1
    43     4    40    1
    44     4    41    1
    45     4    42    1
    46     6    43    1
    47     8    44    1
    48     9    45    1
    49    10    46    1
    50    11    47    1
    51    14    48    1
    52    15    49    1
    53    15    50    1
    54    16    51    1
    55    16    52    1
    56    17    53    1
    57    17    54    1
    58    18    55    1
    59    19    56    1
    60    19    57    1
    61    21    58    1
    62    22    59    1
    63    24    60    1
    64    25    61    1
    65    28    62    1
    66    29    63    1
    67    30    64    1
    68    33    65    1
    69    33    66    1
