REMARK  11 active torsions:
REMARK  status: ('A' for Active; 'I' for Inactive)
REMARK    1  A    between atoms: C1_2  and  C2_3 
REMARK       I    between atoms: C1_2  and  N4_26 
REMARK    2  A    between atoms: C2_3  and  C3_4 
REMARK    3  A    between atoms: C3_4  and  C4_5 
REMARK    4  A    between atoms: C4_5  and  C5_6 
REMARK    5  A    between atoms: C5_6  and  C6_7 
REMARK    6  A    between atoms: C6_7  and  C7_8 
REMARK    7  A    between atoms: C7_8  and  C8_9 
REMARK       I    between atoms: C8_9  and  N1_11 
REMARK    8  A    between atoms: N1_11  and  C9_12 
REMARK    9  A    between atoms: C10_14  and  C11_15 
REMARK   10  A    between atoms: C15_19  and  N3_20 
REMARK   11  A    between atoms: N4_26  and  O5_27 
ROOT
ATOM      1  C8  NON d   1      -1.996  -6.201   0.050  0.00  0.00     0.223 C 
ATOM      2  O2  NON d   1      -1.856  -7.417  -0.001  0.00  0.00    -0.273 OA
ATOM      3  N1  NON d   1      -3.188  -5.505   0.091  0.00  0.00    -0.306 N 
ATOM      4  H13 NON d   1      -3.192  -4.497   0.112  0.00  0.00     0.171 HD
ENDROOT
BRANCH   3   5
ATOM      5  C9  NON d   1      -4.412  -6.114   0.063  0.00  0.00     0.173 A 
ATOM      6  N2  NON d   1      -4.719  -7.384   0.043  0.00  0.00    -0.223 NA
ATOM      7  C10 NON d   1      -6.100  -7.543   0.015  0.00  0.00     0.076 A 
ATOM      8  C17 NON d   1      -6.805  -6.353   0.011  0.00  0.00     0.085 A 
ATOM      9  S1  NON d   1      -5.722  -5.022   0.054  0.00  0.00    -0.061 SA
BRANCH   7  10
ATOM     10  C11 NON d   1      -6.704  -8.881  -0.001  0.00  0.00    -0.004 A 
ATOM     11  C12 NON d   1      -5.865 -10.009  -0.007  0.00  0.00     0.014 A 
ATOM     12  C13 NON d   1      -6.388 -11.306  -0.014  0.00  0.00     0.003 A 
ATOM     13  C14 NON d   1      -7.768 -11.503  -0.016  0.00  0.00     0.036 A 
ATOM     14  C15 NON d   1      -8.616 -10.391  -0.012  0.00  0.00     0.103 A 
ATOM     15  C16 NON d   1      -8.093  -9.085  -0.005  0.00  0.00     0.050 A 
BRANCH  14  16
ATOM     16  N3  NON d   1     -10.072 -10.590  -0.013  0.00  0.00    -0.116 N 
ATOM     17  O3  NON d   1     -10.501 -11.753  -0.015  0.00  0.00    -0.532 OA
ATOM     18  O4  NON d   1     -10.790  -9.579  -0.008  0.00  0.00    -0.532 OA
ENDBRANCH  14  16
ENDBRANCH   7  10
ENDBRANCH   3   5
BRANCH   1  19
ATOM     19  C7  NON d   1      -0.808  -5.244   0.067  0.00  0.00     0.103 C 
BRANCH  19  20
ATOM     20  C6  NON d   1       0.554  -5.917  -0.126  0.00  0.00     0.009 C 
BRANCH  20  21
ATOM     21  C5  NON d   1       1.092  -6.550   1.162  0.00  0.00     0.000 C 
BRANCH  21  22
ATOM     22  C4  NON d   1       2.415  -7.309   0.980  0.00  0.00     0.000 C 
BRANCH  22  23
ATOM     23  C3  NON d   1       3.695  -6.474   1.155  0.00  0.00     0.009 C 
BRANCH  23  24
ATOM     24  C2  NON d   1       3.999  -5.544  -0.014  0.00  0.00     0.105 C 
BRANCH  24  25
ATOM     25  C1  NON d   1       5.384  -4.910   0.043  0.00  0.00     0.240 C 
ATOM     26  O1  NON d   1       6.159  -5.046   0.983  0.00  0.00    -0.271 OA
ATOM     27  N4  NON d   1       5.618  -4.121  -1.071  0.00  0.00    -0.237 N 
ATOM     28  H19 NON d   1       5.147  -4.350  -1.941  0.00  0.00     0.197 HD
BRANCH  27  29
ATOM     29  O5  NON d   1       6.948  -3.669  -1.226  0.00  0.00    -0.287 OA
ATOM     30  H20 NON d   1       6.909  -2.776  -0.835  0.00  0.00     0.244 HD
ENDBRANCH  27  29
ENDBRANCH  24  25
ENDBRANCH  23  24
ENDBRANCH  22  23
ENDBRANCH  21  22
ENDBRANCH  20  21
ENDBRANCH  19  20
ENDBRANCH   1  19
TORSDOF 11
