REMARK  2 active torsions:
REMARK  status: ('A' for Active; 'I' for Inactive)
REMARK    1  A    between atoms: C14_20  and  C15_21 
REMARK    2  A    between atoms: C20_30  and  C21_31 
ROOT
ATOM      1  C1  NON d   1       9.898  -3.560   0.691  0.00  0.00     0.038 C 
ATOM      2  C2  NON d   1       9.777  -2.079   0.455  0.00  0.00     0.004 C 
ATOM      3  C3  NON d   1       8.736  -1.258   0.733  0.00  0.00     0.099 C 
ATOM      4  N1  NON d   1       7.665  -1.740   1.459  0.00  0.00    -0.321 N 
ATOM      5  C4  NON d   1       6.304  -1.597   1.383  0.00  0.00     0.245 C 
ATOM      6  O1  NON d   1       5.638  -2.278   2.169  0.00  0.00    -0.271 OA
ATOM      7  C5  NON d   1       5.600  -0.672   0.357  0.00  0.00     0.187 C 
ATOM      8  C6  NON d   1       6.041  -1.079  -1.066  0.00  0.00     0.120 C 
ATOM      9  S1  NON d   1       4.910  -1.829  -2.289  0.00  0.00    -0.095 SA
ATOM     10  S2  NON d   1       3.960  -0.289  -3.275  0.00  0.00    -0.097 SA
ATOM     11  C7  NON d   1       5.189   1.081  -3.366  0.00  0.00     0.090 C 
ATOM     12  C8  NON d   1       4.969   1.893  -2.105  0.00  0.00     0.038 C 
ATOM     13  C9  NON d   1       6.082   2.712  -1.502  0.00  0.00    -0.027 C 
ATOM     14  C10 NON d   1       6.193   2.634  -0.170  0.00  0.00     0.002 C 
ATOM     15  C11 NON d   1       6.386   3.719   0.821  0.00  0.00     0.163 C 
ATOM     16  C12 NON d   1       5.110   4.611   0.720  0.00  0.00     0.139 C 
ATOM     17  C13 NON d   1       3.823   3.831   0.327  0.00  0.00     0.221 C 
ATOM     18  O2  NON d   1       3.178   4.192  -0.646  0.00  0.00    -0.274 OA
ATOM     19  N2  NON d   1       3.550   2.656   1.021  0.00  0.00    -0.347 N 
ATOM     20  C14 NON d   1       2.648   1.574   0.515  0.00  0.00     0.180 C 
ATOM     21  C18 NON d   1       3.071   0.096   0.984  0.00  0.00     0.241 C 
ATOM     22  O3  NON d   1       2.292  -0.535   1.719  0.00  0.00    -0.271 OA
ATOM     23  N3  NON d   1       4.131  -0.688   0.647  0.00  0.00    -0.345 N 
ATOM     24  O4  NON d   1       7.604   4.433   0.621  0.00  0.00    -0.310 OA
ATOM     25  C19 NON d   1       8.728   3.985   0.020  0.00  0.00     0.282 C 
ATOM     26  O5  NON d   1       9.396   4.839  -0.564  0.00  0.00    -0.263 OA
ATOM     27  C20 NON d   1       9.238   2.494   0.069  0.00  0.00     0.188 C 
ATOM     28  N4  NON d   1       8.644   1.263   0.707  0.00  0.00    -0.342 N 
ATOM     29  C24 NON d   1       8.807   0.068   0.003  0.00  0.00     0.268 C 
ATOM     30  O6  NON d   1       9.088   0.050  -1.196  0.00  0.00    -0.266 OA
ATOM     31  H5  NON d   1       7.873  -2.533   2.061  0.00  0.00     0.169 HD
ATOM     32  H18 NON d   1       3.817   2.600   1.994  0.00  0.00     0.163 HD
ATOM     33  H27 NON d   1       3.920  -1.583   1.089  0.00  0.00     0.163 HD
ATOM     34  H36 NON d   1       8.607   1.216   1.717  0.00  0.00     0.163 HD
ENDROOT
BRANCH  20  35
ATOM     35  C15 NON d   1       1.133   1.901   0.899  0.00  0.00     0.009 C 
ATOM     36  C16 NON d   1       0.122   0.789   0.551  0.00  0.00     0.012 C 
ATOM     37  C17 NON d   1       0.599   3.176   0.219  0.00  0.00     0.012 C 
ENDBRANCH  20  35
BRANCH  27  38
ATOM     38  C21 NON d   1      10.775   2.485   0.414  0.00  0.00     0.010 C 
ATOM     39  C22 NON d   1      11.167   3.478   1.516  0.00  0.00     0.012 C 
ATOM     40  C23 NON d   1      11.653   2.665  -0.835  0.00  0.00     0.012 C 
ENDBRANCH  27  38
TORSDOF 2
