@<TRIPOS>MOLECULE
*****
 48 51 0 0 0
SMALL
USER_CHARGES

@<TRIPOS>ATOM
      1 N1         -6.0832   11.1825   -0.0517 N.pl3   1  NONAME1    -0.3565
      2 C1         -6.2144   12.5949   -0.1380 C.ar    1  NONAME1     0.0461
      3 C2         -7.4875   13.1786   -0.1586 C.ar    1  NONAME1    -0.0392
      4 C3         -7.6285   14.5660   -0.1052 C.ar    1  NONAME1    -0.0599
      5 C4         -6.4995   15.3733   -0.0002 C.ar    1  NONAME1    -0.0599
      6 C5         -5.2269   14.7984    0.0492 C.ar    1  NONAME1    -0.0387
      7 C6         -5.0696   13.4120   -0.0160 C.ar    1  NONAME1     0.0545
      8 N2         -3.8169   12.7490    0.0034 N.am    1  NONAME1    -0.2800
      9 C7         -2.5725   13.3222    0.1769 C.2     1  NONAME1     0.2483
     10 O1         -2.3737   14.5135    0.4019 O.2     1  NONAME1    -0.2699
     11 C8         -1.3717   12.4245    0.0794 C.ar    1  NONAME1     0.0370
     12 C9         -0.1217   13.0515   -0.0134 C.ar    1  NONAME1    -0.0493
     13 C10         1.0545   12.3038   -0.0904 C.ar    1  NONAME1    -0.0564
     14 C11         1.0263   10.9002   -0.0670 C.ar    1  NONAME1    -0.0303
     15 C12         2.3543   10.1741   -0.2023 C.3     1  NONAME1     0.0370
     16 N3          2.3577    8.8321    0.3468 N.pl3   1  NONAME1    -0.3093
     17 C13         3.6082    8.2165    0.2676 C.ar    1  NONAME1     0.2160
     18 N4          4.7270    8.9551    0.2955 N.ar    1  NONAME1    -0.2229
     19 C14         5.8980    8.3066    0.2088 C.ar    1  NONAME1     0.0333
     20 C15         5.9984    6.9455    0.0977 C.ar    1  NONAME1    -0.0158
     21 C16         4.8034    6.2570    0.0779 C.ar    1  NONAME1     0.0959
     22 C17         4.7874    4.7827   -0.0084 C.ar    1  NONAME1     0.1108
     23 C18         5.9036    3.8906    0.0103 C.ar    1  NONAME1    -0.0150
     24 C19         5.3779    2.6248   -0.0742 C.ar    1  NONAME1     0.0230
     25 N5          4.0300    2.7932   -0.1373 N.ar    1  NONAME1    -0.2841
     26 N6          3.6466    4.0754   -0.1135 N.ar    1  NONAME1    -0.1724
     27 N7          3.6052    6.8872    0.1471 N.ar    1  NONAME1    -0.2129
     28 C20        -0.2241   10.2714    0.0142 C.ar    1  NONAME1    -0.0564
     29 C21        -1.4131   11.0241    0.0929 C.ar    1  NONAME1    -0.0493
     30 H1         -6.9540   10.7182   -0.3030 H       1  NONAME1     0.1424
     31 H2         -5.8440   10.9350    0.9083 H       1  NONAME1     0.1424
     32 H3         -8.3800   12.5631   -0.2177 H       1  NONAME1     0.0636
     33 H4         -8.6165   15.0174   -0.1382 H       1  NONAME1     0.0618
     34 H5         -6.6023   16.4557    0.0464 H       1  NONAME1     0.0618
     35 H6         -4.3746   15.4675    0.1270 H       1  NONAME1     0.0637
     36 H7         -3.9008   11.7578   -0.1847 H       1  NONAME1     0.1552
     37 H8         -0.0525   14.1384   -0.0243 H       1  NONAME1     0.0625
     38 H9          2.0034   12.8325   -0.1645 H       1  NONAME1     0.0621
     39 H10         3.0980   10.7846    0.3281 H       1  NONAME1     0.0512
     40 H11         2.6182   10.1544   -1.2674 H       1  NONAME1     0.0512
     41 H12         1.7174    8.1732   -0.0799 H       1  NONAME1     0.1492
     42 H13         6.7810    8.9379    0.2347 H       1  NONAME1     0.0831
     43 H14         6.9647    6.4689    0.0342 H       1  NONAME1     0.0655
     44 H15         6.9532    4.1337    0.0851 H       1  NONAME1     0.0655
     45 H16         5.8327    1.6444   -0.0868 H       1  NONAME1     0.0824
     46 H17         3.3104    2.0804   -0.1967 H       1  NONAME1     0.1882
     47 H18        -0.2949    9.1862    0.0294 H       1  NONAME1     0.0621
     48 H19        -2.3481   10.4811    0.1804 H       1  NONAME1     0.0625
@<TRIPOS>BOND
     1     1     2    1
     2     2     3   ar
     3     3     4   ar
     4     4     5   ar
     5     5     6   ar
     6     6     7   ar
     7     2     7   ar
     8     7     8    1
     9     8     9   am
    10     9    10    2
    11     9    11    1
    12    11    12   ar
    13    12    13   ar
    14    13    14   ar
    15    14    15    1
    16    15    16    1
    17    16    17    1
    18    17    18   ar
    19    18    19   ar
    20    19    20   ar
    21    20    21   ar
    22    21    22    1
    23    22    23   ar
    24    23    24   ar
    25    24    25   ar
    26    25    26   ar
    27    22    26   ar
    28    21    27   ar
    29    17    27   ar
    30    14    28   ar
    31    28    29   ar
    32    11    29   ar
    33     1    30    1
    34     1    31    1
    35     3    32    1
    36     4    33    1
    37     5    34    1
    38     6    35    1
    39     8    36    1
    40    12    37    1
    41    13    38    1
    42    15    39    1
    43    15    40    1
    44    16    41    1
    45    19    42    1
    46    20    43    1
    47    23    44    1
    48    24    45    1
    49    25    46    1
    50    28    47    1
    51    29    48    1
