@<TRIPOS>MOLECULE
*****
 43 43 0 0 0
SMALL
USER_CHARGES

@<TRIPOS>ATOM
      1 C1         -3.8780    2.4162   -0.0379 C.3     1  NONAME1    -0.0395
      2 C2         -2.5213    3.0651   -0.0232 C.ar    1  NONAME1    -0.0475
      3 C3         -2.4360    4.4655   -0.0324 C.ar    1  NONAME1    -0.0579
      4 C4         -1.1974    5.1121   -0.0789 C.ar    1  NONAME1    -0.0493
      5 C5         -0.0080    4.3771   -0.1252 C.ar    1  NONAME1     0.0390
      6 C6          1.2810    5.1292   -0.2830 C.2     1  NONAME1     0.2667
      7 O1          1.2388    6.3325   -0.5299 O.2     1  NONAME1    -0.2681
      8 N1          2.4476    4.4069   -0.1596 N.am    1  NONAME1    -0.1906
      9 O2          3.6331    5.1006   -0.5012 O.3     1  NONAME1    -0.2796
     10 C7          4.7978    4.4154   -0.0358 C.3     1  NONAME1     0.0733
     11 C8          5.4747    3.6516   -1.1784 C.3     1  NONAME1    -0.0272
     12 C9          4.7463    2.3519   -1.5274 C.3     1  NONAME1    -0.0505
     13 C10         5.3064    1.6320   -2.7593 C.3     1  NONAME1    -0.0447
     14 C11         6.5219    0.7431   -2.4921 C.3     1  NONAME1     0.0259
     15 C12         7.8743    1.4281   -2.5877 C.2     1  NONAME1     0.2354
     16 O3          8.0382    2.5841   -2.9573 O.2     1  NONAME1    -0.2737
     17 N2          8.9062    0.5654   -2.2751 N.am    1  NONAME1    -0.1975
     18 O4         10.1928    1.1334   -2.1787 O.3     1  NONAME1    -0.2952
     19 C13        -0.0881    2.9786   -0.0893 C.ar    1  NONAME1    -0.0464
     20 C14        -1.3337    2.3100    0.0000 C.ar    1  NONAME1    -0.0468
     21 C15        -1.3337    0.7700    0.0000 C.3     1  NONAME1    -0.0394
     22 H1         -4.6657    3.1432   -0.2641 H       1  NONAME1     0.0278
     23 H2         -4.0982    1.9706    0.9366 H       1  NONAME1     0.0278
     24 H3         -3.9236    1.6444   -0.8134 H       1  NONAME1     0.0278
     25 H4         -3.3400    5.0721   -0.0269 H       1  NONAME1     0.0620
     26 H5         -1.1692    6.2005   -0.1073 H       1  NONAME1     0.0625
     27 H6          2.5177    3.4337    0.0960 H       1  NONAME1     0.1828
     28 H7          5.4856    5.1913    0.3183 H       1  NONAME1     0.0583
     29 H8          4.5800    3.7665    0.8210 H       1  NONAME1     0.0583
     30 H9          6.5031    3.4205   -0.8828 H       1  NONAME1     0.0288
     31 H10         5.5135    4.2926   -2.0675 H       1  NONAME1     0.0288
     32 H11         4.7509    1.6794   -0.6609 H       1  NONAME1     0.0266
     33 H12         3.6957    2.5811   -1.7382 H       1  NONAME1     0.0266
     34 H13         5.5051    2.3473   -3.5672 H       1  NONAME1     0.0270
     35 H14         4.5098    0.9709   -3.1246 H       1  NONAME1     0.0270
     36 H15         6.4353    0.2564   -1.5127 H       1  NONAME1     0.0359
     37 H16         6.5339   -0.0499   -3.2502 H       1  NONAME1     0.0359
     38 H17         8.7613   -0.2918   -1.7529 H       1  NONAME1     0.1822
     39 H18        10.3552    1.4356   -3.0938 H       1  NONAME1     0.2414
     40 H19         0.8096    2.3735   -0.1617 H       1  NONAME1     0.0628
     41 H20        -2.0832    0.6732    0.8130 H       1  NONAME1     0.0278
     42 H21        -1.3337   -0.7700    0.0000 H       1  NONAME1     0.0278
     43 H22        -0.3517    0.6567    0.5058 H       1  NONAME1     0.0278
@<TRIPOS>BOND
     1     1     2    1
     2     2     3   ar
     3     3     4   ar
     4     4     5   ar
     5     5     6    1
     6     6     7    2
     7     6     8   am
     8     8     9    1
     9     9    10    1
    10    10    11    1
    11    11    12    1
    12    12    13    1
    13    13    14    1
    14    14    15    1
    15    15    16    2
    16    15    17   am
    17    17    18    1
    18     5    19   ar
    19    19    20   ar
    20     2    20   ar
    21    20    21    1
    22     1    22    1
    23     1    23    1
    24     1    24    1
    25     3    25    1
    26     4    26    1
    27     8    27    1
    28    10    28    1
    29    10    29    1
    30    11    30    1
    31    11    31    1
    32    12    32    1
    33    12    33    1
    34    13    34    1
    35    13    35    1
    36    14    36    1
    37    14    37    1
    38    17    38    1
    39    18    39    1
    40    19    40    1
    41    21    41    1
    42    21    42    1
    43    21    43    1
