REMARK  7 active torsions:
REMARK  status: ('A' for Active; 'I' for Inactive)
REMARK    1  A    between atoms: C2_2  and  C5_5 
REMARK    2  A    between atoms: C13_14  and  C12_13 
REMARK    3  A    between atoms: N2_18  and  C17_19 
REMARK    4  A    between atoms: C17_19  and  C18_20 
REMARK    5  A    between atoms: C21_23  and  C22_24 
REMARK    6  A    between atoms: C23_25  and  C24_26 
REMARK       I    between atoms: C24_26  and  N3_28 
REMARK    7  A    between atoms: N3_28  and  O2_29 
ROOT
ATOM      1  C13 NON d   1       2.121  -4.085  -0.758  0.00  0.00     0.047 C 
ATOM      2  C14 NON d   1       2.807  -4.947   0.368  0.00  0.00     0.013 C 
ATOM      3  C15 NON d   1       2.681  -6.473   0.148  0.00  0.00     0.028 C 
ATOM      4  C16 NON d   1       1.245  -6.996   0.075  0.00  0.00     0.235 C 
ATOM      5  N2  NON d   1       0.316  -5.830  -0.115  0.00  0.00    -0.066 N 
ATOM      6  C27 NON d   1       0.903  -4.962  -1.281  0.00  0.00     0.244 C 
ATOM      7  H22 NON d   1       0.360  -5.254   0.732  0.00  0.00     0.280 HD
ENDROOT
BRANCH   5   8
ATOM      8  C17 NON d   1      -1.167  -6.221  -0.189  0.00  0.00     0.276 C 
BRANCH   8   9
ATOM      9  C18 NON d   1      -1.788  -6.845   1.059  0.00  0.00     0.006 A 
ATOM     10  C19 NON d   1      -1.182  -6.921   2.320  0.00  0.00     0.013 A 
ATOM     11  C20 NON d   1      -1.798  -7.603   3.391  0.00  0.00     0.012 A 
ATOM     12  C21 NON d   1      -3.061  -8.197   3.260  0.00  0.00    -0.033 A 
ATOM     13  C25 NON d   1      -3.719  -8.029   2.037  0.00  0.00     0.054 A 
ATOM     14  C26 NON d   1      -3.086  -7.372   0.967  0.00  0.00     0.125 A 
ATOM     15  F1  NON d   1      -3.752  -7.243  -0.189  0.00  0.00    -0.205 F 
BRANCH  12  16
ATOM     16  C22 NON d   1      -3.717  -8.947   4.360  0.00  0.00     0.017 C 
ATOM     17  C23 NON d   1      -3.074  -9.501   5.402  0.00  0.00     0.077 C 
BRANCH  17  18
ATOM     18  C24 NON d   1      -3.801 -10.274   6.462  0.00  0.00     0.264 C 
ATOM     19  O1  NON d   1      -4.979 -10.602   6.335  0.00  0.00    -0.266 OA
ATOM     20  N3  NON d   1      -2.984 -10.563   7.533  0.00  0.00    -0.234 N 
ATOM     21  H29 NON d   1      -2.142 -10.023   7.696  0.00  0.00     0.197 HD
BRANCH  20  22
ATOM     22  O2  NON d   1      -3.637 -11.007   8.705  0.00  0.00    -0.287 OA
ATOM     23  H30 NON d   1      -3.588 -11.976   8.615  0.00  0.00     0.244 HD
ENDBRANCH  20  22
ENDBRANCH  17  18
ENDBRANCH  12  16
ENDBRANCH   8   9
ENDBRANCH   5   8
BRANCH   1  24
ATOM     24  C12 NON d   1       2.178  -2.425  -0.366  0.00  0.00    -0.017 A 
ATOM     25  C11 NON d   1       3.522  -1.871  -0.281  0.00  0.00    -0.001 A 
ATOM     26  C10 NON d   1       4.822  -2.404  -0.481  0.00  0.00     0.014 A 
ATOM     27  C6  NON d   1       3.426  -0.544   0.084  0.00  0.00     0.043 A 
ATOM     28  C9  NON d   1       5.955  -1.617  -0.265  0.00  0.00     0.001 A 
ATOM     29  C8  NON d   1       5.816  -0.286   0.093  0.00  0.00     0.002 A 
ATOM     30  C7  NON d   1       4.549   0.279   0.256  0.00  0.00     0.030 A 
ATOM     31  N1  NON d   1       2.100  -0.230   0.216  0.00  0.00    -0.358 N 
ATOM     32  C5  NON d   1       1.220  -1.303   0.000  0.00  0.00     0.025 A 
ATOM     33  H10 NON d   1       1.828   0.718   0.429  0.00  0.00     0.166 HD
BRANCH  32  34
ATOM     34  C2  NON d   1      -0.320  -1.303   0.000  0.00  0.00    -0.008 C 
ATOM     35  C1  NON d   1      -1.860  -1.303   0.000  0.00  0.00     0.021 C 
ATOM     36  C3  NON d   1      -0.320  -2.843   0.000  0.00  0.00     0.021 C 
ATOM     37  C4  NON d   1      -0.320   0.237   0.000  0.00  0.00     0.021 C 
ENDBRANCH  32  34
ENDBRANCH   1  24
TORSDOF 7
