REMARK  11 active torsions:
REMARK  status: ('A' for Active; 'I' for Inactive)
REMARK    1  A    between atoms: O1_2  and  C2_3 
REMARK    2  A    between atoms: C8_10  and  C9_11 
REMARK    3  A    between atoms: C9_11  and  C10_12 
REMARK       I    between atoms: C10_12  and  N2_14 
REMARK    4  A    between atoms: C11_15  and  N2_14 
REMARK    5  A    between atoms: C11_15  and  C12_16 
REMARK    6  A    between atoms: C11_15  and  C19_24 
REMARK    7  A    between atoms: C12_16  and  C13_17 
REMARK    8  A    between atoms: C13_17  and  C14_18 
REMARK    9  A    between atoms: C14_18  and  C15_19 
REMARK   10  A    between atoms: C15_19  and  C16_20 
REMARK   11  A    between atoms: C16_20  and  C17_21 
ROOT
ATOM      1  C11 NON d   1       8.933  -2.437   0.000  0.00  0.00     0.154 C 
ENDROOT
BRANCH   1   2
ATOM      2  N2  NON d   1       7.499  -2.081  -0.530  0.00  0.00    -0.349 N 
ATOM      3  C10 NON d   1       6.271  -2.295   0.188  0.00  0.00     0.222 C 
ATOM      4  O2  NON d   1       6.287  -2.877   1.277  0.00  0.00    -0.273 OA
ATOM      5  H12 NON d   1       7.454  -1.696  -1.462  0.00  0.00     0.163 HD
BRANCH   3   6
ATOM      6  C9  NON d   1       4.910  -1.708  -0.412  0.00  0.00     0.144 C 
BRANCH   6   7
ATOM      7  C8  NON d   1       3.492  -2.415  -0.152  0.00  0.00    -0.015 A 
ATOM      8  C6  NON d   1       2.191  -1.811   0.000  0.00  0.00     0.013 A 
ATOM      9  N1  NON d   1       1.256  -2.799   0.080  0.00  0.00    -0.359 N 
ATOM     10  C7  NON d   1       1.871  -0.305   0.000  0.00  0.00     0.068 C 
ATOM     11  C5  NON d   1       1.853  -4.030  -0.028  0.00  0.00     0.043 A 
ATOM     12  H6  NON d   1       0.259  -2.657   0.169  0.00  0.00     0.166 HD
ATOM     13  C4  NON d   1       1.256  -5.295  -0.033  0.00  0.00     0.033 A 
ATOM     14  C26 NON d   1       3.234  -3.836  -0.163  0.00  0.00     0.002 A 
ATOM     15  C3  NON d   1       2.082  -6.414  -0.160  0.00  0.00     0.039 A 
ATOM     16  C2  NON d   1       3.461  -6.270  -0.274  0.00  0.00     0.069 A 
ATOM     17  C27 NON d   1       4.035  -4.989  -0.307  0.00  0.00     0.051 A 
BRANCH  16  18
ATOM     18  O1  NON d   1       4.354  -7.303  -0.377  0.00  0.00    -0.356 OA
ATOM     19  C1  NON d   1       3.875  -8.600  -0.040  0.00  0.00     0.210 C 
ENDBRANCH  16  18
ENDBRANCH   6   7
ENDBRANCH   3   6
ENDBRANCH   1   2
BRANCH   1  20
ATOM     20  C12 NON d   1      10.429  -1.905  -0.005  0.00  0.00     0.033 C 
BRANCH  20  21
ATOM     21  C13 NON d   1      10.806  -1.085   1.300  0.00  0.00     0.002 C 
BRANCH  21  22
ATOM     22  C14 NON d   1       9.994   0.208   1.575  0.00  0.00     0.000 C 
BRANCH  22  23
ATOM     23  C15 NON d   1      10.381   1.034   2.809  0.00  0.00     0.007 C 
BRANCH  23  24
ATOM     24  C16 NON d   1      11.525   2.020   2.582  0.00  0.00     0.077 C 
BRANCH  24  25
ATOM     25  C17 NON d   1      12.899   1.433   2.758  0.00  0.00     0.123 C 
ATOM     26  C18 NON d   1      14.065   2.302   2.365  0.00  0.00     0.091 C 
ATOM     27  O3  NON d   1      13.097   0.324   3.255  0.00  0.00    -0.298 OA
ENDBRANCH  24  25
ENDBRANCH  23  24
ENDBRANCH  22  23
ENDBRANCH  21  22
ENDBRANCH  20  21
ENDBRANCH   1  20
BRANCH   1  28
ATOM     28  C19 NON d   1       8.933  -3.977   0.000  0.00  0.00     0.128 A 
ATOM     29  N3  NON d   1      10.000  -4.693  -0.327  0.00  0.00    -0.231 NA
ATOM     30  C20 NON d   1       9.673  -6.004  -0.145  0.00  0.00     0.087 A 
ATOM     31  C21 NON d   1      10.471  -7.146  -0.280  0.00  0.00     0.057 A 
ATOM     32  C25 NON d   1       8.341  -6.121   0.222  0.00  0.00     0.062 A 
ATOM     33  C22 NON d   1       9.864  -8.389  -0.102  0.00  0.00     0.036 A 
ATOM     34 Cl1  NON d   1      10.816  -9.819  -0.246  0.00  0.00    -0.084 Cl
ATOM     35  C23 NON d   1       8.502  -8.496   0.193  0.00  0.00     0.026 A 
ATOM     36  C24 NON d   1       7.710  -7.355   0.379  0.00  0.00     0.034 A 
ATOM     37  N4  NON d   1       7.921  -4.822   0.392  0.00  0.00    -0.341 N 
ATOM     38  H30 NON d   1       7.030  -4.524   0.770  0.00  0.00     0.167 HD
ENDBRANCH   1  28
TORSDOF 11
