@<TRIPOS>MOLECULE
*****
 59 63 0 0 0
SMALL
USER_CHARGES

@<TRIPOS>ATOM
      1 N1         13.1788    4.1966    0.1788 N.pl3   1  NONAME1    -0.3565
      2 C1         14.0127    3.0540    0.1520 C.ar    1  NONAME1     0.0461
      3 C2         15.3946    3.1964    0.2860 C.ar    1  NONAME1    -0.0386
      4 C3         16.2324    2.0743    0.2606 C.ar    1  NONAME1    -0.0517
      5 C4         15.7156    0.7761    0.1288 C.ar    1  NONAME1    -0.0094
      6 C5         16.6283   -0.3978    0.0972 C.ar    1  NONAME1     0.0194
      7 C6         18.0164   -0.4292    0.0565 C.ar    1  NONAME1    -0.0469
      8 C7         18.5579   -1.7495    0.0368 C.ar    1  NONAME1    -0.0541
      9 C8         17.5734   -2.7059    0.0607 C.ar    1  NONAME1    -0.0237
     10 S1         16.0183   -2.0140    0.1137 S.2     1  NONAME1    -0.0967
     11 C9         14.3154    0.6488    0.0513 C.ar    1  NONAME1    -0.0305
     12 C10        13.4599    1.7606    0.0924 C.ar    1  NONAME1     0.0551
     13 N2         12.0422    1.6631    0.1321 N.am    1  NONAME1    -0.2799
     14 C11        11.2897    0.5114   -0.0164 C.2     1  NONAME1     0.2498
     15 O1         11.7315   -0.5965   -0.3032 O.2     1  NONAME1    -0.2698
     16 C12         9.8184    0.6116    0.1727 C.ar    1  NONAME1     0.0552
     17 C13         9.1106   -0.5555    0.4491 C.ar    1  NONAME1    -0.0449
     18 C14         7.7209   -0.5220    0.5476 C.ar    1  NONAME1    -0.0210
     19 C15         7.0296    0.6741    0.3452 C.ar    1  NONAME1     0.1212
     20 N3          5.6227    0.6814    0.3668 N.pl3   1  NONAME1    -0.3151
     21 C16         4.9948   -0.4141   -0.3790 C.3     1  NONAME1     0.0142
     22 C17         3.7733    0.0686   -1.1575 C.3     1  NONAME1    -0.0264
     23 C18         2.7769    0.8271   -0.2678 C.3     1  NONAME1     0.0183
     24 C19         1.9309   -0.1379    0.5864 C.3     1  NONAME1    -0.0020
     25 C20         0.6210    0.5862    0.8604 C.3     1  NONAME1    -0.0330
     26 N4          0.5429    1.6563   -0.1852 N.4     1  NONAME1     0.2274
     27 C21         1.6899    1.4767   -1.1279 C.3     1  NONAME1    -0.0276
     28 C22         3.5081    1.8730    0.6230 C.3     1  NONAME1    -0.0264
     29 C23         5.0062    2.0030    0.2989 C.3     1  NONAME1     0.0142
     30 N5          7.7090    1.8225    0.1198 N.ar    1  NONAME1    -0.2396
     31 C24         9.0720    1.7693    0.0319 C.ar    1  NONAME1     0.0418
     32 H1         13.7087    5.0609    0.1006 H       1  NONAME1     0.1424
     33 H2         12.4886    4.1500   -0.5679 H       1  NONAME1     0.1424
     34 H3         15.8426    4.1807    0.3899 H       1  NONAME1     0.0637
     35 H4         17.3020    2.2418    0.3515 H       1  NONAME1     0.0624
     36 H5         18.6391    0.4557    0.0381 H       1  NONAME1     0.0629
     37 H6         19.6151   -1.9818    0.0046 H       1  NONAME1     0.0623
     38 H7         17.6905   -3.7809    0.0502 H       1  NONAME1     0.0693
     39 H8         13.8873   -0.3443   -0.0089 H       1  NONAME1     0.0643
     40 H9         11.5959    2.5306    0.3999 H       1  NONAME1     0.1552
     41 H10         9.6330   -1.5032    0.5707 H       1  NONAME1     0.0627
     42 H11         7.1932   -1.4427    0.7721 H       1  NONAME1     0.0652
     43 H12         5.6786   -0.8738   -1.1042 H       1  NONAME1     0.0464
     44 H13         4.6968   -1.1945    0.3315 H       1  NONAME1     0.0464
     45 H14         4.1068    0.7235   -1.9741 H       1  NONAME1     0.0288
     46 H15         3.2909   -0.7902   -1.6409 H       1  NONAME1     0.0288
     47 H16         1.7148   -1.0604    0.0322 H       1  NONAME1     0.0324
     48 H17         2.4243   -0.4409    1.5161 H       1  NONAME1     0.0324
     49 H18        -0.2484   -0.0671    0.7397 H       1  NONAME1     0.0814
     50 H19         0.5974    1.0790    1.8357 H       1  NONAME1     0.0814
     51 H20        -0.3566    1.6317   -0.6852 H       1  NONAME1     0.2014
     52 H21         0.5976    2.5807    0.2649 H       1  NONAME1     0.2014
     53 H22         1.9551    2.4543   -1.5404 H       1  NONAME1     0.0819
     54 H23         1.3346    0.8165   -1.9272 H       1  NONAME1     0.0819
     55 H24         3.4157    1.5951    1.6812 H       1  NONAME1     0.0288
     56 H25         3.0466    2.8637    0.5311 H       1  NONAME1     0.0288
     57 H26         5.4492    2.6816    1.0392 H       1  NONAME1     0.0464
     58 H27         5.1410    2.4536   -0.6927 H       1  NONAME1     0.0464
     59 H28         9.5291    2.7265   -0.1947 H       1  NONAME1     0.0838
@<TRIPOS>BOND
     1     1     2    1
     2     2     3   ar
     3     3     4   ar
     4     4     5   ar
     5     5     6    1
     6     6     7   ar
     7     7     8   ar
     8     8     9   ar
     9     9    10   ar
    10     6    10   ar
    11     5    11   ar
    12    11    12   ar
    13     2    12   ar
    14    12    13    1
    15    13    14   am
    16    14    15    2
    17    14    16    1
    18    16    17   ar
    19    17    18   ar
    20    18    19   ar
    21    19    20    1
    22    20    21    1
    23    21    22    1
    24    22    23    1
    25    23    24    1
    26    24    25    1
    27    25    26    1
    28    26    27    1
    29    23    27    1
    30    23    28    1
    31    28    29    1
    32    20    29    1
    33    19    30   ar
    34    30    31   ar
    35    16    31   ar
    36     1    32    1
    37     1    33    1
    38     3    34    1
    39     4    35    1
    40     7    36    1
    41     8    37    1
    42     9    38    1
    43    11    39    1
    44    13    40    1
    45    17    41    1
    46    18    42    1
    47    21    43    1
    48    21    44    1
    49    22    45    1
    50    22    46    1
    51    24    47    1
    52    24    48    1
    53    25    49    1
    54    25    50    1
    55    26    51    1
    56    26    52    1
    57    27    53    1
    58    27    54    1
    59    28    55    1
    60    28    56    1
    61    29    57    1
    62    29    58    1
    63    31    59    1
