@<TRIPOS>MOLECULE
*****
 68 71 0 0 0
SMALL
USER_CHARGES

@<TRIPOS>ATOM
      1 C1         25.4100  -13.5150    0.0000 C.3     1  NONAME1     0.0804
      2 O1         26.9099  -13.8642    0.0000 O.3     1  NONAME1    -0.4792
      3 C2         26.9309  -15.2069    0.3101 C.ar    1  NONAME1     0.2245
      4 N1         28.2317  -15.5915    0.2275 N.ar    1  NONAME1    -0.2124
      5 C3         28.5531  -16.8797    0.2660 C.ar    1  NONAME1     0.0748
      6 C4         29.8876  -17.2255    0.1056 C.ar    1  NONAME1    -0.0356
      7 C5         30.2935  -18.5577    0.0659 C.ar    1  NONAME1    -0.0597
      8 C6         29.3418  -19.5627    0.1944 C.ar    1  NONAME1    -0.0611
      9 C7         27.9951  -19.2287    0.3792 C.ar    1  NONAME1    -0.0525
     10 C8         27.5841  -17.8782    0.4210 C.ar    1  NONAME1     0.0013
     11 C9         26.2353  -17.4706    0.5895 C.ar    1  NONAME1    -0.0382
     12 C10        25.8443  -16.1115    0.5421 C.ar    1  NONAME1     0.0639
     13 C11        24.3543  -15.8285    0.5931 C.ar    1  NONAME1     0.0940
     14 C12        23.4231  -16.5336   -0.1403 C.ar    1  NONAME1     0.0294
     15 N2         22.2252  -15.8683   -0.0056 N.ar    1  NONAME1    -0.3462
     16 C13        22.4234  -14.6937    0.7089 C.ar    1  NONAME1     0.1282
     17 C14        21.3189  -13.5106    0.7640 C.3     1  NONAME1     0.0810
     18 C15        20.1297  -13.8919   -0.1834 C.3     1  NONAME1    -0.0275
     19 C16        18.9808  -12.8821   -0.3332 C.3     1  NONAME1    -0.0510
     20 C17        18.7522  -12.3225   -1.7539 C.3     1  NONAME1    -0.0526
     21 C18        19.9914  -11.7331   -2.4378 C.3     1  NONAME1    -0.0464
     22 C19        19.6856  -10.7344   -3.5591 C.3     1  NONAME1     0.0055
     23 C20        19.2291   -9.3862   -3.0309 C.2     1  NONAME1     0.1303
     24 C21        19.2752   -8.2218   -3.9870 C.3     1  NONAME1    -0.0061
     25 O2         18.8808   -9.2222   -1.8598 O.2     1  NONAME1    -0.2977
     26 N3         21.8399  -12.1438    0.3458 N.am    1  NONAME1    -0.3050
     27 C22        21.3558  -10.8970    0.8248 C.2     1  NONAME1     0.2269
     28 O3         20.6353  -10.8382    1.8205 O.2     1  NONAME1    -0.2751
     29 C23        21.8215   -9.5895    0.0445 C.3     1  NONAME1     0.1148
     30 C24        20.9910   -8.2015    0.0000 C.3     1  NONAME1    -0.0158
     31 N4         22.3764   -7.5290    0.0000 N.4     1  NONAME1     0.2345
     32 C25        22.0141   -6.3039    0.9049 C.3     1  NONAME1    -0.0430
     33 C26        22.7873   -8.7167    0.8712 C.3     1  NONAME1    -0.0158
     34 N5         23.6557  -14.7773    1.2429 N.ar    1  NONAME1    -0.2304
     35 H1         25.5771  -12.5193    0.4495 H       1  NONAME1     0.0660
     36 H2         23.9101  -13.1658    0.0000 H       1  NONAME1     0.0660
     37 H3         25.3708  -13.3842   -1.0985 H       1  NONAME1     0.0660
     38 H4         30.6247  -16.4344   -0.0103 H       1  NONAME1     0.0639
     39 H5         31.3434  -18.7988   -0.0762 H       1  NONAME1     0.0618
     40 H6         29.6487  -20.6038    0.1463 H       1  NONAME1     0.0618
     41 H7         27.2652  -20.0282    0.4688 H       1  NONAME1     0.0624
     42 H8         25.4808  -18.2427    0.7229 H       1  NONAME1     0.0632
     43 H9         23.5047  -17.4028   -0.7782 H       1  NONAME1     0.0829
     44 H10        21.3672  -16.1481   -0.4595 H       1  NONAME1     0.1666
     45 H11        20.9668  -13.4361    1.7988 H       1  NONAME1     0.0579
     46 H12        19.6906  -14.8236    0.1984 H       1  NONAME1     0.0287
     47 H13        20.5227  -14.1336   -1.1787 H       1  NONAME1     0.0287
     48 H14        19.0712  -12.0571    0.3738 H       1  NONAME1     0.0266
     49 H15        18.0502  -13.3905   -0.0469 H       1  NONAME1     0.0266
     50 H16        18.3474  -13.1157   -2.3934 H       1  NONAME1     0.0265
     51 H17        17.9632  -11.5656   -1.6791 H       1  NONAME1     0.0265
     52 H18        20.5919  -12.5509   -2.8526 H       1  NONAME1     0.0269
     53 H19        20.6115  -11.2255   -1.7053 H       1  NONAME1     0.0269
     54 H20        20.6175  -10.5572   -4.1114 H       1  NONAME1     0.0341
     55 H21        18.9365  -11.1251   -4.2543 H       1  NONAME1     0.0341
     56 H22        18.8837   -7.3279   -3.4928 H       1  NONAME1     0.0306
     57 H23        18.6659   -8.4384   -4.8653 H       1  NONAME1     0.0306
     58 H24        20.3120   -8.0320   -4.2767 H       1  NONAME1     0.0306
     59 H25        22.3537  -12.1408   -0.5233 H       1  NONAME1     0.1494
     60 H26        22.2398   -9.8359   -0.9431 H       1  NONAME1     0.0501
     61 H27        20.4819   -7.9483   -0.9252 H       1  NONAME1     0.0824
     62 H28        20.3323   -8.0826    0.8663 H       1  NONAME1     0.0824
     63 H29        23.7618   -6.8565    0.0000 H       1  NONAME1     0.2031
     64 H30        22.7406   -6.2637    1.7223 H       1  NONAME1     0.0777
     65 H31        22.1353   -5.4279    0.2609 H       1  NONAME1     0.0777
     66 H32        20.9948   -6.3214    1.2974 H       1  NONAME1     0.0777
     67 H33        22.5512   -8.5977    1.9355 H       1  NONAME1     0.0824
     68 H34        23.8459   -8.9654    0.7535 H       1  NONAME1     0.0824
@<TRIPOS>BOND
     1     1     2    1
     2     2     3    1
     3     3     4   ar
     4     4     5   ar
     5     5     6   ar
     6     6     7   ar
     7     7     8   ar
     8     8     9   ar
     9     9    10   ar
    10     5    10   ar
    11    10    11   ar
    12    11    12   ar
    13     3    12   ar
    14    12    13    1
    15    13    14   ar
    16    14    15   ar
    17    15    16   ar
    18    17    16    1
    19    17    18    1
    20    18    19    1
    21    19    20    1
    22    20    21    1
    23    21    22    1
    24    22    23    1
    25    23    24    1
    26    23    25    2
    27    17    26    1
    28    26    27   am
    29    27    28    2
    30    27    29    1
    31    29    30    1
    32    30    31    1
    33    31    32    1
    34    31    33    1
    35    29    33    1
    36    16    34   ar
    37    13    34   ar
    38     1    35    1
    39     1    36    1
    40     1    37    1
    41     6    38    1
    42     7    39    1
    43     8    40    1
    44     9    41    1
    45    11    42    1
    46    14    43    1
    47    15    44    1
    48    17    45    1
    49    18    46    1
    50    18    47    1
    51    19    48    1
    52    19    49    1
    53    20    50    1
    54    20    51    1
    55    21    52    1
    56    21    53    1
    57    22    54    1
    58    22    55    1
    59    24    56    1
    60    24    57    1
    61    24    58    1
    62    26    59    1
    63    29    60    1
    64    30    61    1
    65    30    62    1
    66    31    63    1
    67    32    64    1
    68    32    65    1
    69    32    66    1
    70    33    67    1
    71    33    68    1
