@<TRIPOS>MOLECULE
*****
 42 44 0 0 0
SMALL
USER_CHARGES

@<TRIPOS>ATOM
      1 C1          5.3347   -4.6200    0.0000 C.3     1  NONAME1     0.0788
      2 O1          6.6684   -5.3900    0.0000 O.3     1  NONAME1    -0.4951
      3 C2          6.5299   -6.7517   -0.0137 C.ar    1  NONAME1     0.1201
      4 C3          7.7269   -7.4468    0.0781 C.ar    1  NONAME1    -0.0194
      5 C4          7.7490   -8.8490    0.0793 C.ar    1  NONAME1    -0.0506
      6 C5          6.5820   -9.6361   -0.0333 C.ar    1  NONAME1    -0.0176
      7 C6          6.6541  -11.1436   -0.0660 C.ar    1  NONAME1    -0.0160
      8 C7          7.8945  -11.7966   -0.1726 C.ar    1  NONAME1    -0.0522
      9 C8          8.0151  -13.1877   -0.2034 C.ar    1  NONAME1    -0.0387
     10 C9          6.9040  -14.0234   -0.0912 C.ar    1  NONAME1     0.0461
     11 N1          7.1269  -15.3903   -0.3604 N.pl3   1  NONAME1    -0.3565
     12 C10         5.6269  -13.4273   -0.0169 C.ar    1  NONAME1     0.0551
     13 N2          4.3941  -14.1569    0.0192 N.am    1  NONAME1    -0.2799
     14 C11         4.2161  -15.4773    0.4081 C.2     1  NONAME1     0.2483
     15 O2          5.0734  -16.1799    0.9416 O.2     1  NONAME1    -0.2699
     16 C12         2.8825  -16.1103    0.1753 C.ar    1  NONAME1     0.0370
     17 C13         2.8479  -17.5129    0.0599 C.ar    1  NONAME1    -0.0496
     18 C14         1.6425  -18.1902   -0.1269 C.ar    1  NONAME1    -0.0610
     19 C15         0.4536  -17.4709   -0.1944 C.ar    1  NONAME1    -0.0617
     20 C16         0.4729  -16.0805   -0.0783 C.ar    1  NONAME1    -0.0610
     21 C17         1.6817  -15.3968    0.1071 C.ar    1  NONAME1    -0.0496
     22 C18         5.5271  -12.0034   -0.0111 C.ar    1  NONAME1    -0.0310
     23 C19         5.3809   -8.9031   -0.1194 C.ar    1  NONAME1    -0.0506
     24 C20         5.3510   -7.4844   -0.1067 C.ar    1  NONAME1    -0.0194
     25 H1          5.8007   -3.6895   -0.3693 H       1  NONAME1     0.0660
     26 H2          4.0010   -3.8500    0.0000 H       1  NONAME1     0.0660
     27 H3          5.2873   -4.5613    1.1035 H       1  NONAME1     0.0660
     28 H4          8.6632   -6.8987    0.1535 H       1  NONAME1     0.0654
     29 H5          8.7332   -9.2969    0.1758 H       1  NONAME1     0.0625
     30 H6          8.8257  -11.2481   -0.2681 H       1  NONAME1     0.0624
     31 H7          9.0050  -13.6188   -0.3348 H       1  NONAME1     0.0637
     32 H8          6.4094  -15.9636    0.0965 H       1  NONAME1     0.1424
     33 H9          8.0399  -15.7106   -0.0583 H       1  NONAME1     0.1424
     34 H10         3.5745  -13.6249   -0.2293 H       1  NONAME1     0.1552
     35 H11         3.7717  -18.0894    0.1194 H       1  NONAME1     0.0625
     36 H12         1.6352  -19.2748   -0.2077 H       1  NONAME1     0.0618
     37 H13        -0.4890  -17.9972   -0.3285 H       1  NONAME1     0.0618
     38 H14        -0.4630  -15.5283   -0.1198 H       1  NONAME1     0.0618
     39 H15         1.6505  -14.3203    0.2309 H       1  NONAME1     0.0625
     40 H16         4.5344  -11.5684    0.0608 H       1  NONAME1     0.0643
     41 H17         4.4261   -9.4142   -0.2072 H       1  NONAME1     0.0625
     42 H18         4.3862   -6.9929   -0.1779 H       1  NONAME1     0.0654
@<TRIPOS>BOND
     1     1     2    1
     2     2     3    1
     3     3     4   ar
     4     4     5   ar
     5     5     6   ar
     6     6     7    1
     7     7     8   ar
     8     8     9   ar
     9     9    10   ar
    10    10    11    1
    11    10    12   ar
    12    12    13    1
    13    13    14   am
    14    14    15    2
    15    14    16    1
    16    16    17   ar
    17    17    18   ar
    18    18    19   ar
    19    19    20   ar
    20    20    21   ar
    21    16    21   ar
    22    12    22   ar
    23     7    22   ar
    24     6    23   ar
    25    23    24   ar
    26     3    24   ar
    27     1    25    1
    28     1    26    1
    29     1    27    1
    30     4    28    1
    31     5    29    1
    32     8    30    1
    33     9    31    1
    34    11    32    1
    35    11    33    1
    36    13    34    1
    37    17    35    1
    38    18    36    1
    39    19    37    1
    40    20    38    1
    41    21    39    1
    42    22    40    1
    43    23    41    1
    44    24    42    1
