REMARK  4 active torsions:
REMARK  status: ('A' for Active; 'I' for Inactive)
REMARK    1  A    between atoms: N2_13  and  C12_14 
REMARK    2  A    between atoms: C12_14  and  C13_15 
REMARK    3  A    between atoms: C16_18  and  C17_19 
REMARK       I    between atoms: C17_19  and  N3_21 
REMARK    4  A    between atoms: N3_21  and  O2_22 
ROOT
ATOM      1  C1  NON d   1       7.269  -1.940   0.569  0.00  0.00     0.310 C 
ATOM      2  N1  NON d   1       6.522  -0.684   0.653  0.00  0.00     0.088 N 
ATOM      3  C2  NON d   1       7.277   0.417   0.019  0.00  0.00     0.278 C 
ATOM      4  C3  NON d   1       6.597   1.813   0.150  0.00  0.00     0.088 C 
ATOM      5  C4  NON d   1       5.120   1.701  -0.043  0.00  0.00     0.023 A 
ATOM      6  C5  NON d   1       4.487   0.464  -0.044  0.00  0.00     0.005 A 
ATOM      7  C6  NON d   1       3.089   0.683  -0.096  0.00  0.00     0.001 A 
ATOM      8  C7  NON d   1       1.966  -0.171  -0.086  0.00  0.00     0.014 A 
ATOM      9  C8  NON d   1       0.679   0.373  -0.114  0.00  0.00     0.001 A 
ATOM     10  C9  NON d   1       0.501   1.749  -0.162  0.00  0.00     0.002 A 
ATOM     11  C10 NON d   1       1.599   2.614  -0.192  0.00  0.00     0.030 A 
ATOM     12  C11 NON d   1       2.896   2.062  -0.152  0.00  0.00     0.045 A 
ATOM     13  N2  NON d   1       4.161   2.682  -0.161  0.00  0.00    -0.345 N 
ATOM     14  C20 NON d   1       5.201  -0.852   0.012  0.00  0.00     0.313 C 
ENDROOT
BRANCH  13  15
ATOM     15  C12 NON d   1       4.213   4.147  -0.322  0.00  0.00     0.167 C 
BRANCH  15  16
ATOM     16  C13 NON d   1       5.469   4.966  -0.181  0.00  0.00    -0.040 A 
ATOM     17  C14 NON d   1       5.464   6.056   0.717  0.00  0.00     0.010 A 
ATOM     18  C15 NON d   1       6.514   6.979   0.750  0.00  0.00     0.017 A 
ATOM     19  C16 NON d   1       7.614   6.804  -0.085  0.00  0.00     0.034 A 
ATOM     20  C18 NON d   1       7.638   5.740  -0.993  0.00  0.00     0.017 A 
ATOM     21  C19 NON d   1       6.550   4.859  -1.066  0.00  0.00     0.010 A 
BRANCH  19  22
ATOM     22  C17 NON d   1       8.713   7.797  -0.033  0.00  0.00     0.275 C 
ATOM     23  O1  NON d   1       8.491   9.000   0.066  0.00  0.00    -0.265 OA
ATOM     24  N3  NON d   1       9.986   7.273  -0.044  0.00  0.00    -0.233 N 
ATOM     25  H16 NON d   1      10.167   6.321   0.258  0.00  0.00     0.197 HD
BRANCH  24  26
ATOM     26  O2  NON d   1      11.017   8.211   0.207  0.00  0.00    -0.287 OA
ATOM     27  H17 NON d   1      10.525   9.062   0.242  0.00  0.00     0.244 HD
ENDBRANCH  24  26
ENDBRANCH  19  22
ENDBRANCH  15  16
ENDBRANCH  13  15
TORSDOF 4
