REMARK  4 active torsions:
REMARK  status: ('A' for Active; 'I' for Inactive)
REMARK    1  A    between atoms: C1_2  and  C2_3 
REMARK       I    between atoms: C1_2  and  N1_16 
REMARK    2  A    between atoms: C3_4  and  C4_5 
REMARK    3  A    between atoms: C7_8  and  C8_9 
REMARK    4  A    between atoms: N1_16  and  O2_17 
ROOT
ATOM      1  C4  NON d   1       1.211  11.030   0.002  0.00  0.00    -0.036 A 
ATOM      2  C5  NON d   1       2.425  10.333   0.002  0.00  0.00     0.012 A 
ATOM      3  C6  NON d   1       2.460   8.930   0.002  0.00  0.00     0.013 A 
ATOM      4  C7  NON d   1       1.284   8.164   0.001  0.00  0.00    -0.019 A 
ATOM      5  C12 NON d   1       0.072   8.871   0.001  0.00  0.00     0.013 A 
ATOM      6  C13 NON d   1       0.034  10.275   0.001  0.00  0.00     0.012 A 
ENDROOT
BRANCH   1   7
ATOM      7  C3  NON d   1       1.246  12.507  -0.001  0.00  0.00     0.017 C 
ATOM      8  C2  NON d   1       0.172  13.315   0.005  0.00  0.00     0.077 C 
BRANCH   8   9
ATOM      9  C1  NON d   1       0.153  14.807  -0.003  0.00  0.00     0.264 C 
ATOM     10  O1  NON d   1      -0.937  15.373   0.008  0.00  0.00    -0.266 OA
ATOM     11  N1  NON d   1       1.368  15.435  -0.027  0.00  0.00    -0.234 N 
ATOM     12  H10 NON d   1       2.263  14.967  -0.015  0.00  0.00     0.197 HD
BRANCH  11  13
ATOM     13  O2  NON d   1       1.348  16.845  -0.039  0.00  0.00    -0.287 OA
ATOM     14  H11 NON d   1       2.281  17.098   0.061  0.00  0.00     0.244 HD
ENDBRANCH  11  13
ENDBRANCH   8   9
ENDBRANCH   1   7
BRANCH   4  15
ATOM     15  C8  NON d   1       1.351   6.680   0.001  0.00  0.00     0.015 A 
ATOM     16  C9  NON d   1       2.467   5.854   0.000  0.00  0.00     0.020 A 
ATOM     17  C10 NON d   1       2.149   4.464   0.001  0.00  0.00     0.008 A 
ATOM     18  C11 NON d   1       0.792   4.251   0.001  0.00  0.00     0.050 A 
ATOM     19  S1  NON d   1      -0.081   5.715   0.001  0.00  0.00    -0.101 SA
ENDBRANCH   4  15
TORSDOF 4
