@<TRIPOS>MOLECULE
*****
 72 73 0 0 0
SMALL
USER_CHARGES

@<TRIPOS>ATOM
      1 C1          9.8981   -3.5596    0.6906 C.3     1  NONAME1    -0.0446
      2 C2          9.7775   -2.0788    0.4547 C.2     1  NONAME1    -0.0608
      3 C3          8.7359   -1.2581    0.7332 C.2     1  NONAME1     0.0917
      4 N1          7.6649   -1.7398    1.4590 N.am    1  NONAME1    -0.2801
      5 C4          6.3038   -1.5974    1.3825 C.2     1  NONAME1     0.2385
      6 O1          5.6376   -2.2783    2.1690 O.2     1  NONAME1    -0.2734
      7 C5          5.5998   -0.6716    0.3567 C.3     1  NONAME1     0.1095
      8 C6          6.0408   -1.0790   -1.0660 C.3     1  NONAME1     0.0309
      9 S1          4.9105   -1.8293   -2.2894 S.3     1  NONAME1    -0.0908
     10 S2          3.9597   -0.2895   -3.2752 S.3     1  NONAME1    -0.0928
     11 C7          5.1895    1.0813   -3.3662 C.3     1  NONAME1     0.0074
     12 C8          4.9693    1.8935   -2.1051 C.3     1  NONAME1    -0.0248
     13 C9          6.0825    2.7121   -1.5018 C.2     1  NONAME1    -0.0837
     14 C10         6.1927    2.6337   -0.1703 C.2     1  NONAME1    -0.0474
     15 C11         6.3863    3.7191    0.8208 C.3     1  NONAME1     0.1295
     16 C12         5.1101    4.6107    0.7196 C.3     1  NONAME1     0.0647
     17 C13         3.8228    3.8310    0.3269 C.2     1  NONAME1     0.2175
     18 O2          3.1782    4.1922   -0.6460 O.2     1  NONAME1    -0.2757
     19 N2          3.5500    2.6557    1.0211 N.am    1  NONAME1    -0.3036
     20 C14         2.6479    1.5736    0.5155 C.3     1  NONAME1     0.1017
     21 C15         1.1333    1.9015    0.8995 C.3     1  NONAME1    -0.0197
     22 C16         0.1222    0.7887    0.5508 C.3     1  NONAME1    -0.0605
     23 C17         0.5991    3.1759    0.2191 C.3     1  NONAME1    -0.0605
     24 C18         3.0705    0.0958    0.9841 C.2     1  NONAME1     0.2342
     25 O3          2.2918   -0.5349    1.7192 O.2     1  NONAME1    -0.2738
     26 N3          4.1312   -0.6880    0.6469 N.am    1  NONAME1    -0.3017
     27 O4          7.6036    4.4332    0.6206 O.3     1  NONAME1    -0.4554
     28 C19         8.7276    3.9852    0.0197 C.2     1  NONAME1     0.3285
     29 O5          9.3963    4.8390   -0.5636 O.2     1  NONAME1    -0.2487
     30 C20         9.2375    2.4942    0.0689 C.3     1  NONAME1     0.1230
     31 C21        10.7750    2.4848    0.4140 C.3     1  NONAME1    -0.0178
     32 C22        11.1668    3.4780    1.5155 C.3     1  NONAME1    -0.0605
     33 C23        11.6529    2.6649   -0.8352 C.3     1  NONAME1    -0.0605
     34 N4          8.6439    1.2629    0.7065 N.am    1  NONAME1    -0.2971
     35 C24         8.8069    0.0676    0.0031 C.2     1  NONAME1     0.2586
     36 O6          9.0877    0.0499   -1.1958 O.2     1  NONAME1    -0.2688
     37 H1          8.9788   -4.0215    1.0605 H       1  NONAME1     0.0272
     38 H2         10.1306   -4.0538   -0.2624 H       1  NONAME1     0.0272
     39 H3         10.7119   -3.7837    1.3860 H       1  NONAME1     0.0272
     40 H4         10.6027   -1.6911   -0.1485 H       1  NONAME1     0.0589
     41 H5          7.8731   -2.5332    2.0609 H       1  NONAME1     0.1550
     42 H6          6.0224    0.2640    0.6635 H       1  NONAME1     0.0603
     43 H7          6.5447   -0.2349   -1.5364 H       1  NONAME1     0.0407
     44 H8          6.8257   -1.8395   -1.0069 H       1  NONAME1     0.0407
     45 H9          6.2088    0.7111   -3.4890 H       1  NONAME1     0.0387
     46 H10         4.9411    1.7042   -4.2302 H       1  NONAME1     0.0387
     47 H11         4.1353    2.5798   -2.2912 H       1  NONAME1     0.0315
     48 H12         4.6111    1.2236   -1.3215 H       1  NONAME1     0.0315
     49 H13         6.4445    3.5764   -2.0515 H       1  NONAME1     0.0570
     50 H14         5.6393    1.8779    0.3413 H       1  NONAME1     0.0605
     51 H15         6.4231    3.3229    1.8408 H       1  NONAME1     0.0784
     52 H16         5.2801    5.3513   -0.0792 H       1  NONAME1     0.0398
     53 H17         4.9291    5.1967    1.6256 H       1  NONAME1     0.0398
     54 H18         3.8165    2.6001    1.9940 H       1  NONAME1     0.1495
     55 H19         2.6840    1.5770   -0.5764 H       1  NONAME1     0.0597
     56 H20         1.0815    2.0661    1.9840 H       1  NONAME1     0.0318
     57 H21        -0.9092    1.1628    0.5726 H       1  NONAME1     0.0233
     58 H22         0.3058    0.3744   -0.4447 H       1  NONAME1     0.0233
     59 H23         0.1337   -0.0229    1.2819 H       1  NONAME1     0.0233
     60 H24         0.7570    3.1413   -0.8646 H       1  NONAME1     0.0233
     61 H25         1.0638    4.0761    0.6271 H       1  NONAME1     0.0233
     62 H26        -0.4791    3.2966    0.3832 H       1  NONAME1     0.0233
     63 H27         3.9200   -1.5833    1.0894 H       1  NONAME1     0.1495
     64 H28         9.1526    2.2676   -1.0029 H       1  NONAME1     0.0617
     65 H29        11.0397    1.4965    0.8174 H       1  NONAME1     0.0319
     66 H30        10.5132    3.3748    2.3871 H       1  NONAME1     0.0233
     67 H31        11.1292    4.5164    1.1729 H       1  NONAME1     0.0233
     68 H32        12.1952    3.2921    1.8439 H       1  NONAME1     0.0233
     69 H33        12.5296    3.2890   -0.6362 H       1  NONAME1     0.0233
     70 H34        12.0185    1.6880   -1.1725 H       1  NONAME1     0.0233
     71 H35        11.1088    3.1085   -1.6744 H       1  NONAME1     0.0233
     72 H36         8.6073    1.2163    1.7168 H       1  NONAME1     0.1499
@<TRIPOS>BOND
     1     1     2    1
     2     2     3    2
     3     3     4    1
     4     4     5   am
     5     5     6    2
     6     7     5    1
     7     7     8    1
     8     8     9    1
     9     9    10    1
    10    10    11    1
    11    11    12    1
    12    12    13    1
    13    13    14    2
    14    15    14    1
    15    15    16    1
    16    16    17    1
    17    17    18    2
    18    17    19   am
    19    20    19    1
    20    20    21    1
    21    21    22    1
    22    21    23    1
    23    20    24    1
    24    24    25    2
    25    24    26   am
    26     7    26    1
    27    15    27    1
    28    27    28    1
    29    28    29    2
    30    30    28    1
    31    30    31    1
    32    31    32    1
    33    31    33    1
    34    30    34    1
    35    34    35   am
    36     3    35    1
    37    35    36    2
    38     1    37    1
    39     1    38    1
    40     1    39    1
    41     2    40    1
    42     4    41    1
    43     7    42    1
    44     8    43    1
    45     8    44    1
    46    11    45    1
    47    11    46    1
    48    12    47    1
    49    12    48    1
    50    13    49    1
    51    14    50    1
    52    15    51    1
    53    16    52    1
    54    16    53    1
    55    19    54    1
    56    20    55    1
    57    21    56    1
    58    22    57    1
    59    22    58    1
    60    22    59    1
    61    23    60    1
    62    23    61    1
    63    23    62    1
    64    26    63    1
    65    30    64    1
    66    31    65    1
    67    32    66    1
    68    32    67    1
    69    32    68    1
    70    33    69    1
    71    33    70    1
    72    33    71    1
    73    34    72    1
