@<TRIPOS>MOLECULE
*****
 74 77 0 0 0
SMALL
USER_CHARGES

@<TRIPOS>ATOM
      1 N1          6.0968  -17.1201   -0.0840 N.pl3   1  NONAME1    -0.3565
      2 C1          4.9399  -17.9359   -0.0180 C.ar    1  NONAME1     0.0461
      3 C2          5.0812  -19.3285   -0.0977 C.ar    1  NONAME1    -0.0392
      4 C3          3.9625  -20.1597   -0.0347 C.ar    1  NONAME1    -0.0599
      5 C4          2.6930  -19.6007    0.0732 C.ar    1  NONAME1    -0.0599
      6 C5          2.5340  -18.2083    0.0937 C.ar    1  NONAME1    -0.0387
      7 C6          3.6494  -17.3621    0.0200 C.ar    1  NONAME1     0.0545
      8 N2          3.5525  -15.9434   -0.0423 N.am    1  NONAME1    -0.2804
      9 C7          2.4150  -15.1636    0.0318 C.2     1  NONAME1     0.2411
     10 O1          1.2665  -15.5615    0.1893 O.2     1  NONAME1    -0.2705
     11 C8          2.6991  -13.6881   -0.0805 C.2     1  NONAME1     0.0010
     12 C9          1.6794  -12.8077   -0.0312 C.2     1  NONAME1    -0.0497
     13 C10         1.7353  -11.3283   -0.1040 C.ar    1  NONAME1    -0.0249
     14 C11         0.5683  -10.6261   -0.4225 C.ar    1  NONAME1    -0.0541
     15 C12         0.5408   -9.2144   -0.4760 C.ar    1  NONAME1    -0.0522
     16 C13         1.6604   -8.4226   -0.1391 C.ar    1  NONAME1     0.0092
     17 C14         1.6141   -6.8727   -0.2134 C.3     1  NONAME1     0.0810
     18 N3          0.2251   -6.2683    0.1224 N.4     1  NONAME1     0.2400
     19 C15        -0.3298   -6.2893    1.5335 C.3     1  NONAME1    -0.0196
     20 C16        -1.0236   -7.6226    1.9040 C.3     1  NONAME1     0.0392
     21 N4         -2.0080   -7.5227    3.0075 N.3     1  NONAME1    -0.2930
     22 C17        -3.3722   -7.1844    2.5094 C.3     1  NONAME1     0.0226
     23 C18        -4.4726   -7.3073    3.5847 C.3     1  NONAME1     0.0604
     24 O2         -4.4859   -8.6186    4.1524 O.3     1  NONAME1    -0.3772
     25 C19        -3.2203   -8.8975    4.7586 C.3     1  NONAME1     0.0604
     26 C20        -2.0924   -8.8340    3.7147 C.3     1  NONAME1     0.0226
     27 C21         2.8292   -6.0480    0.4314 C.2     1  NONAME1     0.2701
     28 O3          3.5083   -6.5115    1.3449 O.2     1  NONAME1    -0.2689
     29 N5          3.0426   -4.7513   -0.0796 N.am    1  NONAME1    -0.2806
     30 C22         4.2517   -3.9724    0.0410 C.ar    1  NONAME1     0.0336
     31 C23         4.2032   -2.5770   -0.1288 C.ar    1  NONAME1    -0.0399
     32 C24         5.3786   -1.7628   -0.1205 C.ar    1  NONAME1    -0.0484
     33 C25         6.6684   -2.3100    0.0000 C.ar    1  NONAME1     0.0549
     34 C26         8.0021   -1.5400    0.0000 C.3     1  NONAME1     0.4174
     35 F1          9.3358   -0.7700    0.0000 F       1  NONAME1    -0.1659
     36 F2          8.5531   -2.3512   -1.0454 F       1  NONAME1    -0.1659
     37 F3          7.4601   -0.4298   -0.7273 F       1  NONAME1    -0.1659
     38 C27         6.6881   -3.7182    0.1941 C.ar    1  NONAME1    -0.0484
     39 C28         5.5160   -4.5285    0.2229 C.ar    1  NONAME1    -0.0399
     40 C29         2.8354   -9.1444    0.1411 C.ar    1  NONAME1    -0.0522
     41 C30         2.8705  -10.5624    0.1654 C.ar    1  NONAME1    -0.0541
     42 H1          6.9505  -17.6647    0.0172 H       1  NONAME1     0.1424
     43 H2          6.0636  -16.3934    0.6258 H       1  NONAME1     0.1424
     44 H3          6.0643  -19.7834   -0.1839 H       1  NONAME1     0.0636
     45 H4          4.0819  -21.2395   -0.0691 H       1  NONAME1     0.0618
     46 H5          1.8177  -20.2423    0.1252 H       1  NONAME1     0.0618
     47 H6          1.5240  -17.8166    0.1433 H       1  NONAME1     0.0637
     48 H7          4.4387  -15.4953   -0.2320 H       1  NONAME1     0.1552
     49 H8          3.7293  -13.3822   -0.1946 H       1  NONAME1     0.0670
     50 H9          0.6699  -13.2127    0.0709 H       1  NONAME1     0.0625
     51 H10        -0.3464  -11.1776   -0.6489 H       1  NONAME1     0.0624
     52 H11        -0.4035   -8.7805   -0.7927 H       1  NONAME1     0.0623
     53 H12         1.7036   -6.6679   -1.2903 H       1  NONAME1     0.1003
     54 H13         0.2480   -5.2850   -0.1632 H       1  NONAME1     0.2025
     55 H14        -0.4707   -6.6954   -0.5010 H       1  NONAME1     0.2025
     56 H15         0.4768   -6.0232    2.2215 H       1  NONAME1     0.0827
     57 H16        -1.0704   -5.4809    1.5390 H       1  NONAME1     0.0827
     58 H17        -0.2217   -8.3110    2.1953 H       1  NONAME1     0.0479
     59 H18        -1.5164   -8.0578    1.0281 H       1  NONAME1     0.0479
     60 H19        -3.6408   -7.8595    1.6860 H       1  NONAME1     0.0449
     61 H20        -3.3797   -6.1604    2.1208 H       1  NONAME1     0.0449
     62 H21        -5.4549   -7.1412    3.1290 H       1  NONAME1     0.0572
     63 H22        -4.3464   -6.5664    4.3822 H       1  NONAME1     0.0572
     64 H23        -3.0483   -8.1961    5.5834 H       1  NONAME1     0.0572
     65 H24        -3.2714   -9.9053    5.1840 H       1  NONAME1     0.0572
     66 H25        -1.1410   -9.0292    4.2223 H       1  NONAME1     0.0449
     67 H26        -2.2582   -9.6321    2.9791 H       1  NONAME1     0.0449
     68 H27         2.2766   -4.2411   -0.4967 H       1  NONAME1     0.1550
     69 H28         3.2486   -2.0691   -0.2526 H       1  NONAME1     0.0636
     70 H29         5.2582   -0.6842   -0.2346 H       1  NONAME1     0.0624
     71 H30         7.6514   -4.2252    0.2915 H       1  NONAME1     0.0624
     72 H31         5.6447   -5.6030    0.3345 H       1  NONAME1     0.0636
     73 H32         3.7778   -8.6395    0.3508 H       1  NONAME1     0.0623
     74 H33         3.8133  -11.0482    0.4104 H       1  NONAME1     0.0624
@<TRIPOS>BOND
     1     1     2    1
     2     2     3   ar
     3     3     4   ar
     4     4     5   ar
     5     5     6   ar
     6     6     7   ar
     7     2     7   ar
     8     7     8    1
     9     8     9   am
    10     9    10    2
    11     9    11    1
    12    11    12    2
    13    12    13    1
    14    13    14   ar
    15    14    15   ar
    16    15    16   ar
    17    16    17    1
    18    17    18    1
    19    18    19    1
    20    19    20    1
    21    20    21    1
    22    21    22    1
    23    22    23    1
    24    23    24    1
    25    24    25    1
    26    25    26    1
    27    21    26    1
    28    17    27    1
    29    27    28    2
    30    27    29   am
    31    29    30    1
    32    30    31   ar
    33    31    32   ar
    34    32    33   ar
    35    33    34    1
    36    34    35    1
    37    34    36    1
    38    34    37    1
    39    33    38   ar
    40    38    39   ar
    41    30    39   ar
    42    16    40   ar
    43    40    41   ar
    44    13    41   ar
    45     1    42    1
    46     1    43    1
    47     3    44    1
    48     4    45    1
    49     5    46    1
    50     6    47    1
    51     8    48    1
    52    11    49    1
    53    12    50    1
    54    14    51    1
    55    15    52    1
    56    17    53    1
    57    18    54    1
    58    18    55    1
    59    19    56    1
    60    19    57    1
    61    20    58    1
    62    20    59    1
    63    22    60    1
    64    22    61    1
    65    23    62    1
    66    23    63    1
    67    25    64    1
    68    25    65    1
    69    26    66    1
    70    26    67    1
    71    29    68    1
    72    31    69    1
    73    32    70    1
    74    38    71    1
    75    39    72    1
    76    40    73    1
    77    41    74    1
