REMARK  7 active torsions:
REMARK  status: ('A' for Active; 'I' for Inactive)
REMARK    1  A    between atoms: N1_1  and  C1_2 
REMARK    2  A    between atoms: C6_7  and  N2_8 
REMARK       I    between atoms: N2_8  and  C7_9 
REMARK    3  A    between atoms: C7_9  and  C8_11 
REMARK    4  A    between atoms: C11_14  and  C12_15 
REMARK    5  A    between atoms: C12_15  and  N3_16 
REMARK    6  A    between atoms: N3_16  and  C13_17 
REMARK    7  A    between atoms: C16_21  and  C17_22 
ROOT
ATOM      1  C8  NON d   1      -1.372  12.425   0.079  0.00  0.00     0.032 A 
ATOM      2  C9  NON d   1      -0.122  13.052  -0.013  0.00  0.00     0.017 A 
ATOM      3  C10 NON d   1       1.054  12.304  -0.090  0.00  0.00     0.009 A 
ATOM      4  C11 NON d   1       1.026  10.900  -0.067  0.00  0.00    -0.045 A 
ATOM      5  C20 NON d   1      -0.224  10.271   0.014  0.00  0.00     0.009 A 
ATOM      6  C21 NON d   1      -1.413  11.024   0.093  0.00  0.00     0.017 A 
ENDROOT
BRANCH   4   7
ATOM      7  C12 NON d   1       2.354  10.174  -0.202  0.00  0.00     0.134 C 
BRANCH   7   8
ATOM      8  N3  NON d   1       2.358   8.832   0.347  0.00  0.00    -0.257 NA
ATOM      9  H12 NON d   1       1.717   8.173  -0.080  0.00  0.00     0.131 HD
BRANCH   8  10
ATOM     10  C13 NON d   1       3.608   8.216   0.268  0.00  0.00     0.202 A 
ATOM     11  N4  NON d   1       4.727   8.955   0.295  0.00  0.00    -0.231 NA
ATOM     12  C14 NON d   1       5.898   8.307   0.209  0.00  0.00     0.122 A 
ATOM     13  C15 NON d   1       5.998   6.946   0.098  0.00  0.00     0.053 A 
ATOM     14  C16 NON d   1       4.803   6.257   0.078  0.00  0.00     0.092 A 
ATOM     15  N7  NON d   1       3.605   6.887   0.147  0.00  0.00    -0.216 NA
BRANCH  14  16
ATOM     16  C17 NON d   1       4.787   4.783  -0.008  0.00  0.00     0.107 A 
ATOM     17  C18 NON d   1       5.904   3.891   0.010  0.00  0.00     0.054 A 
ATOM     18  C19 NON d   1       5.378   2.625  -0.074  0.00  0.00     0.112 A 
ATOM     19  N5  NON d   1       4.030   2.793  -0.137  0.00  0.00    -0.289 N 
ATOM     20  N6  NON d   1       3.647   4.075  -0.114  0.00  0.00    -0.173 NA
ATOM     21  H17 NON d   1       3.310   2.080  -0.197  0.00  0.00     0.188 HD
ENDBRANCH  14  16
ENDBRANCH   8  10
ENDBRANCH   7   8
ENDBRANCH   4   7
BRANCH   1  22
ATOM     22  C7  NON d   1      -2.572  13.322   0.177  0.00  0.00     0.256 C 
ATOM     23  N2  NON d   1      -3.817  12.749   0.003  0.00  0.00    -0.321 N 
ATOM     24  H7  NON d   1      -3.901  11.758  -0.185  0.00  0.00     0.169 HD
ATOM     25  O1  NON d   1      -2.374  14.514   0.402  0.00  0.00    -0.267 OA
BRANCH  23  26
ATOM     26  C6  NON d   1      -5.070  13.412  -0.016  0.00  0.00     0.056 A 
ATOM     27  C5  NON d   1      -5.227  14.798   0.049  0.00  0.00     0.031 A 
ATOM     28  C4  NON d   1      -6.500  15.373  -0.000  0.00  0.00     0.002 A 
ATOM     29  C3  NON d   1      -7.628  14.566  -0.105  0.00  0.00     0.002 A 
ATOM     30  C2  NON d   1      -7.487  13.179  -0.159  0.00  0.00     0.025 A 
ATOM     31  C1  NON d   1      -6.214  12.595  -0.138  0.00  0.00     0.033 A 
BRANCH  31  32
ATOM     32  N1  NON d   1      -6.083  11.182  -0.052  0.00  0.00    -0.301 NA
ATOM     33  H1  NON d   1      -6.954  10.718  -0.303  0.00  0.00     0.124 HD
ATOM     34  H2  NON d   1      -5.844  10.935   0.908  0.00  0.00     0.124 HD
ENDBRANCH  31  32
ENDBRANCH  23  26
ENDBRANCH   1  22
TORSDOF 7
