@<TRIPOS>MOLECULE
*****
 48 48 0 0 0
SMALL
USER_CHARGES

@<TRIPOS>ATOM
      1 C1         -8.0021    1.5400    0.0000 C.1     1  NONAME11   -0.1158
      2 C2         -6.6684    2.3100    0.0000 C.1     1  NONAME11   -0.0648
      3 C3         -5.3347    3.0800    0.0000 C.3     1  NONAME11    0.1496
      4 O1         -5.4094    4.4987   -0.0632 O.3     1  NONAME11   -0.4795
      5 C4         -4.1562    5.0905   -0.0612 C.ar    1  NONAME11    0.1219
      6 C5         -4.1291    6.4782   -0.2274 C.ar    1  NONAME11   -0.0193
      7 C6         -2.9077    7.1732   -0.2682 C.ar    1  NONAME11   -0.0496
      8 C7         -1.7043    6.4771   -0.1267 C.ar    1  NONAME11   -0.0052
      9 C8         -0.4061    7.1811   -0.2135 C.2     1  NONAME11    0.0528
     10 N1          0.6931    6.5770    0.1054 N.2     1  NONAME11   -0.1877
     11 N2          1.8537    7.2617   -0.0948 N.am    1  NONAME11   -0.2070
     12 C9          3.0548    6.6977    0.3262 C.2     1  NONAME11    0.2322
     13 O2          3.1517    5.7156    1.0560 O.2     1  NONAME11   -0.2741
     14 C10         4.2566    7.4504   -0.2254 C.3     1  NONAME11    0.0256
     15 C11         5.6129    6.8326    0.1220 C.3     1  NONAME11   -0.0447
     16 C12         6.0936    5.7308   -0.8365 C.3     1  NONAME11   -0.0526
     17 C13         5.2654    4.4465   -0.7891 C.3     1  NONAME11   -0.0526
     18 C14         5.7825    3.3223   -1.6978 C.3     1  NONAME11   -0.0447
     19 C15         7.0788    2.6725   -1.2139 C.3     1  NONAME11    0.0259
     20 C16         8.3333    3.3937   -1.6600 C.2     1  NONAME11    0.2354
     21 O3          8.3959    4.1662   -2.6129 O.2     1  NONAME11   -0.2737
     22 N3          9.4415    3.0755   -0.9101 N.am    1  NONAME11   -0.1975
     23 O4         10.6635    3.6298   -1.3549 O.3     1  NONAME11   -0.2952
     24 C17        -1.7216    5.0964    0.0595 C.ar    1  NONAME11   -0.0496
     25 C18        -2.9370    4.4101    0.0877 C.ar    1  NONAME11   -0.0193
     26 H1         -8.9278    1.0121   -0.0003 H       1  NONAME11    0.1229
     27 H2         -4.7752    2.6947   -0.8631 H       1  NONAME11    0.0837
     28 H3         -4.8419    2.7741    0.9326 H       1  NONAME11    0.0837
     29 H4         -5.0638    7.0238   -0.3341 H       1  NONAME11    0.0654
     30 H5         -2.9142    8.2507   -0.4058 H       1  NONAME11    0.0625
     31 H6         -0.4209    8.2272   -0.5663 H       1  NONAME11    0.0851
     32 H7          1.8449    8.1041   -0.6575 H       1  NONAME11    0.1772
     33 H8          4.1508    7.5509   -1.3118 H       1  NONAME11    0.0359
     34 H9          4.2174    8.4577    0.2080 H       1  NONAME11    0.0359
     35 H10         6.3609    7.6348    0.0805 H       1  NONAME11    0.0270
     36 H11         5.6217    6.4562    1.1516 H       1  NONAME11    0.0270
     37 H12         7.1295    5.5044   -0.5635 H       1  NONAME11    0.0265
     38 H13         6.1132    6.1185   -1.8621 H       1  NONAME11    0.0265
     39 H14         5.2073    4.0803    0.2429 H       1  NONAME11    0.0265
     40 H15         4.2426    4.6708   -1.1099 H       1  NONAME11    0.0265
     41 H16         5.0100    2.5423   -1.7125 H       1  NONAME11    0.0270
     42 H17         5.8764    3.6850   -2.7276 H       1  NONAME11    0.0270
     43 H18         7.0742    2.5681   -0.1230 H       1  NONAME11    0.0359
     44 H19         7.1433    1.6628   -1.6393 H       1  NONAME11    0.0359
     45 H20         9.4987    2.2500   -0.3242 H       1  NONAME11    0.1822
     46 H21        10.3802    4.1641   -2.1298 H       1  NONAME11    0.2414
     47 H22        -0.7919    4.5397    0.1692 H       1  NONAME11    0.0625
     48 H23        -2.8730    3.3353    0.2253 H       1  NONAME11    0.0654
@<TRIPOS>BOND
     1     1     2    3
     2     2     3    1
     3     3     4    1
     4     4     5    1
     5     5     6   ar
     6     6     7   ar
     7     7     8   ar
     8     8     9    1
     9     9    10    2
    10    10    11    1
    11    11    12   am
    12    12    13    2
    13    12    14    1
    14    14    15    1
    15    15    16    1
    16    16    17    1
    17    17    18    1
    18    18    19    1
    19    19    20    1
    20    20    21    2
    21    20    22   am
    22    22    23    1
    23     8    24   ar
    24    24    25   ar
    25     5    25   ar
    26     1    26    1
    27     3    27    1
    28     3    28    1
    29     6    29    1
    30     7    30    1
    31     9    31    1
    32    11    32    1
    33    14    33    1
    34    14    34    1
    35    15    35    1
    36    15    36    1
    37    16    37    1
    38    16    38    1
    39    17    39    1
    40    17    40    1
    41    18    41    1
    42    18    42    1
    43    19    43    1
    44    19    44    1
    45    22    45    1
    46    23    46    1
    47    24    47    1
    48    25    48    1
