@<TRIPOS>MOLECULE
*****
 28 29 0 0 0
SMALL
USER_CHARGES

@<TRIPOS>ATOM
      1 O1         -0.9369   15.3730    0.0080 O.2     1  NONAME1    -0.2687
      2 C1          0.1527   14.8067   -0.0034 C.2     1  NONAME1     0.2593
      3 C2          0.1724   13.3150    0.0050 C.2     1  NONAME1     0.0027
      4 C3          1.2460   12.5071   -0.0007 C.2     1  NONAME1    -0.0496
      5 C4          1.2108   11.0297    0.0016 C.ar    1  NONAME1    -0.0248
      6 C5          2.4252   10.3330    0.0019 C.ar    1  NONAME1    -0.0540
      7 C6          2.4598    8.9295    0.0017 C.ar    1  NONAME1    -0.0530
      8 C7          1.2839    8.1642    0.0010 C.ar    1  NONAME1    -0.0113
      9 C8          1.3508    6.6804    0.0006 C.ar    1  NONAME1     0.0193
     10 C9          2.4669    5.8544    0.0004 C.ar    1  NONAME1    -0.0469
     11 C10         2.1487    4.4640    0.0006 C.ar    1  NONAME1    -0.0541
     12 C11         0.7921    4.2508    0.0010 C.ar    1  NONAME1    -0.0237
     13 S1         -0.0805    5.7150    0.0011 S.2     1  NONAME1    -0.0967
     14 C12         0.0718    8.8713    0.0008 C.ar    1  NONAME1    -0.0530
     15 C13         0.0342   10.2752    0.0008 C.ar    1  NONAME1    -0.0540
     16 N1          1.3682   15.4349   -0.0274 N.am    1  NONAME1    -0.1940
     17 O2          1.3479   16.8448   -0.0387 O.3     1  NONAME1    -0.2949
     18 H1         -0.8373   12.9164    0.0126 H       1  NONAME1     0.0670
     19 H2          2.2473   12.9225   -0.0092 H       1  NONAME1     0.0625
     20 H3          3.3726   10.8680    0.0020 H       1  NONAME1     0.0624
     21 H4          3.4363    8.4528    0.0017 H       1  NONAME1     0.0624
     22 H5          3.4871    6.2160   -0.0005 H       1  NONAME1     0.0629
     23 H6          2.8790    3.6645    0.0003 H       1  NONAME1     0.0623
     24 H7          0.2691    3.3042    0.0004 H       1  NONAME1     0.0693
     25 H8         -0.8838    8.3517   -0.0004 H       1  NONAME1     0.0624
     26 H9         -0.9443   10.7479   -0.0012 H       1  NONAME1     0.0624
     27 H10         2.2626   14.9670   -0.0150 H       1  NONAME1     0.1825
     28 H11         2.2812   17.0977    0.0606 H       1  NONAME1     0.2414
@<TRIPOS>BOND
     1     1     2    2
     2     2     3    1
     3     3     4    2
     4     4     5    1
     5     5     6   ar
     6     6     7   ar
     7     7     8   ar
     8     8     9    1
     9     9    10   ar
    10    10    11   ar
    11    11    12   ar
    12    12    13   ar
    13     9    13   ar
    14     8    14   ar
    15    14    15   ar
    16     5    15   ar
    17     2    16   am
    18    16    17    1
    19     3    18    1
    20     4    19    1
    21     6    20    1
    22     7    21    1
    23    10    22    1
    24    11    23    1
    25    12    24    1
    26    14    25    1
    27    15    26    1
    28    16    27    1
    29    17    28    1
