REMARK  11 active torsions:
REMARK  status: ('A' for Active; 'I' for Inactive)
REMARK    1  A    between atoms: C1_2  and  C2_3 
REMARK       I    between atoms: C1_2  and  N3_27 
REMARK    2  A    between atoms: C3_4  and  C4_5 
REMARK    3  A    between atoms: C7_8  and  C8_9 
REMARK    4  A    between atoms: C8_9  and  N1_10 
REMARK    5  A    between atoms: N1_10  and  C9_11 
REMARK    6  A    between atoms: N1_10  and  C11_14 
REMARK    7  A    between atoms: C9_11  and  C10_12 
REMARK    8  A    between atoms: C10_12  and  O2_13 
REMARK    9  A    between atoms: C11_14  and  C12_15 
REMARK   10  A    between atoms: C12_15  and  C13_16 
REMARK   11  A    between atoms: N3_27  and  O3_28 
ROOT
ATOM      1  N1  NON d   1       8.411   3.376  -0.122  0.00  0.00    -0.065 N 
ATOM      2  H7  NON d   1       8.711   3.344  -1.103  0.00  0.00     0.280 HD
ENDROOT
BRANCH   1   3
ATOM      3  C8  NON d   1       8.259   4.885   0.059  0.00  0.00     0.273 C 
BRANCH   3   4
ATOM      4  C7  NON d   1       7.869   5.565   1.356  0.00  0.00    -0.033 A 
ATOM      5  C6  NON d   1       7.574   6.940   1.275  0.00  0.00     0.009 A 
ATOM      6  C5  NON d   1       7.095   7.660   2.377  0.00  0.00     0.012 A 
ATOM      7  C4  NON d   1       6.880   7.034   3.608  0.00  0.00    -0.036 A 
ATOM      8  C22 NON d   1       7.251   5.691   3.723  0.00  0.00     0.012 A 
ATOM      9  C21 NON d   1       7.757   4.974   2.618  0.00  0.00     0.009 A 
BRANCH   7  10
ATOM     10  C3  NON d   1       6.313   7.838   4.710  0.00  0.00     0.017 C 
ATOM     11  C2  NON d   1       5.583   7.361   5.730  0.00  0.00     0.077 C 
BRANCH  11  12
ATOM     12  C1  NON d   1       4.971   8.178   6.825  0.00  0.00     0.264 C 
ATOM     13  O1  NON d   1       4.575   7.619   7.844  0.00  0.00    -0.266 OA
ATOM     14  N3  NON d   1       4.851   9.522   6.583  0.00  0.00    -0.234 N 
ATOM     15  H25 NON d   1       4.918   9.910   5.651  0.00  0.00     0.197 HD
BRANCH  14  16
ATOM     16  O3  NON d   1       4.029  10.250   7.474  0.00  0.00    -0.287 OA
ATOM     17  H26 NON d   1       4.542  10.209   8.304  0.00  0.00     0.244 HD
ENDBRANCH  14  16
ENDBRANCH  11  12
ENDBRANCH   7  10
ENDBRANCH   3   4
ENDBRANCH   1   3
BRANCH   1  18
ATOM     18  C9  NON d   1       7.124   2.564  -0.240  0.00  0.00     0.261 C 
BRANCH  18  19
ATOM     19  C10 NON d   1       6.163   2.615   0.943  0.00  0.00     0.192 C 
BRANCH  19  20
ATOM     20  O2  NON d   1       5.466   3.854   0.931  0.00  0.00    -0.399 OA
ATOM     21  H12 NON d   1       4.862   3.865   1.699  0.00  0.00     0.209 HD
ENDBRANCH  19  20
ENDBRANCH  18  19
ENDBRANCH   1  18
BRANCH   1  22
ATOM     22  C11 NON d   1       9.634   2.796   0.568  0.00  0.00     0.240 C 
BRANCH  22  23
ATOM     23  C12 NON d   1       9.851   1.289   0.359  0.00  0.00     0.068 C 
BRANCH  23  24
ATOM     24  C13 NON d   1       9.252   0.401   1.412  0.00  0.00    -0.029 A 
ATOM     25  C14 NON d   1       8.792   0.760   2.666  0.00  0.00     0.096 A 
ATOM     26  N2  NON d   1       8.371  -0.370   3.321  0.00  0.00    -0.365 N 
ATOM     27  C15 NON d   1       8.579  -1.475   2.537  0.00  0.00     0.042 A 
ATOM     28  H18 NON d   1       8.007  -0.403   4.266  0.00  0.00     0.165 HD
ATOM     29  C16 NON d   1       8.340  -2.824   2.819  0.00  0.00     0.030 A 
ATOM     30  C20 NON d   1       9.134  -1.032   1.336  0.00  0.00    -0.002 A 
ATOM     31  C17 NON d   1       8.698  -3.761   1.849  0.00  0.00     0.002 A 
ATOM     32  C18 NON d   1       9.262  -3.359   0.641  0.00  0.00     0.001 A 
ATOM     33  C19 NON d   1       9.482  -2.001   0.369  0.00  0.00     0.014 A 
ENDBRANCH  23  24
ENDBRANCH  22  23
ENDBRANCH   1  22
TORSDOF 11
