@<TRIPOS>MOLECULE
*****
 26 26 0 0 0
SMALL
USER_CHARGES

@<TRIPOS>ATOM
      1 O1          1.1206    0.1908    2.7828 O.2     1  NONAME1    -0.2737
      2 C1          2.2371    0.2661    2.2778 C.2     1  NONAME1     0.2354
      3 C2          2.9556   -0.9126    1.6642 C.3     1  NONAME1     0.0262
      4 C3          2.5886   -1.1734    0.2040 C.3     1  NONAME1    -0.0407
      5 C4          1.3170   -2.0184    0.0161 C.3     1  NONAME1    -0.0272
      6 C5         -0.0323   -1.3406   -0.0393 C.ar    1  NONAME1    -0.0473
      7 C6         -1.1775   -2.1254    0.1806 C.ar    1  NONAME1    -0.0586
      8 C7         -2.4601   -1.5865    0.0602 C.ar    1  NONAME1    -0.0615
      9 C8         -2.6209   -0.2501   -0.2913 C.ar    1  NONAME1    -0.0617
     10 C9         -1.4987    0.5417   -0.5216 C.ar    1  NONAME1    -0.0615
     11 C10        -0.2148   -0.0002   -0.4057 C.ar    1  NONAME1    -0.0586
     12 N1          2.9405    1.4504    2.2343 N.am    1  NONAME1    -0.1975
     13 O2          2.3364    2.5152    2.9505 O.3     1  NONAME1    -0.2952
     14 H1          4.0349   -0.7181    1.7180 H       1  NONAME1     0.0359
     15 H2          2.7791   -1.7929    2.2918 H       1  NONAME1     0.0359
     16 H3          2.5621   -0.2447   -0.3734 H       1  NONAME1     0.0273
     17 H4          3.4135   -1.7635   -0.2183 H       1  NONAME1     0.0273
     18 H5          1.4207   -2.5564   -0.9365 H       1  NONAME1     0.0313
     19 H6          1.2928   -2.7882    0.7991 H       1  NONAME1     0.0313
     20 H7         -1.0764   -3.1769    0.4422 H       1  NONAME1     0.0620
     21 H8         -3.3318   -2.2119    0.2341 H       1  NONAME1     0.0618
     22 H9         -3.6171    0.1729   -0.3880 H       1  NONAME1     0.0618
     23 H10        -1.6211    1.5855   -0.7983 H       1  NONAME1     0.0618
     24 H11         0.6285    0.6508   -0.6105 H       1  NONAME1     0.0620
     25 H12         3.9555    1.4582    2.2200 H       1  NONAME1     0.1822
     26 H13         1.4944    2.1105    3.2590 H       1  NONAME1     0.2414
@<TRIPOS>BOND
     1     1     2    2
     2     2     3    1
     3     3     4    1
     4     4     5    1
     5     5     6    1
     6     6     7   ar
     7     7     8   ar
     8     8     9   ar
     9     9    10   ar
    10    10    11   ar
    11     6    11   ar
    12     2    12   am
    13    12    13    1
    14     3    14    1
    15     3    15    1
    16     4    16    1
    17     4    17    1
    18     5    18    1
    19     5    19    1
    20     7    20    1
    21     8    21    1
    22     9    22    1
    23    10    23    1
    24    11    24    1
    25    12    25    1
    26    13    26    1
