REMARK  7 active torsions:
REMARK  status: ('A' for Active; 'I' for Inactive)
REMARK    1  A    between atoms: C3_4  and  C4_5 
REMARK       I    between atoms: C4_5  and  N2_7 
REMARK    2  A    between atoms: N2_7  and  C5_8 
REMARK    3  A    between atoms: C11_15  and  C12_16 
REMARK    4  A    between atoms: C15_19  and  C16_20 
REMARK    5  A    between atoms: C17_21  and  C18_22 
REMARK       I    between atoms: C18_22  and  N3_24 
REMARK    6  A    between atoms: N3_24  and  C19_25 
REMARK    7  A    between atoms: C24_30  and  N4_31 
ROOT
ATOM      1  C12 NON d   1      -0.383 -14.928  -0.281  0.00  0.00    -0.013 A 
ATOM      2  C13 NON d   1       0.077 -16.242  -0.463  0.00  0.00     0.011 A 
ATOM      3  C14 NON d   1      -0.808 -17.340  -0.471  0.00  0.00     0.012 A 
ATOM      4  C15 NON d   1      -2.189 -17.172  -0.300  0.00  0.00    -0.033 A 
ATOM      5  C25 NON d   1      -2.654 -15.861  -0.154  0.00  0.00     0.054 A 
ATOM      6  C26 NON d   1      -1.768 -14.775  -0.146  0.00  0.00     0.123 A 
ATOM      7  F1  NON d   1      -2.280 -13.554   0.064  0.00  0.00    -0.206 F 
ENDROOT
BRANCH   1   8
ATOM      8  C11 NON d   1       0.560 -13.769   0.009  0.00  0.00     0.062 C 
ATOM      9  C3  NON d   1       1.981 -13.785  -0.638  0.00  0.00     0.114 C 
ATOM     10  C2  NON d   1       2.455 -12.324  -0.638  0.00  0.00     0.249 C 
ATOM     11  N1  NON d   1       1.334 -11.550   0.000  0.00  0.00    -0.073 N 
ATOM     12  C1  NON d   1       1.334 -10.010   0.000  0.00  0.00     0.269 C 
ATOM     13  C27 NON d   1       0.078 -12.332  -0.292  0.00  0.00     0.244 C 
ATOM     14  H4  NON d   1       1.469 -11.711   1.011  0.00  0.00     0.279 HD
BRANCH   9  15
ATOM     15  C4  NON d   1       2.959 -14.661   0.144  0.00  0.00     0.228 C 
ATOM     16  O1  NON d   1       2.640 -15.155   1.218  0.00  0.00    -0.273 OA
ATOM     17  N2  NON d   1       4.191 -14.842  -0.462  0.00  0.00    -0.327 N 
ATOM     18  H8  NON d   1       4.559 -14.141  -1.093  0.00  0.00     0.169 HD
BRANCH  17  19
ATOM     19  C5  NON d   1       5.070 -15.915  -0.181  0.00  0.00     0.034 A 
ATOM     20  C6  NON d   1       6.423 -15.768  -0.510  0.00  0.00     0.031 A 
ATOM     21  C7  NON d   1       7.315 -16.832  -0.328  0.00  0.00     0.026 A 
ATOM     22  C8  NON d   1       6.850 -18.055   0.148  0.00  0.00     0.034 A 
ATOM     23 Cl1  NON d   1       7.936 -19.377   0.321  0.00  0.00    -0.084 Cl
ATOM     24  C9  NON d   1       5.506 -18.214   0.473  0.00  0.00     0.026 A 
ATOM     25  C10 NON d   1       4.621 -17.140   0.324  0.00  0.00     0.031 A 
ENDBRANCH  17  19
ENDBRANCH   9  15
ENDBRANCH   1   8
BRANCH   4  26
ATOM     26  C16 NON d   1      -3.059 -18.371  -0.183  0.00  0.00     0.017 C 
ATOM     27  C17 NON d   1      -4.402 -18.342  -0.178  0.00  0.00     0.075 C 
BRANCH  27  28
ATOM     28  C18 NON d   1      -5.388 -19.451   0.042  0.00  0.00     0.245 C 
ATOM     29  O2  NON d   1      -6.507 -19.117   0.423  0.00  0.00    -0.268 OA
ATOM     30  N3  NON d   1      -4.950 -20.729  -0.197  0.00  0.00    -0.322 N 
ATOM     31  H18 NON d   1      -3.968 -20.845  -0.391  0.00  0.00     0.169 HD
BRANCH  30  32
ATOM     32  C19 NON d   1      -5.691 -21.950  -0.132  0.00  0.00     0.056 A 
ATOM     33  C20 NON d   1      -4.904 -23.118  -0.087  0.00  0.00     0.031 A 
ATOM     34  C21 NON d   1      -5.481 -24.390  -0.025  0.00  0.00     0.002 A 
ATOM     35  C22 NON d   1      -6.861 -24.523  -0.036  0.00  0.00     0.002 A 
ATOM     36  C23 NON d   1      -7.657 -23.382  -0.106  0.00  0.00     0.025 A 
ATOM     37  C24 NON d   1      -7.100 -22.087  -0.117  0.00  0.00     0.033 A 
BRANCH  37  38
ATOM     38  N4  NON d   1      -7.994 -21.035  -0.396  0.00  0.00    -0.301 NA
ATOM     39  H23 NON d   1      -7.618 -20.135  -0.078  0.00  0.00     0.124 HD
ATOM     40  H24 NON d   1      -8.919 -21.178  -0.007  0.00  0.00     0.124 HD
ENDBRANCH  37  38
ENDBRANCH  30  32
ENDBRANCH  27  28
ENDBRANCH   4  26
TORSDOF 7
