@<TRIPOS>MOLECULE
*****
 46 49 0 0 0
SMALL
USER_CHARGES

@<TRIPOS>ATOM
      1 C1          7.2685   -1.9395    0.5694 C.3     1  NONAME1    -0.0124
      2 N1          6.5221   -0.6841    0.6533 N.3     1  NONAME1    -0.3007
      3 C2          7.2772    0.4175    0.0188 C.3     1  NONAME1     0.0043
      4 C3          6.5973    1.8134    0.1499 C.3     1  NONAME1     0.0008
      5 C4          5.1195    1.7010   -0.0429 C.ar    1  NONAME1     0.0258
      6 C5          4.4868    0.4642   -0.0437 C.ar    1  NONAME1    -0.0049
      7 C6          3.0892    0.6830   -0.0955 C.ar    1  NONAME1     0.0045
      8 C7          1.9665   -0.1706   -0.0861 C.ar    1  NONAME1    -0.0523
      9 C8          0.6794    0.3730   -0.1136 C.ar    1  NONAME1    -0.0611
     10 C9          0.5010    1.7493   -0.1622 C.ar    1  NONAME1    -0.0598
     11 C10         1.5993    2.6140   -0.1923 C.ar    1  NONAME1    -0.0376
     12 C11         2.8962    2.0617   -0.1524 C.ar    1  NONAME1     0.0499
     13 N2          4.1609    2.6818   -0.1611 N.ar    1  NONAME1    -0.3391
     14 C12         4.2134    4.1466   -0.3218 C.3     1  NONAME1     0.0486
     15 C13         5.4692    4.9662   -0.1814 C.ar    1  NONAME1    -0.0277
     16 C14         5.4636    6.0561    0.7170 C.ar    1  NONAME1    -0.0562
     17 C15         6.5139    6.9788    0.7497 C.ar    1  NONAME1    -0.0493
     18 C16         7.6141    6.8041   -0.0851 C.ar    1  NONAME1     0.0387
     19 C17         8.7131    7.7972   -0.0326 C.2     1  NONAME1     0.2665
     20 O1          8.4911    9.0003    0.0664 O.2     1  NONAME1    -0.2681
     21 N3          9.9861    7.2726   -0.0445 N.am    1  NONAME1    -0.1935
     22 O2         11.0173    8.2112    0.2071 O.3     1  NONAME1    -0.2949
     23 C18         7.6383    5.7400   -0.9927 C.ar    1  NONAME1    -0.0493
     24 C19         6.5497    4.8591   -1.0662 C.ar    1  NONAME1    -0.0562
     25 C20         5.2014   -0.8518    0.0116 C.3     1  NONAME1     0.0260
     26 H1          6.7136   -2.7517    1.0528 H       1  NONAME1     0.0391
     27 H2          8.2249   -1.8547    1.0963 H       1  NONAME1     0.0391
     28 H3          7.4718   -2.2336   -0.4673 H       1  NONAME1     0.0391
     29 H4          8.2756    0.4922    0.4681 H       1  NONAME1     0.0430
     30 H5          7.4276    0.1963   -1.0477 H       1  NONAME1     0.0430
     31 H6          6.7994    2.2274    1.1441 H       1  NONAME1     0.0340
     32 H7          7.0615    2.4482   -0.5983 H       1  NONAME1     0.0340
     33 H8          2.0962   -1.2478   -0.0395 H       1  NONAME1     0.0624
     34 H9         -0.1838   -0.2863   -0.0886 H       1  NONAME1     0.0618
     35 H10        -0.5055    2.1612   -0.1743 H       1  NONAME1     0.0618
     36 H11         1.4343    3.6858   -0.2302 H       1  NONAME1     0.0638
     37 H12         3.7872    4.3497   -1.3158 H       1  NONAME1     0.0541
     38 H13         3.4910    4.5225    0.4169 H       1  NONAME1     0.0541
     39 H14         4.6046    6.2338    1.3633 H       1  NONAME1     0.0621
     40 H15         6.4596    7.8381    1.4156 H       1  NONAME1     0.0625
     41 H16        10.1667    6.3205    0.2577 H       1  NONAME1     0.1825
     42 H17        10.5249    9.0617    0.2423 H       1  NONAME1     0.2414
     43 H18         8.4658    5.6198   -1.6868 H       1  NONAME1     0.0625
     44 H19         6.5393    4.0996   -1.8475 H       1  NONAME1     0.0621
     45 H20         4.6066   -1.5716    0.5857 H       1  NONAME1     0.0476
     46 H21         5.3038   -1.2360   -1.0124 H       1  NONAME1     0.0476
@<TRIPOS>BOND
     1     1     2    1
     2     2     3    1
     3     3     4    1
     4     4     5    1
     5     5     6   ar
     6     6     7   ar
     7     7     8   ar
     8     8     9   ar
     9     9    10   ar
    10    10    11   ar
    11    11    12   ar
    12     7    12   ar
    13    12    13   ar
    14     5    13   ar
    15    13    14    1
    16    14    15    1
    17    15    16   ar
    18    16    17   ar
    19    17    18   ar
    20    18    19    1
    21    19    20    2
    22    19    21   am
    23    21    22    1
    24    18    23   ar
    25    23    24   ar
    26    15    24   ar
    27     6    25    1
    28     2    25    1
    29     1    26    1
    30     1    27    1
    31     1    28    1
    32     3    29    1
    33     3    30    1
    34     4    31    1
    35     4    32    1
    36     8    33    1
    37     9    34    1
    38    10    35    1
    39    11    36    1
    40    14    37    1
    41    14    38    1
    42    16    39    1
    43    17    40    1
    44    21    41    1
    45    22    42    1
    46    23    43    1
    47    24    44    1
    48    25    45    1
    49    25    46    1
