REMARK  12 active torsions:
REMARK  status: ('A' for Active; 'I' for Inactive)
REMARK    1  A    between atoms: N1_1  and  C1_2 
REMARK    2  A    between atoms: C6_7  and  N2_8 
REMARK       I    between atoms: N2_8  and  C7_9 
REMARK    3  A    between atoms: C7_9  and  C8_11 
REMARK    4  A    between atoms: C9_12  and  C10_13 
REMARK    5  A    between atoms: C13_16  and  C14_17 
REMARK    6  A    between atoms: C14_17  and  N3_18 
REMARK    7  A    between atoms: C14_17  and  C21_27 
REMARK    8  A    between atoms: N3_18  and  C15_19 
REMARK    9  A    between atoms: C15_19  and  C16_20 
REMARK   10  A    between atoms: C16_20  and  N4_21 
REMARK       I    between atoms: C21_27  and  N5_29 
REMARK   11  A    between atoms: N5_29  and  C22_30 
REMARK   12  A    between atoms: C25_33  and  C26_34 
ROOT
ATOM      1  C14 NON d   1       1.614  -6.873  -0.213  0.00  0.00     0.310 C 
ENDROOT
BRANCH   1   2
ATOM      2  C13 NON d   1       1.660  -8.423  -0.139  0.00  0.00    -0.019 A 
ATOM      3  C12 NON d   1       0.541  -9.214  -0.476  0.00  0.00     0.010 A 
ATOM      4  C11 NON d   1       0.568 -10.626  -0.422  0.00  0.00     0.012 A 
ATOM      5  C10 NON d   1       1.735 -11.328  -0.104  0.00  0.00    -0.036 A 
ATOM      6  C30 NON d   1       2.870 -10.562   0.165  0.00  0.00     0.012 A 
ATOM      7  C29 NON d   1       2.835  -9.144   0.141  0.00  0.00     0.010 A 
BRANCH   5   8
ATOM      8  C9  NON d   1       1.679 -12.808  -0.031  0.00  0.00     0.017 C 
ATOM      9  C8  NON d   1       2.699 -13.688  -0.081  0.00  0.00     0.075 C 
BRANCH   9  10
ATOM     10  C7  NON d   1       2.415 -15.164   0.032  0.00  0.00     0.245 C 
ATOM     11  N2  NON d   1       3.553 -15.943  -0.042  0.00  0.00    -0.322 N 
ATOM     12  H7  NON d   1       4.439 -15.495  -0.232  0.00  0.00     0.169 HD
ATOM     13  O1  NON d   1       1.266 -15.562   0.189  0.00  0.00    -0.268 OA
BRANCH  11  14
ATOM     14  C6  NON d   1       3.649 -17.362   0.020  0.00  0.00     0.056 A 
ATOM     15  C5  NON d   1       2.534 -18.208   0.094  0.00  0.00     0.031 A 
ATOM     16  C4  NON d   1       2.693 -19.601   0.073  0.00  0.00     0.002 A 
ATOM     17  C3  NON d   1       3.962 -20.160  -0.035  0.00  0.00     0.002 A 
ATOM     18  C2  NON d   1       5.081 -19.328  -0.098  0.00  0.00     0.025 A 
ATOM     19  C1  NON d   1       4.940 -17.936  -0.018  0.00  0.00     0.033 A 
BRANCH  19  20
ATOM     20  N1  NON d   1       6.097 -17.120  -0.084  0.00  0.00    -0.301 NA
ATOM     21  H1  NON d   1       6.950 -17.665   0.017  0.00  0.00     0.124 HD
ATOM     22  H2  NON d   1       6.064 -16.393   0.626  0.00  0.00     0.124 HD
ENDBRANCH  19  20
ENDBRANCH  11  14
ENDBRANCH   9  10
ENDBRANCH   5   8
ENDBRANCH   1   2
BRANCH   1  23
ATOM     23  N3  NON d   1       0.225  -6.268   0.122  0.00  0.00    -0.057 N 
ATOM     24  H13 NON d   1       0.248  -5.285  -0.163  0.00  0.00     0.278 HD
ATOM     25  H14 NON d   1      -0.471  -6.695  -0.501  0.00  0.00     0.278 HD
BRANCH  23  26
ATOM     26  C15 NON d   1      -0.330  -6.289   1.534  0.00  0.00     0.264 C 
BRANCH  26  27
ATOM     27  C16 NON d   1      -1.024  -7.623   1.904  0.00  0.00     0.300 C 
BRANCH  27  28
ATOM     28  N4  NON d   1      -2.008  -7.523   3.007  0.00  0.00     0.094 N 
ATOM     29  C17 NON d   1      -3.372  -7.184   2.509  0.00  0.00     0.298 C 
ATOM     30  C18 NON d   1      -4.473  -7.307   3.585  0.00  0.00     0.198 C 
ATOM     31  O2  NON d   1      -4.486  -8.619   4.152  0.00  0.00    -0.388 OA
ATOM     32  C19 NON d   1      -3.220  -8.898   4.759  0.00  0.00     0.198 C 
ATOM     33  C20 NON d   1      -2.092  -8.834   3.715  0.00  0.00     0.298 C 
ENDBRANCH  27  28
ENDBRANCH  26  27
ENDBRANCH  23  26
ENDBRANCH   1  23
BRANCH   1  34
ATOM     34  C21 NON d   1       2.829  -6.048   0.431  0.00  0.00     0.257 C 
ATOM     35  O3  NON d   1       3.508  -6.511   1.345  0.00  0.00    -0.270 OA
ATOM     36  N5  NON d   1       3.043  -4.751  -0.080  0.00  0.00    -0.325 N 
ATOM     37  H27 NON d   1       2.277  -4.241  -0.497  0.00  0.00     0.169 HD
BRANCH  36  38
ATOM     38  C22 NON d   1       4.252  -3.972   0.041  0.00  0.00     0.034 A 
ATOM     39  C23 NON d   1       4.203  -2.577  -0.129  0.00  0.00     0.030 A 
ATOM     40  C24 NON d   1       5.379  -1.763  -0.120  0.00  0.00     0.018 A 
ATOM     41  C25 NON d   1       6.668  -2.310   0.000  0.00  0.00     0.048 A 
ATOM     42  C27 NON d   1       6.688  -3.718   0.194  0.00  0.00     0.018 A 
ATOM     43  C28 NON d   1       5.516  -4.529   0.223  0.00  0.00     0.030 A 
BRANCH  41  44
ATOM     44  C26 NON d   1       8.002  -1.540   0.000  0.00  0.00     0.417 C 
ATOM     45  F1  NON d   1       9.336  -0.770   0.000  0.00  0.00    -0.166 F 
ATOM     46  F2  NON d   1       8.553  -2.351  -1.045  0.00  0.00    -0.166 F 
ATOM     47  F3  NON d   1       7.460  -0.430  -0.727  0.00  0.00    -0.166 F 
ENDBRANCH  41  44
ENDBRANCH  36  38
ENDBRANCH   1  34
TORSDOF 12
