@<TRIPOS>MOLECULE
*****
 32 33 0 0 0
SMALL
USER_CHARGES

@<TRIPOS>ATOM
      1 O1         -0.8365    1.9572   -0.0062 O.2     1  NONAME1    -0.2687
      2 C1          0.2450    1.3757    0.0009 C.2     1  NONAME1     0.2593
      3 C2          0.2420   -0.1161   -0.0031 C.2     1  NONAME1     0.0027
      4 C3          1.3032   -0.9394   -0.0005 C.2     1  NONAME1    -0.0496
      5 C4          1.2437   -2.4155   -0.0013 C.ar    1  NONAME1    -0.0248
      6 C5          2.4420   -3.1328   -0.0017 C.ar    1  NONAME1    -0.0540
      7 C6          2.4524   -4.5390   -0.0015 C.ar    1  NONAME1    -0.0535
      8 C7          1.2709   -5.3041   -0.0008 C.ar    1  NONAME1    -0.0178
      9 C8          1.2832   -6.8049   -0.0008 C.ar    1  NONAME1    -0.0163
     10 C9          2.4859   -7.5469    0.0001 C.ar    1  NONAME1    -0.0505
     11 C10         2.5074   -8.9493    0.0006 C.ar    1  NONAME1    -0.0181
     12 C11         1.3177   -9.6551    0.0001 C.ar    1  NONAME1     0.1351
     13 O2          1.3869  -11.0190    0.0003 O.3     1  NONAME1    -0.5053
     14 C12         0.1100   -8.9683   -0.0005 C.ar    1  NONAME1     0.0829
     15 Cl1        -1.3831   -9.8342   -0.0007 Cl      1  NONAME1    -0.0797
     16 C13         0.0940   -7.5675   -0.0010 C.ar    1  NONAME1    -0.0321
     17 C14         0.0766   -4.5588   -0.0003 C.ar    1  NONAME1    -0.0535
     18 C15         0.0596   -3.1519   -0.0005 C.ar    1  NONAME1    -0.0540
     19 N1          1.4696    1.9858    0.0148 N.am    1  NONAME1    -0.1940
     20 O3          1.4703    3.3960    0.0206 O.3     1  NONAME1    -0.2949
     21 H1         -0.7739   -0.4986   -0.0066 H       1  NONAME1     0.0670
     22 H2          2.3108   -0.5390    0.0034 H       1  NONAME1     0.0625
     23 H3          3.3994   -2.6155   -0.0018 H       1  NONAME1     0.0624
     24 H4          3.4316   -5.0080   -0.0015 H       1  NONAME1     0.0624
     25 H5          3.4553   -7.0573    0.0008 H       1  NONAME1     0.0625
     26 H6          3.4555   -9.4805    0.0009 H       1  NONAME1     0.0655
     27 H7          0.4705  -11.3535    0.0001 H       1  NONAME1     0.2922
     28 H8         -0.8799   -7.0892   -0.0013 H       1  NONAME1     0.0639
     29 H9         -0.8953   -5.0432    0.0004 H       1  NONAME1     0.0624
     30 H10        -0.9117   -2.6649    0.0001 H       1  NONAME1     0.0624
     31 H11         2.3569    1.5046    0.0095 H       1  NONAME1     0.1825
     32 H12         2.4113    3.6339   -0.0324 H       1  NONAME1     0.2414
@<TRIPOS>BOND
     1     1     2    2
     2     2     3    1
     3     3     4    2
     4     4     5    1
     5     5     6   ar
     6     6     7   ar
     7     7     8   ar
     8     8     9    1
     9     9    10   ar
    10    10    11   ar
    11    11    12   ar
    12    12    13    1
    13    12    14   ar
    14    14    15    1
    15    14    16   ar
    16     9    16   ar
    17     8    17   ar
    18    17    18   ar
    19     5    18   ar
    20     2    19   am
    21    19    20    1
    22     3    21    1
    23     4    22    1
    24     6    23    1
    25     7    24    1
    26    10    25    1
    27    11    26    1
    28    13    27    1
    29    16    28    1
    30    17    29    1
    31    18    30    1
    32    19    31    1
    33    20    32    1
