REMARK  4 active torsions:
REMARK  status: ('A' for Active; 'I' for Inactive)
REMARK    1  A    between atoms: N1_1  and  C1_2 
REMARK    2  A    between atoms: C4_5  and  C5_6 
REMARK    3  A    between atoms: C12_14  and  N2_15 
REMARK       I    between atoms: N2_15  and  C13_16 
REMARK    4  A    between atoms: C13_16  and  C14_18 
ROOT
ATOM      1  C1  NON d   1       2.235  -4.820   0.125  0.00  0.00     0.033 C 
ATOM      2  C2  NON d   1       3.445  -5.434   0.444  0.00  0.00     0.026 C 
ATOM      3  C3  NON d   1       3.567  -6.827   0.401  0.00  0.00     0.014 C 
ATOM      4  C4  NON d   1       2.484  -7.652   0.048  0.00  0.00    -0.024 C 
ATOM      5  C11 NON d   1       1.253  -7.016  -0.215  0.00  0.00     0.043 C 
ATOM      6  C12 NON d   1       1.105  -5.626  -0.119  0.00  0.00     0.057 C 
ENDROOT
BRANCH   6   7
ATOM      7  N2  NON d   1      -0.143  -4.958  -0.177  0.00  0.00    -0.321 N 
ATOM      8  C13 NON d   1      -1.391  -5.504  -0.408  0.00  0.00     0.256 C 
ATOM      9  O1  NON d   1      -1.618  -6.667  -0.723  0.00  0.00    -0.267 OA
ATOM     10  H10 NON d   1      -0.083  -4.007   0.161  0.00  0.00     0.169 HD
BRANCH   8  11
ATOM     11  C14 NON d   1      -2.556  -4.579  -0.228  0.00  0.00     0.032 A 
ATOM     12  C15 NON d   1      -3.818  -5.151  -0.006  0.00  0.00     0.017 A 
ATOM     13  C16 NON d   1      -4.943  -4.344   0.177  0.00  0.00     0.001 A 
ATOM     14  C17 NON d   1      -4.819  -2.958   0.138  0.00  0.00     0.000 A 
ATOM     15  C18 NON d   1      -3.573  -2.377  -0.094  0.00  0.00     0.001 A 
ATOM     16  C19 NON d   1      -2.445  -3.182  -0.284  0.00  0.00     0.017 A 
ENDBRANCH   8  11
ENDBRANCH   6   7
BRANCH   1  17
ATOM     17  N1  NON d   1       2.117  -3.411   0.199  0.00  0.00    -0.301 NA
ATOM     18  H1  NON d   1       3.026  -2.953   0.210  0.00  0.00     0.124 HD
ATOM     19  H2  NON d   1       1.567  -3.060  -0.582  0.00  0.00     0.124 HD
ENDBRANCH   1  17
BRANCH   4  20
ATOM     20  C5  NON d   1       2.624  -9.132  -0.001  0.00  0.00    -0.026 A 
ATOM     21  C6  NON d   1       3.836  -9.746  -0.380  0.00  0.00     0.015 A 
ATOM     22  C7  NON d   1       3.975 -11.138  -0.407  0.00  0.00     0.043 A 
ATOM     23  C8  NON d   1       2.897 -11.942  -0.069  0.00  0.00     0.116 A 
ATOM     24  F1  NON d   1       3.028 -13.275  -0.099  0.00  0.00    -0.206 F 
ATOM     25  C9  NON d   1       1.686 -11.379   0.300  0.00  0.00     0.043 A 
ATOM     26  C10 NON d   1       1.554  -9.986   0.339  0.00  0.00     0.015 A 
ENDBRANCH   4  20
TORSDOF 4
