REMARK  4 active torsions:
REMARK  status: ('A' for Active; 'I' for Inactive)
REMARK       I    between atoms: C1_2  and  N1_3 
REMARK    1  A    between atoms: C1_2  and  C14_17 
REMARK    2  A    between atoms: N1_3  and  C2_4 
REMARK    3  A    between atoms: C4_6  and  C5_7 
REMARK    4  A    between atoms: C13_15  and  O2_16 
ROOT
ATOM      1  C2  NON d   1       2.337  -4.786   0.127  0.00  0.00     0.069 A 
ATOM      2  C3  NON d   1       3.613  -5.385   0.063  0.00  0.00     0.044 A 
ATOM      3  C4  NON d   1       3.809  -6.787  -0.001  0.00  0.00    -0.024 A 
ATOM      4  C11 NON d   1       2.638  -7.568  -0.013  0.00  0.00     0.015 A 
ATOM      5  C12 NON d   1       1.363  -6.995   0.096  0.00  0.00     0.040 A 
ATOM      6  C13 NON d   1       1.223  -5.618   0.196  0.00  0.00     0.092 A 
ENDROOT
BRANCH   1   7
ATOM      7  N1  NON d   1       2.311  -3.369   0.141  0.00  0.00    -0.320 N 
ATOM      8  C1  NON d   1       1.276  -2.544  -0.271  0.00  0.00     0.256 C 
ATOM      9  O1  NON d   1       0.224  -2.908  -0.790  0.00  0.00    -0.267 OA
ATOM     10  H1  NON d   1       3.188  -2.932   0.375  0.00  0.00     0.169 HD
BRANCH   8  11
ATOM     11  C14 NON d   1       1.514  -1.065  -0.120  0.00  0.00     0.032 A 
ATOM     12  C15 NON d   1       0.394  -0.223  -0.044  0.00  0.00     0.017 A 
ATOM     13  C16 NON d   1       0.546   1.163   0.069  0.00  0.00     0.001 A 
ATOM     14  C17 NON d   1       1.821   1.722   0.104  0.00  0.00     0.000 A 
ATOM     15  C18 NON d   1       2.942   0.900   0.025  0.00  0.00     0.001 A 
ATOM     16  C19 NON d   1       2.794  -0.487  -0.094  0.00  0.00     0.017 A 
ENDBRANCH   8  11
ENDBRANCH   1   7
BRANCH   6  17
ATOM     17  O2  NON d   1      -0.021  -5.160   0.513  0.00  0.00    -0.358 OA
ATOM     18  H10 NON d   1      -0.541  -5.196  -0.310  0.00  0.00     0.217 HD
ENDBRANCH   6  17
BRANCH   3  19
ATOM     19  C5  NON d   1       5.178  -7.408  -0.036  0.00  0.00    -0.026 A 
ATOM     20  C6  NON d   1       6.360  -6.639  -0.061  0.00  0.00     0.012 A 
ATOM     21  C7  NON d   1       7.635  -7.223  -0.060  0.00  0.00     0.001 A 
ATOM     22  C8  NON d   1       7.775  -8.604  -0.040  0.00  0.00     0.000 A 
ATOM     23  C9  NON d   1       6.642  -9.400  -0.022  0.00  0.00     0.001 A 
ATOM     24  C10 NON d   1       5.369  -8.811  -0.024  0.00  0.00     0.012 A 
ENDBRANCH   3  19
TORSDOF 4
