@<TRIPOS>MOLECULE
*****
 48 50 0 0 0
SMALL
USER_CHARGES

@<TRIPOS>ATOM
      1 C1          2.0731  -11.7274   -0.0572 C.3     1  NONAME1    -0.0570
      2 C2          3.3935  -12.4754   -0.1136 C.3     1  NONAME1     0.0211
      3 C3          4.5859  -11.5645    0.1136 C.2     1  NONAME1     0.2130
      4 O1          4.4944  -10.4094    0.5125 O.2     1  NONAME1    -0.2758
      5 N1          5.7925  -12.1874   -0.1379 N.am    1  NONAME1    -0.3112
      6 C4          7.0337  -11.4514   -0.0160 C.3     1  NONAME1     0.0368
      7 C5          8.2789  -12.3112    0.0418 C.ar    1  NONAME1    -0.0303
      8 C6          9.5383  -11.6846   -0.0015 C.ar    1  NONAME1    -0.0564
      9 C7         10.7318  -12.4207    0.0978 C.ar    1  NONAME1    -0.0493
     10 C8         10.6871  -13.8102    0.2380 C.ar    1  NONAME1     0.0370
     11 C9         11.8878  -14.6942    0.3899 C.2     1  NONAME1     0.2483
     12 O2         11.6969  -15.8130    0.8647 O.2     1  NONAME1    -0.2699
     13 N2         13.1225  -14.1952    0.0119 N.am    1  NONAME1    -0.2799
     14 C10        14.3679  -14.8982   -0.0250 C.ar    1  NONAME1     0.0551
     15 C11        15.5299  -14.0896    0.0006 C.ar    1  NONAME1    -0.0305
     16 C12        16.8339  -14.6281   -0.0327 C.ar    1  NONAME1    -0.0094
     17 C13        18.0314  -13.7481    0.0213 C.ar    1  NONAME1     0.0194
     18 C14        18.1125  -12.3633   -0.0331 C.ar    1  NONAME1    -0.0469
     19 C15        19.4490  -11.8666    0.0420 C.ar    1  NONAME1    -0.0541
     20 C16        20.3678  -12.8807    0.1548 C.ar    1  NONAME1    -0.0237
     21 S1         19.6207  -14.4104    0.1846 S.2     1  NONAME1    -0.0967
     22 C17        16.9441  -16.0190   -0.1342 C.ar    1  NONAME1    -0.0517
     23 C18        15.8109  -16.8312   -0.1929 C.ar    1  NONAME1    -0.0386
     24 C19        14.5180  -16.2995   -0.1021 C.ar    1  NONAME1     0.0461
     25 N3         13.4597  -17.1869   -0.3865 N.pl3   1  NONAME1    -0.3565
     26 C20         9.4309  -14.4368    0.2803 C.ar    1  NONAME1    -0.0493
     27 C21         8.2449  -13.7006    0.1941 C.ar    1  NONAME1    -0.0564
     28 H1          2.0319  -10.9495   -0.8268 H       1  NONAME1     0.0234
     29 H2          1.9316  -11.2447    0.9154 H       1  NONAME1     0.0234
     30 H3          1.2377  -12.4153   -0.2210 H       1  NONAME1     0.0234
     31 H4          3.4072  -13.2510    0.6606 H       1  NONAME1     0.0356
     32 H5          3.4938  -12.9625   -1.0896 H       1  NONAME1     0.0356
     33 H6          5.7789  -12.9957   -0.7443 H       1  NONAME1     0.1490
     34 H7          7.0905  -10.7879   -0.8870 H       1  NONAME1     0.0512
     35 H8          6.9862  -10.8313    0.8868 H       1  NONAME1     0.0512
     36 H9          9.5973  -10.6000   -0.0918 H       1  NONAME1     0.0621
     37 H10        11.6668  -11.8718    0.0951 H       1  NONAME1     0.0625
     38 H11        13.1885  -13.2084   -0.1846 H       1  NONAME1     0.1552
     39 H12        15.4078  -13.0126    0.0727 H       1  NONAME1     0.0643
     40 H13        17.2527  -11.7138   -0.1306 H       1  NONAME1     0.0629
     41 H14        19.7204  -10.8186    0.0114 H       1  NONAME1     0.0623
     42 H15        21.4444  -12.7984    0.2248 H       1  NONAME1     0.0693
     43 H16        17.9098  -16.5131   -0.1972 H       1  NONAME1     0.0624
     44 H17        15.9469  -17.9023   -0.3258 H       1  NONAME1     0.0637
     45 H18        12.5940  -16.8553    0.0526 H       1  NONAME1     0.1424
     46 H19        13.6422  -18.1356   -0.0797 H       1  NONAME1     0.1424
     47 H20         9.3644  -15.5180    0.3985 H       1  NONAME1     0.0625
     48 H21         7.3049  -14.2406    0.2704 H       1  NONAME1     0.0621
@<TRIPOS>BOND
     1     1     2    1
     2     2     3    1
     3     3     4    2
     4     3     5   am
     5     5     6    1
     6     6     7    1
     7     7     8   ar
     8     8     9   ar
     9     9    10   ar
    10    10    11    1
    11    11    12    2
    12    11    13   am
    13    13    14    1
    14    14    15   ar
    15    15    16   ar
    16    16    17    1
    17    17    18   ar
    18    18    19   ar
    19    19    20   ar
    20    20    21   ar
    21    17    21   ar
    22    16    22   ar
    23    22    23   ar
    24    23    24   ar
    25    14    24   ar
    26    24    25    1
    27    10    26   ar
    28    26    27   ar
    29     7    27   ar
    30     1    28    1
    31     1    29    1
    32     1    30    1
    33     2    31    1
    34     2    32    1
    35     5    33    1
    36     6    34    1
    37     6    35    1
    38     8    36    1
    39     9    37    1
    40    13    38    1
    41    15    39    1
    42    18    40    1
    43    19    41    1
    44    20    42    1
    45    22    43    1
    46    23    44    1
    47    25    45    1
    48    25    46    1
    49    26    47    1
    50    27    48    1
