REMARK  16 active torsions:
REMARK  status: ('A' for Active; 'I' for Inactive)
REMARK    1  A    between atoms: C1_2  and  N1_1 
REMARK    2  A    between atoms: C1_2  and  C2_3 
REMARK    3  A    between atoms: C1_2  and  C9_11 
REMARK    4  A    between atoms: C2_3  and  C3_4 
REMARK    5  A    between atoms: C6_7  and  O1_8 
REMARK       I    between atoms: C9_11  and  N2_13 
REMARK    6  A    between atoms: N2_13  and  C10_14 
REMARK    7  A    between atoms: C15_19  and  C16_20 
REMARK    8  A    between atoms: C19_23  and  N3_24 
REMARK       I    between atoms: N3_24  and  C20_25 
REMARK    9  A    between atoms: C20_25  and  C21_27 
REMARK   10  A    between atoms: C21_27  and  C22_28 
REMARK   11  A    between atoms: C22_28  and  C23_29 
REMARK   12  A    between atoms: C23_29  and  C24_30 
REMARK   13  A    between atoms: C24_30  and  C25_31 
REMARK   14  A    between atoms: C25_31  and  C26_32 
REMARK   15  A    between atoms: C26_32  and  C27_33 
REMARK       I    between atoms: C27_33  and  N4_35 
REMARK   16  A    between atoms: N4_35  and  O5_36 
ROOT
ATOM      1  C10 NON d   1      -3.763   0.691  -0.194  0.00  0.00     0.045 A 
ATOM      2  C11 NON d   1      -5.064   0.152  -0.321  0.00  0.00     0.030 A 
ATOM      3  C12 NON d   1      -6.205   0.931  -0.165  0.00  0.00     0.002 A 
ATOM      4  C13 NON d   1      -6.075   2.273   0.129  0.00  0.00     0.001 A 
ATOM      5  C14 NON d   1      -4.801   2.826   0.278  0.00  0.00     0.014 A 
ATOM      6  C15 NON d   1      -3.601   2.081   0.115  0.00  0.00     0.001 A 
ENDROOT
BRANCH   6   7
ATOM      7  C16 NON d   1      -2.304   2.805   0.384  0.00  0.00    -0.024 A 
ATOM      8  C17 NON d   1      -2.182   4.205   0.201  0.00  0.00     0.014 A 
ATOM      9  C18 NON d   1      -0.994   4.917   0.496  0.00  0.00     0.030 A 
ATOM     10  C19 NON d   1       0.134   4.245   0.932  0.00  0.00     0.034 A 
ATOM     11  C28 NON d   1       0.031   2.877   1.171  0.00  0.00     0.030 A 
ATOM     12  C29 NON d   1      -1.176   2.179   0.930  0.00  0.00     0.014 A 
BRANCH  10  13
ATOM     13  N3  NON d   1       1.355   4.980   1.016  0.00  0.00    -0.327 N 
ATOM     14  C20 NON d   1       2.623   4.441   1.210  0.00  0.00     0.222 C 
ATOM     15  O3  NON d   1       2.859   3.324   1.654  0.00  0.00    -0.273 OA
ATOM     16  H19 NON d   1       1.305   5.974   0.808  0.00  0.00     0.169 HD
BRANCH  14  17
ATOM     17  C21 NON d   1       3.735   5.353   0.689  0.00  0.00     0.103 C 
BRANCH  17  18
ATOM     18  C22 NON d   1       5.064   4.632   0.395  0.00  0.00     0.009 C 
BRANCH  18  19
ATOM     19  C23 NON d   1       5.249   4.053  -1.027  0.00  0.00     0.000 C 
BRANCH  19  20
ATOM     20  C24 NON d   1       4.653   2.656  -1.288  0.00  0.00     0.000 C 
BRANCH  20  21
ATOM     21  C25 NON d   1       3.494   2.620  -2.301  0.00  0.00     0.009 C 
BRANCH  21  22
ATOM     22  C26 NON d   1       2.334   3.460  -1.815  0.00  0.00     0.105 C 
BRANCH  22  23
ATOM     23  C27 NON d   1       0.986   3.237  -2.442  0.00  0.00     0.240 C 
ATOM     24  O4  NON d   1       0.503   2.111  -2.567  0.00  0.00    -0.271 OA
ATOM     25  N4  NON d   1       0.335   4.430  -2.700  0.00  0.00    -0.237 N 
ATOM     26  H32 NON d   1       0.664   5.314  -2.308  0.00  0.00     0.197 HD
BRANCH  25  27
ATOM     27  O5  NON d   1      -1.016   4.346  -3.074  0.00  0.00    -0.287 OA
ATOM     28  H33 NON d   1      -1.459   4.984  -2.486  0.00  0.00     0.244 HD
ENDBRANCH  25  27
ENDBRANCH  22  23
ENDBRANCH  21  22
ENDBRANCH  20  21
ENDBRANCH  19  20
ENDBRANCH  18  19
ENDBRANCH  17  18
ENDBRANCH  14  17
ENDBRANCH  10  13
ENDBRANCH   6   7
BRANCH   1  29
ATOM     29  N2  NON d   1      -2.656  -0.200  -0.446  0.00  0.00    -0.325 N 
ATOM     30  C9  NON d   1      -2.667  -1.540   0.000  0.00  0.00     0.253 C 
ATOM     31  O2  NON d   1      -3.573  -1.967   0.719  0.00  0.00    -0.271 OA
ATOM     32  H12 NON d   1      -1.890   0.269  -0.912  0.00  0.00     0.169 HD
BRANCH  30  33
ATOM     33  C1  NON d   1      -1.334  -2.310   0.000  0.00  0.00     0.279 C 
BRANCH  33  34
ATOM     34  N1  NON d   1       0.000  -1.540   0.000  0.00  0.00    -0.066 N 
ATOM     35  H1  NON d   1      -0.047  -1.348   1.018  0.00  0.00     0.275 HD
ATOM     36  H2  NON d   1       1.334  -0.770   0.000  0.00  0.00     0.275 HD
ATOM     37  H3  NON d   1      -0.374  -0.719  -0.491  0.00  0.00     0.275 HD
ENDBRANCH  33  34
BRANCH  33  38
ATOM     38  C2  NON d   1      -1.645  -3.794  -0.607  0.00  0.00     0.081 C 
BRANCH  38  39
ATOM     39  C3  NON d   1      -2.938  -4.598  -0.491  0.00  0.00    -0.056 A 
ATOM     40  C4  NON d   1      -4.181  -4.148  -0.945  0.00  0.00     0.010 A 
ATOM     41  C5  NON d   1      -5.324  -4.951  -0.832  0.00  0.00     0.037 A 
ATOM     42  C6  NON d   1      -5.229  -6.242  -0.333  0.00  0.00     0.065 A 
ATOM     43  C7  NON d   1      -4.003  -6.751   0.068  0.00  0.00     0.037 A 
ATOM     44  C8  NON d   1      -2.871  -5.931  -0.010  0.00  0.00     0.010 A 
BRANCH  42  45
ATOM     45  O1  NON d   1      -6.368  -6.987  -0.264  0.00  0.00    -0.361 OA
ATOM     46  H9  NON d   1      -6.158  -7.856   0.116  0.00  0.00     0.217 HD
ENDBRANCH  42  45
ENDBRANCH  38  39
ENDBRANCH  33  38
ENDBRANCH  30  33
ENDBRANCH   1  29
TORSDOF 16
