@<TRIPOS>MOLECULE
*****
 31 32 0 0 0
SMALL
USER_CHARGES

@<TRIPOS>ATOM
      1 O1          3.8887   -2.8534   -0.0003 O.2     1  NONAME1    -0.2681
      2 C1          2.7861   -3.3992   -0.0003 C.2     1  NONAME1     0.2665
      3 N1          1.6287   -2.6578   -0.0004 N.am    1  NONAME1    -0.1935
      4 O2          1.7930   -1.2538   -0.0000 O.3     1  NONAME1    -0.2949
      5 C2          2.6706   -4.8874   -0.0002 C.ar    1  NONAME1     0.0387
      6 C3          3.8566   -5.6375   -0.0001 C.ar    1  NONAME1    -0.0489
      7 C4          3.8296   -7.0407   -0.0001 C.ar    1  NONAME1    -0.0489
      8 C5          2.6078   -7.7236   -0.0002 C.ar    1  NONAME1     0.0371
      9 C6          2.4663   -9.2208   -0.0001 C.2     1  NONAME1     0.2483
     10 O3          1.3274   -9.6793    0.0000 O.2     1  NONAME1    -0.2699
     11 N2          3.6314   -9.9696   -0.0002 N.am    1  NONAME1    -0.2815
     12 C7          3.7400  -11.3806   -0.0001 C.ar    1  NONAME1     0.0337
     13 C8          5.0332  -11.9223   -0.0001 C.ar    1  NONAME1    -0.0405
     14 C9          5.2297  -13.3066   -0.0000 C.ar    1  NONAME1    -0.0600
     15 C10         4.1345  -14.1652    0.0000 C.ar    1  NONAME1    -0.0616
     16 C11         2.8461  -13.6384   -0.0000 C.ar    1  NONAME1    -0.0600
     17 C12         2.6501  -12.2532   -0.0001 C.ar    1  NONAME1    -0.0405
     18 C13         1.4233   -6.9659   -0.0003 C.ar    1  NONAME1    -0.0489
     19 C14         1.4490   -5.5649   -0.0003 C.ar    1  NONAME1    -0.0489
     20 H1          0.6774   -2.9996    0.0001 H       1  NONAME1     0.1825
     21 H2          2.7718   -1.1623    0.0002 H       1  NONAME1     0.2414
     22 H3          4.8208   -5.1288   -0.0001 H       1  NONAME1     0.0625
     23 H4          4.7859   -7.5507   -0.0001 H       1  NONAME1     0.0625
     24 H5          4.5142   -9.4854   -0.0003 H       1  NONAME1     0.1551
     25 H6          5.9083  -11.2782   -0.0001 H       1  NONAME1     0.0636
     26 H7          6.2374  -13.7135   -0.0000 H       1  NONAME1     0.0618
     27 H8          4.2821  -15.2417    0.0001 H       1  NONAME1     0.0618
     28 H9          1.9851  -14.3023    0.0000 H       1  NONAME1     0.0618
     29 H10         1.6268  -11.8926   -0.0001 H       1  NONAME1     0.0636
     30 H11         0.4561   -7.4695   -0.0004 H       1  NONAME1     0.0625
     31 H12         0.4961   -5.0477   -0.0005 H       1  NONAME1     0.0625
@<TRIPOS>BOND
     1     1     2    2
     2     2     3   am
     3     3     4    1
     4     2     5    1
     5     5     6   ar
     6     6     7   ar
     7     7     8   ar
     8     8     9    1
     9     9    10    2
    10     9    11   am
    11    11    12    1
    12    12    13   ar
    13    13    14   ar
    14    14    15   ar
    15    15    16   ar
    16    16    17   ar
    17    12    17   ar
    18     8    18   ar
    19    18    19   ar
    20     5    19   ar
    21     3    20    1
    22     4    21    1
    23     6    22    1
    24     7    23    1
    25    11    24    1
    26    13    25    1
    27    14    26    1
    28    15    27    1
    29    16    28    1
    30    17    29    1
    31    18    30    1
    32    19    31    1
