@<TRIPOS>MOLECULE
*****
 59 62 0 0 0
SMALL
USER_CHARGES

@<TRIPOS>ATOM
      1 N1          8.5263    5.2078    0.0002 N.pl3   1  NONAME1    -0.3565
      2 C1          9.9271    5.4246    0.0926 C.ar    1  NONAME1     0.0461
      3 C2         10.4310    6.7296    0.1383 C.ar    1  NONAME1    -0.0392
      4 C3         11.8072    6.9520    0.1059 C.ar    1  NONAME1    -0.0599
      5 C4         12.6834    5.8724    0.0001 C.ar    1  NONAME1    -0.0599
      6 C5         12.1895    4.5666   -0.0757 C.ar    1  NONAME1    -0.0387
      7 C6         10.8142    4.3324   -0.0383 C.ar    1  NONAME1     0.0545
      8 N2         10.2241    3.0466   -0.0912 N.am    1  NONAME1    -0.2800
      9 C7         10.8553    1.8325   -0.2673 C.2     1  NONAME1     0.2483
     10 O1         12.0493    1.6688   -0.4987 O.2     1  NONAME1    -0.2699
     11 C8          9.9915    0.6105   -0.1799 C.ar    1  NONAME1     0.0370
     12 C9         10.4535   -0.5722   -0.7763 C.ar    1  NONAME1    -0.0493
     13 C10         9.7144   -1.7629   -0.7028 C.ar    1  NONAME1    -0.0567
     14 C11         8.5155   -1.8181    0.0206 C.ar    1  NONAME1    -0.0267
     15 C12         7.6976   -3.1056    0.2420 C.3     1  NONAME1     0.1371
     16 C13         6.2292   -2.9939   -0.2500 C.2     1  NONAME1     0.2336
     17 O2          5.7665   -1.9439   -0.6953 O.2     1  NONAME1    -0.2743
     18 N3          5.4772   -4.1392   -0.0183 N.am    1  NONAME1    -0.2846
     19 C14         4.0758   -4.2733   -0.0670 C.ar    1  NONAME1     0.0334
     20 C15         3.5516   -5.5694    0.0231 C.ar    1  NONAME1    -0.0405
     21 C16         2.1701   -5.7838    0.0219 C.ar    1  NONAME1    -0.0600
     22 C17         1.2988   -4.7005   -0.0661 C.ar    1  NONAME1    -0.0616
     23 C18         1.8111   -3.4077   -0.1457 C.ar    1  NONAME1    -0.0600
     24 C19         3.1940   -3.1963   -0.1433 C.ar    1  NONAME1    -0.0405
     25 C20         8.3573   -4.4233   -0.1869 C.2     1  NONAME1     0.2336
     26 O3          7.7580   -5.2222   -0.9073 O.2     1  NONAME1    -0.2743
     27 N4          9.5963   -4.6785    0.3858 N.am    1  NONAME1    -0.2846
     28 C21        10.3433   -5.8708    0.2458 C.ar    1  NONAME1     0.0334
     29 C22        11.7170   -5.8141    0.5075 C.ar    1  NONAME1    -0.0405
     30 C23        12.5151   -6.9543    0.3659 C.ar    1  NONAME1    -0.0600
     31 C24        11.9426   -8.1680   -0.0081 C.ar    1  NONAME1    -0.0616
     32 C25        10.5730   -8.2404   -0.2427 C.ar    1  NONAME1    -0.0600
     33 C26         9.7784   -7.0963   -0.1206 C.ar    1  NONAME1    -0.0405
     34 C27         8.0598   -0.6201    0.6115 C.ar    1  NONAME1    -0.0567
     35 C28         8.7763    0.5804    0.5057 C.ar    1  NONAME1    -0.0493
     36 H1          8.0074    6.0402    0.2757 H       1  NONAME1     0.1424
     37 H2          8.2862    4.9747   -0.9635 H       1  NONAME1     0.1424
     38 H3          9.7625    7.5830    0.2021 H       1  NONAME1     0.0636
     39 H4         12.1995    7.9640    0.1576 H       1  NONAME1     0.0618
     40 H5         13.7572    6.0419   -0.0278 H       1  NONAME1     0.0618
     41 H6         12.9044    3.7550   -0.1583 H       1  NONAME1     0.0637
     42 H7          9.2159    3.0829    0.0075 H       1  NONAME1     0.1552
     43 H8         11.4051   -0.5719   -1.3074 H       1  NONAME1     0.0625
     44 H9         10.1171   -2.6333   -1.2166 H       1  NONAME1     0.0621
     45 H10         7.6093   -3.1981    1.3370 H       1  NONAME1     0.0539
     46 H11         5.9995   -5.0107    0.0087 H       1  NONAME1     0.1548
     47 H12         4.2102   -6.4323    0.0925 H       1  NONAME1     0.0636
     48 H13         1.7772   -6.7947    0.0870 H       1  NONAME1     0.0618
     49 H14         0.2248   -4.8632   -0.0674 H       1  NONAME1     0.0618
     50 H15         1.1348   -2.5595   -0.2129 H       1  NONAME1     0.0618
     51 H16         3.5494   -2.1724   -0.1952 H       1  NONAME1     0.0636
     52 H17        10.0804   -3.8968    0.8147 H       1  NONAME1     0.1548
     53 H18        12.1943   -4.8796    0.7903 H       1  NONAME1     0.0636
     54 H19        13.5864   -6.8941    0.5412 H       1  NONAME1     0.0618
     55 H20        12.5608   -9.0553   -0.1170 H       1  NONAME1     0.0618
     56 H21        10.1161   -9.1864   -0.5232 H       1  NONAME1     0.0618
     57 H22         8.7130   -7.2038   -0.2984 H       1  NONAME1     0.0636
     58 H23         7.1146   -0.6056    1.1559 H       1  NONAME1     0.0621
     59 H24         8.3710    1.4609    0.9955 H       1  NONAME1     0.0625
@<TRIPOS>BOND
     1     1     2    1
     2     2     3   ar
     3     3     4   ar
     4     4     5   ar
     5     5     6   ar
     6     6     7   ar
     7     2     7   ar
     8     7     8    1
     9     8     9   am
    10     9    10    2
    11     9    11    1
    12    11    12   ar
    13    12    13   ar
    14    13    14   ar
    15    14    15    1
    16    15    16    1
    17    16    17    2
    18    16    18   am
    19    18    19    1
    20    19    20   ar
    21    20    21   ar
    22    21    22   ar
    23    22    23   ar
    24    23    24   ar
    25    19    24   ar
    26    15    25    1
    27    25    26    2
    28    25    27   am
    29    27    28    1
    30    28    29   ar
    31    29    30   ar
    32    30    31   ar
    33    31    32   ar
    34    32    33   ar
    35    28    33   ar
    36    14    34   ar
    37    34    35   ar
    38    11    35   ar
    39     1    36    1
    40     1    37    1
    41     3    38    1
    42     4    39    1
    43     5    40    1
    44     6    41    1
    45     8    42    1
    46    12    43    1
    47    13    44    1
    48    15    45    1
    49    18    46    1
    50    20    47    1
    51    21    48    1
    52    22    49    1
    53    23    50    1
    54    24    51    1
    55    27    52    1
    56    29    53    1
    57    30    54    1
    58    31    55    1
    59    32    56    1
    60    33    57    1
    61    34    58    1
    62    35    59    1
