@<TRIPOS>MOLECULE
*****
 58 60 0 0 0
SMALL
USER_CHARGES

@<TRIPOS>ATOM
      1 O1         18.5793  -16.4467   -1.6556 O.2     1  NONAME1     0.0000
      2 C1         18.1834  -16.8753   -0.5803 C.2     1  NONAME1     0.0000
      3 N1         17.5954  -16.0295    0.3195 N.am    1  NONAME1     0.0000
      4 C2         17.3378  -14.6300    0.0000 C.3     1  NONAME1     0.0000
      5 C3         16.0688  -13.6422    0.0641 C.3     1  NONAME1     0.0000
      6 C4         15.2327  -13.5940   -1.2676 C.3     1  NONAME1     0.0000
      7 C5         13.8665  -12.8849   -1.1861 C.3     1  NONAME1     0.0000
      8 C6         13.8138  -11.3451   -1.2165 C.3     1  NONAME1     0.0000
      9 C7         14.3617  -10.6310    0.0229 C.3     1  NONAME1     0.0000
     10 B1         14.0445   -9.0604   -0.0015 B       1  NONAME1     0.0000
     11 O2         14.4851   -8.2228    1.1101 O.3     1  NONAME1     0.0000
     12 O3         13.2894   -8.4561   -1.1004 O.3     1  NONAME1     0.0000
     13 C8         18.6715  -13.8600    0.0000 C.2     1  NONAME1     0.0000
     14 O4         18.5901  -12.6791   -0.2859 O.2     1  NONAME1     0.0000
     15 N2         19.9172  -14.4048    0.2238 N.am    1  NONAME1     0.0000
     16 C9         21.1771  -13.6848    0.1766 C.ar    1  NONAME1     0.0000
     17 C10        21.2784  -12.2742    0.1346 C.ar    1  NONAME1     0.0000
     18 C11        22.5132  -11.6450    0.0707 C.ar    1  NONAME1     0.0000
     19 C12        23.6837  -12.3875    0.0487 C.ar    1  NONAME1     0.0000
     20 C13        23.6615  -13.7991    0.0989 C.ar    1  NONAME1     0.0000
     21 C14        24.9574  -14.5924    0.0680 C.ar    1  NONAME1     0.0000
     22 C15        26.2232  -13.9468    0.0484 C.ar    1  NONAME1     0.0000
     23 C16        27.4150  -14.6743    0.0158 C.ar    1  NONAME1     0.0000
     24 C17        27.3850  -16.0657    0.0017 C.ar    1  NONAME1     0.0000
     25 C18        26.1627  -16.7301    0.0194 C.ar    1  NONAME1     0.0000
     26 C19        24.9638  -16.0102    0.0513 C.ar    1  NONAME1     0.0000
     27 C20        22.3840  -14.4256    0.1688 C.ar    1  NONAME1     0.0000
     28 C21        18.3785  -18.3086   -0.2757 C.ar    1  NONAME1     0.0000
     29 C22        17.7795  -19.0406    0.7460 C.ar    1  NONAME1     0.0000
     30 N3         18.1374  -20.3512    0.7911 N.ar    1  NONAME1     0.0000
     31 C23        19.0178  -20.6782   -0.1798 C.ar    1  NONAME1     0.0000
     32 S1         19.3726  -19.3505   -1.1493 S.2     1  NONAME1     0.0000
     33 H1         17.3147  -16.3897    1.2483 H       1  NONAME1     0.0000
     34 H2         16.0041  -15.4000    0.0000 H       1  NONAME1     0.0000
     35 H3         16.3959  -12.6120    0.2470 H       1  NONAME1     0.0000
     36 H4         15.4253  -13.7982    0.9762 H       1  NONAME1     0.0000
     37 H5         15.8389  -13.1995   -2.1093 H       1  NONAME1     0.0000
     38 H6         14.9514  -14.6307   -1.5592 H       1  NONAME1     0.0000
     39 H7         13.2879  -13.2747   -0.3176 H       1  NONAME1     0.0000
     40 H8         13.3099  -13.1909   -2.1021 H       1  NONAME1     0.0000
     41 H9         14.3204  -10.9681   -2.1320 H       1  NONAME1     0.0000
     42 H10        12.7323  -11.0888   -1.2934 H       1  NONAME1     0.0000
     43 H11        13.8919  -11.0535    0.9359 H       1  NONAME1     0.0000
     44 H12        15.4583  -10.7351    0.0771 H       1  NONAME1     0.0000
     45 H13        15.3281   -7.8103    0.7926 H       1  NONAME1     0.0000
     46 H14        13.9501   -7.9028   -1.5895 H       1  NONAME1     0.0000
     47 H15        19.9872  -15.4114    0.4170 H       1  NONAME1     0.0000
     48 H16        20.4458  -11.5979    0.1593 H       1  NONAME1     0.0000
     49 H17        22.5644  -10.5654    0.0356 H       1  NONAME1     0.0000
     50 H18        24.5887  -11.8111   -0.0106 H       1  NONAME1     0.0000
     51 H19        26.3417  -12.8768    0.0595 H       1  NONAME1     0.0000
     52 H20        28.3653  -14.1556    0.0017 H       1  NONAME1     0.0000
     53 H21        28.3118  -16.6240   -0.0247 H       1  NONAME1     0.0000
     54 H22        26.1431  -17.8104    0.0078 H       1  NONAME1     0.0000
     55 H23        24.0583  -16.5944    0.0623 H       1  NONAME1     0.0000
     56 H24        22.2905  -15.4967    0.2059 H       1  NONAME1     0.0000
     57 H25        17.0654  -18.6290    1.4452 H       1  NONAME1     0.0000
     58 H26        19.4278  -21.6710   -0.3040 H       1  NONAME1     0.0000
@<TRIPOS>BOND
     1     1     2    2
     2     2     3   am
     3     4     3    1
     4     4     5    1
     5     5     6    1
     6     6     7    1
     7     7     8    1
     8     8     9    1
     9     9    10    1
    10    10    11    1
    11    10    12    1
    12     4    13    1
    13    13    14    2
    14    13    15   am
    15    15    16    1
    16    16    17   ar
    17    17    18   ar
    18    18    19   ar
    19    19    20   ar
    20    20    21    1
    21    21    22   ar
    22    22    23   ar
    23    23    24   ar
    24    24    25   ar
    25    25    26   ar
    26    21    26   ar
    27    20    27   ar
    28    16    27   ar
    29     2    28    1
    30    28    29   ar
    31    29    30   ar
    32    30    31   ar
    33    31    32   ar
    34    28    32   ar
    35     3    33    1
    36     4    34    1
    37     5    35    1
    38     5    36    1
    39     6    37    1
    40     6    38    1
    41     7    39    1
    42     7    40    1
    43     8    41    1
    44     8    42    1
    45     9    43    1
    46     9    44    1
    47    11    45    1
    48    12    46    1
    49    15    47    1
    50    17    48    1
    51    18    49    1
    52    19    50    1
    53    22    51    1
    54    23    52    1
    55    24    53    1
    56    25    54    1
    57    26    55    1
    58    27    56    1
    59    29    57    1
    60    31    58    1
