@<TRIPOS>MOLECULE
*****
 89 91 0 0 0
SMALL
USER_CHARGES

@<TRIPOS>ATOM
      1 C1          2.7548    2.9302    0.3183 C.3     1  NONAME1    -0.0586
      2 C2          2.9205    1.7523    1.2966 C.3     1  NONAME1     0.0030
      3 C3          1.6796    0.9958    1.6853 C.2     1  NONAME1     0.1331
      4 O1          0.5575    1.3993    1.3955 O.2     1  NONAME1    -0.2974
      5 C4          1.9070   -0.2413    2.5440 C.3     1  NONAME1     0.0058
      6 C5          1.4625   -1.5687    1.9451 C.3     1  NONAME1    -0.0464
      7 C6          0.0174   -1.6271    1.4527 C.3     1  NONAME1    -0.0526
      8 C7         -0.1333   -1.7086   -0.0782 C.3     1  NONAME1    -0.0509
      9 C8         -0.3444   -0.4004   -0.8620 C.3     1  NONAME1    -0.0260
     10 C9          0.7488    0.2020   -1.8142 C.3     1  NONAME1     0.0994
     11 N1          1.1176    1.5868   -1.4716 N.am    1  NONAME1    -0.3025
     12 C10         1.4009    2.5885   -2.3798 C.2     1  NONAME1     0.2339
     13 O2          0.6179    3.5482   -2.3714 O.2     1  NONAME1    -0.2738
     14 C11         2.7724    2.7074   -3.1893 C.3     1  NONAME1     0.0991
     15 C12         3.3325    1.4594   -3.8185 C.3     1  NONAME1    -0.0379
     16 N2          3.8418    3.6472   -2.6623 N.am    1  NONAME1    -0.2932
     17 C13         3.5469    5.0693   -2.8633 C.3     1  NONAME1     0.0039
     18 C14         5.1156    3.3931   -2.1111 C.2     1  NONAME1     0.2177
     19 O3          5.9637    4.2925   -2.0335 O.2     1  NONAME1    -0.2755
     20 C15         5.4482    2.0064   -1.4782 C.3     1  NONAME1     0.0426
     21 C16         6.3406    1.1798   -0.4230 C.3     1  NONAME1     0.0316
     22 C17         7.6891    1.8893    0.2238 C.3     1  NONAME1    -0.0317
     23 C18         9.2627    1.5880   -0.0183 C.3     1  NONAME1    -0.0450
     24 C19         9.5047    0.2224   -0.6632 C.3     1  NONAME1    -0.0626
     25 C20        10.2328    1.8894    1.1391 C.3     1  NONAME1    -0.0626
     26 N3          6.3070   -0.2985   -0.6557 N.am    1  NONAME1    -0.3105
     27 C21         5.6121   -0.8551   -1.7181 C.2     1  NONAME1     0.2339
     28 O4          6.2346   -0.9267   -2.7843 O.2     1  NONAME1    -0.2738
     29 C22         4.2220   -1.5976   -1.5637 C.3     1  NONAME1     0.1034
     30 C23         4.3602   -2.8745   -0.6899 C.3     1  NONAME1     0.0013
     31 C24         3.3576   -4.0005   -0.9313 C.ar    1  NONAME1    -0.0201
     32 C25         2.2424   -4.0051   -1.7475 C.ar    1  NONAME1     0.0060
     33 N4          1.5548   -5.1747   -1.5932 N.ar    1  NONAME1    -0.3604
     34 C26         2.2592   -6.0188   -0.7793 C.ar    1  NONAME1     0.0467
     35 C27         1.9612   -7.3316   -0.4000 C.ar    1  NONAME1    -0.0378
     36 C28         2.8895   -8.0051    0.3818 C.ar    1  NONAME1    -0.0598
     37 C29         4.0632   -7.3768    0.7820 C.ar    1  NONAME1    -0.0611
     38 C30         4.3325   -6.0404    0.4259 C.ar    1  NONAME1    -0.0523
     39 C31         3.4110   -5.3350   -0.3766 C.ar    1  NONAME1     0.0029
     40 N5          3.0215   -0.7788   -1.2386 N.am    1  NONAME1    -0.3022
     41 C32         1.9750   -0.6707   -2.1423 C.2     1  NONAME1     0.2340
     42 O5          1.9963   -1.2374   -3.2313 O.2     1  NONAME1    -0.2738
     43 H1          3.1260    2.3541   -0.5347 H       1  NONAME1     0.0234
     44 H2          2.5892    4.1080   -0.6599 H       1  NONAME1     0.0234
     45 H3          3.6097    3.5155    0.7160 H       1  NONAME1     0.0234
     46 H4          3.3057    2.1566    2.2440 H       1  NONAME1     0.0339
     47 H5          3.6720    1.0442    0.9439 H       1  NONAME1     0.0339
     48 H6          1.4205   -0.0657    3.5089 H       1  NONAME1     0.0342
     49 H7          2.9812   -0.3202    2.7608 H       1  NONAME1     0.0342
     50 H8          1.5762   -2.3179    2.7434 H       1  NONAME1     0.0269
     51 H9          2.1515   -1.8900    1.1613 H       1  NONAME1     0.0269
     52 H10        -0.6051   -0.8405    1.8907 H       1  NONAME1     0.0265
     53 H11        -0.3968   -2.5666    1.8508 H       1  NONAME1     0.0265
     54 H12        -1.0548   -2.2936   -0.2271 H       1  NONAME1     0.0266
     55 H13         0.6530   -2.3196   -0.5122 H       1  NONAME1     0.0266
     56 H14        -0.7922    0.3599   -0.2129 H       1  NONAME1     0.0288
     57 H15        -1.1786   -0.6378   -1.5425 H       1  NONAME1     0.0288
     58 H16         0.2366    0.3199   -2.7813 H       1  NONAME1     0.0594
     59 H17         0.3718    1.9786   -0.8946 H       1  NONAME1     0.1495
     60 H18         2.4118    3.2520   -4.0793 H       1  NONAME1     0.0594
     61 H19         2.5391    0.9048   -4.3258 H       1  NONAME1     0.0252
     62 H20         3.8121    0.8251   -3.0829 H       1  NONAME1     0.0252
     63 H21         4.0902    1.7091   -4.5668 H       1  NONAME1     0.0252
     64 H22         3.9855    5.6708   -2.0587 H       1  NONAME1     0.0429
     65 H23         3.9653    5.3884   -3.8204 H       1  NONAME1     0.0429
     66 H24         2.4684    5.2508   -2.8537 H       1  NONAME1     0.0429
     67 H25         5.2842    2.6398   -0.5915 H       1  NONAME1     0.0377
     68 H26         6.2351    1.8962   -2.2350 H       1  NONAME1     0.0377
     69 H27         5.7088    1.1699    0.4798 H       1  NONAME1     0.0503
     70 H28         7.5440    1.8213    1.3105 H       1  NONAME1     0.0286
     71 H29         7.5719    2.9624    0.0077 H       1  NONAME1     0.0286
     72 H30         9.5404    2.3170   -0.7948 H       1  NONAME1     0.0296
     73 H31        10.5630    0.0790   -0.9092 H       1  NONAME1     0.0232
     74 H32         9.1983   -0.5945   -0.0047 H       1  NONAME1     0.0232
     75 H33         8.9721    0.1530   -1.6175 H       1  NONAME1     0.0232
     76 H34         9.6799    1.2979    1.8966 H       1  NONAME1     0.0232
     77 H35        11.2029    2.1908    2.2965 H       1  NONAME1     0.0232
     78 H36        11.0838    1.2896    0.7622 H       1  NONAME1     0.0232
     79 H37         7.2594   -0.5384   -0.8865 H       1  NONAME1     0.1490
     80 H38         4.0605   -1.9636   -2.5866 H       1  NONAME1     0.0598
     81 H39         4.3055   -2.5938    0.3696 H       1  NONAME1     0.0337
     82 H40         5.3609   -3.2983   -0.8458 H       1  NONAME1     0.0337
     83 H41         1.8354   -3.2788   -2.4252 H       1  NONAME1     0.0810
     84 H42         0.6856   -5.4049   -2.0528 H       1  NONAME1     0.1653
     85 H43         1.0476   -7.8207   -0.7237 H       1  NONAME1     0.0638
     86 H44         2.7113   -9.0313    0.6741 H       1  NONAME1     0.0618
     87 H45         4.8029   -7.9258    1.3643 H       1  NONAME1     0.0618
     88 H46         5.2626   -5.5711    0.7380 H       1  NONAME1     0.0624
     89 H47         2.9210   -0.3949   -0.3148 H       1  NONAME1     0.1495
@<TRIPOS>BOND
     1     1     2    1
     2     2     3    1
     3     3     4    2
     4     3     5    1
     5     5     6    1
     6     6     7    1
     7     7     8    1
     8     8     9    1
     9    10     9    1
    10    10    11    1
    11    11    12   am
    12    12    13    2
    13    14    12    1
    14    14    15    1
    15    14    16    1
    16    16    17    1
    17    16    18   am
    18    18    19    2
    19    18    20    1
    20    21    20    1
    21    21    22    1
    22    22    23    1
    23    23    24    1
    24    23    25    1
    25    21    26    1
    26    26    27   am
    27    27    28    2
    28    29    27    1
    29    29    30    1
    30    30    31    1
    31    31    32   ar
    32    32    33   ar
    33    33    34   ar
    34    34    35   ar
    35    35    36   ar
    36    36    37   ar
    37    37    38   ar
    38    38    39   ar
    39    31    39   ar
    40    34    39   ar
    41    29    40    1
    42    40    41   am
    43    10    41    1
    44    41    42    2
    45     1    43    1
    46     1    44    1
    47     1    45    1
    48     2    46    1
    49     2    47    1
    50     5    48    1
    51     5    49    1
    52     6    50    1
    53     6    51    1
    54     7    52    1
    55     7    53    1
    56     8    54    1
    57     8    55    1
    58     9    56    1
    59     9    57    1
    60    10    58    1
    61    11    59    1
    62    14    60    1
    63    15    61    1
    64    15    62    1
    65    15    63    1
    66    17    64    1
    67    17    65    1
    68    17    66    1
    69    20    67    1
    70    20    68    1
    71    21    69    1
    72    22    70    1
    73    22    71    1
    74    23    72    1
    75    24    73    1
    76    24    74    1
    77    24    75    1
    78    25    76    1
    79    25    77    1
    80    25    78    1
    81    26    79    1
    82    29    80    1
    83    30    81    1
    84    30    82    1
    85    32    83    1
    86    33    84    1
    87    35    85    1
    88    36    86    1
    89    37    87    1
    90    38    88    1
    91    40    89    1
