@<TRIPOS>MOLECULE
*****
 49 51 0 0 0
SMALL
USER_CHARGES

@<TRIPOS>ATOM
      1 C1         -9.6824  -12.5272    0.0158 C.3     1  NONAME1     0.0833
      2 O1         -8.3541  -13.0357   -0.1461 O.3     1  NONAME1    -0.4537
      3 C2         -7.3409  -12.2081    0.2033 C.2     1  NONAME1     0.4003
      4 O2         -7.4587  -11.0687    0.6257 O.2     1  NONAME1    -0.2265
      5 N1         -6.1572  -12.8452   -0.0181 N.am    1  NONAME1    -0.2770
      6 C3         -4.9013  -12.1452    0.0964 C.3     1  NONAME1     0.0400
      7 C4         -3.6669  -13.0212    0.0401 C.ar    1  NONAME1    -0.0302
      8 C5         -2.4041  -12.4062   -0.0644 C.ar    1  NONAME1    -0.0564
      9 C6         -1.2219  -13.1609   -0.1547 C.ar    1  NONAME1    -0.0493
     10 C7         -1.2838  -14.5561   -0.1379 C.ar    1  NONAME1     0.0370
     11 C8         -0.1015  -15.4539   -0.3165 C.2     1  NONAME1     0.2483
     12 O3         -0.3209  -16.5603   -0.8085 O.2     1  NONAME1    -0.2699
     13 N2          1.1432  -14.9771    0.0589 N.am    1  NONAME1    -0.2799
     14 C9          2.3846  -15.6909    0.0597 C.ar    1  NONAME1     0.0551
     15 C10         3.5593  -14.8927    0.0567 C.ar    1  NONAME1    -0.0310
     16 C11         4.8718  -15.4289    0.0505 C.ar    1  NONAME1    -0.0160
     17 C12         6.1129  -14.5798    0.0205 C.ar    1  NONAME1    -0.0178
     18 C13         6.0694  -13.1717   -0.0106 C.ar    1  NONAME1    -0.0540
     19 C14         7.2329  -12.3859   -0.0351 C.ar    1  NONAME1    -0.0612
     20 C15         8.4860  -12.9840   -0.0304 C.ar    1  NONAME1    -0.0617
     21 C16         8.5750  -14.3666   -0.0033 C.ar    1  NONAME1    -0.0612
     22 C17         7.4094  -15.1448    0.0204 C.ar    1  NONAME1    -0.0540
     23 C18         4.9475  -16.8294    0.0863 C.ar    1  NONAME1    -0.0522
     24 C19         3.8072  -17.6349    0.1278 C.ar    1  NONAME1    -0.0387
     25 C20         2.5203  -17.0931    0.0792 C.ar    1  NONAME1     0.0461
     26 N3          1.4615  -17.9837    0.3467 N.pl3   1  NONAME1    -0.3565
     27 C21        -2.5380  -15.1724   -0.0041 C.ar    1  NONAME1    -0.0493
     28 C22        -3.7117  -14.4181    0.0975 C.ar    1  NONAME1    -0.0564
     29 H1         -9.7326  -11.5857    0.5699 H       1  NONAME1     0.0661
     30 H2        -10.1225  -12.3891   -0.9757 H       1  NONAME1     0.0661
     31 H3        -10.2696  -13.2767    0.5543 H       1  NONAME1     0.0661
     32 H4         -6.2336  -13.6755   -0.5862 H       1  NONAME1     0.1523
     33 H5         -4.9025  -11.5766    1.0335 H       1  NONAME1     0.0513
     34 H6         -4.8687  -11.4307   -0.7355 H       1  NONAME1     0.0513
     35 H7         -2.3360  -11.3188   -0.0933 H       1  NONAME1     0.0621
     36 H8         -0.2828  -12.6319   -0.2774 H       1  NONAME1     0.0625
     37 H9          1.2119  -14.0010    0.3039 H       1  NONAME1     0.1552
     38 H10         3.4262  -13.8157    0.0392 H       1  NONAME1     0.0643
     39 H11         5.1267  -12.6348   -0.0168 H       1  NONAME1     0.0624
     40 H12         7.1532  -11.3024   -0.0577 H       1  NONAME1     0.0618
     41 H13         9.3874  -12.3780   -0.0482 H       1  NONAME1     0.0618
     42 H14         9.5492  -14.8504   -0.0002 H       1  NONAME1     0.0618
     43 H15         7.5617  -16.2196    0.0395 H       1  NONAME1     0.0624
     44 H16         5.8963  -17.3544    0.1084 H       1  NONAME1     0.0624
     45 H17         3.9369  -18.7115    0.2135 H       1  NONAME1     0.0637
     46 H18         0.5907  -17.6294   -0.0622 H       1  NONAME1     0.1424
     47 H19         1.6324  -18.9198   -0.0009 H       1  NONAME1     0.1424
     48 H20        -2.6103  -16.2595    0.0128 H       1  NONAME1     0.0625
     49 H21        -4.6514  -14.9519    0.2121 H       1  NONAME1     0.0621
@<TRIPOS>BOND
     1     1     2    1
     2     2     3    1
     3     3     4    2
     4     3     5   am
     5     5     6    1
     6     6     7    1
     7     7     8   ar
     8     8     9   ar
     9     9    10   ar
    10    10    11    1
    11    11    12    2
    12    11    13   am
    13    13    14    1
    14    14    15   ar
    15    15    16   ar
    16    16    17    1
    17    17    18   ar
    18    18    19   ar
    19    19    20   ar
    20    20    21   ar
    21    21    22   ar
    22    17    22   ar
    23    16    23   ar
    24    23    24   ar
    25    24    25   ar
    26    14    25   ar
    27    25    26    1
    28    10    27   ar
    29    27    28   ar
    30     7    28   ar
    31     1    29    1
    32     1    30    1
    33     1    31    1
    34     5    32    1
    35     6    33    1
    36     6    34    1
    37     8    35    1
    38     9    36    1
    39    13    37    1
    40    15    38    1
    41    18    39    1
    42    19    40    1
    43    20    41    1
    44    21    42    1
    45    22    43    1
    46    23    44    1
    47    24    45    1
    48    26    46    1
    49    26    47    1
    50    27    48    1
    51    28    49    1
