@<TRIPOS>MOLECULE
*****
 74 75 0 0 0
SMALL
USER_CHARGES

@<TRIPOS>ATOM
      1 C1          4.7117    9.3249    1.0793 C.3     1  NONAME1    -0.0605
      2 C2          5.2679    8.6726   -0.2019 C.3     1  NONAME1    -0.0197
      3 C3          4.1124    8.2356   -1.1084 C.3     1  NONAME1    -0.0605
      4 C4          6.3266    7.5236    0.0039 C.3     1  NONAME1     0.1017
      5 N1          7.4878    8.1229    0.7394 N.am    1  NONAME1    -0.3035
      6 C5          8.8374    7.9365    0.8115 C.2     1  NONAME1     0.2182
      7 O1          9.4416    8.6435    1.6230 O.2     1  NONAME1    -0.2754
      8 C6          9.6116    7.0343   -0.1434 C.3     1  NONAME1     0.0514
      9 C7          8.7481    5.9435   -0.6814 C.3     1  NONAME1    -0.0524
     10 C8         10.9286    6.4303    0.4966 C.3     1  NONAME1     0.0374
     11 C9         12.1392    7.1290   -0.1705 C.3     1  NONAME1    -0.0155
     12 C10        13.4861    6.5333    0.1402 C.2     1  NONAME1    -0.0862
     13 C11        14.6204    7.2345    0.2963 C.2     1  NONAME1    -0.0874
     14 C12        14.7323    8.7360    0.2050 C.3     1  NONAME1    -0.0245
     15 C13        16.1823    9.1952    0.1641 C.3     1  NONAME1     0.0526
     16 C14        16.3377   10.7156    0.1863 C.2     1  NONAME1     0.3563
     17 O2         17.5343   11.1073    0.3143 O.co2   1  NONAME1    -0.2464
     18 O3         15.2855   11.3997    0.0656 O.co2   1  NONAME1    -0.2464
     19 N2         11.0054    4.9487    0.3071 N.am    1  NONAME1    -0.3099
     20 C15        10.1259    4.1250    0.9969 C.2     1  NONAME1     0.2339
     21 O4          9.6176    4.4621    2.0643 O.2     1  NONAME1    -0.2738
     22 C16         9.6653    2.8543    0.2261 C.3     1  NONAME1     0.1033
     23 C17        10.6975    1.6827    0.3126 C.3     1  NONAME1    -0.0007
     24 C18        11.7416    1.6549    1.4167 C.ar    1  NONAME1    -0.0451
     25 C19        13.0537    1.2366    1.1228 C.ar    1  NONAME1    -0.0585
     26 C20        14.0549    1.2580    2.0988 C.ar    1  NONAME1    -0.0615
     27 C21        13.7626    1.6875    3.3892 C.ar    1  NONAME1    -0.0617
     28 C22        12.4570    2.0444    3.7125 C.ar    1  NONAME1    -0.0615
     29 C23        11.4488    1.9966    2.7433 C.ar    1  NONAME1    -0.0585
     30 N3          8.3231    2.4387    0.7064 N.am    1  NONAME1    -0.3022
     31 C24         7.0444    2.8130    0.5796 C.2     1  NONAME1     0.2337
     32 O5          6.2887    2.2579    1.3953 O.2     1  NONAME1    -0.2738
     33 C25         6.3483    3.8752   -0.3610 C.3     1  NONAME1     0.0966
     34 C26         6.7105    4.0403   -1.8283 C.3     1  NONAME1    -0.0381
     35 N4          5.7748    4.9924    0.4731 N.am    1  NONAME1    -0.3027
     36 C27         5.7177    6.3091    0.7738 C.2     1  NONAME1     0.2342
     37 O6          5.0975    6.5326    1.8264 O.2     1  NONAME1    -0.2738
     38 H1          3.6362    9.1515    1.1971 H       1  NONAME1     0.0233
     39 H2          4.8548   10.4115    1.0354 H       1  NONAME1     0.0233
     40 H3          5.2027    8.9839    1.9937 H       1  NONAME1     0.0233
     41 H4          5.7920    9.4760   -0.7424 H       1  NONAME1     0.0318
     42 H5          4.4857    7.8624   -2.0667 H       1  NONAME1     0.0233
     43 H6          3.5086    7.4510   -0.6423 H       1  NONAME1     0.0233
     44 H7          3.4499    9.0838   -1.3211 H       1  NONAME1     0.0233
     45 H8          6.6045    7.2335   -1.0010 H       1  NONAME1     0.0597
     46 H9          7.2177    8.7386    1.4992 H       1  NONAME1     0.1495
     47 H10         9.8734    7.6682   -0.9990 H       1  NONAME1     0.0410
     48 H11         8.0592    6.3096   -1.4255 H       1  NONAME1     0.0238
     49 H12         8.2157    5.4780    0.1506 H       1  NONAME1     0.0238
     50 H13         9.3190    5.2021   -1.2332 H       1  NONAME1     0.0238
     51 H14        10.9561    6.6089    1.5785 H       1  NONAME1     0.0508
     52 H15        12.1045    8.1918    0.0976 H       1  NONAME1     0.0325
     53 H16        12.0202    7.0704   -1.2609 H       1  NONAME1     0.0325
     54 H17        13.5544    5.4516    0.2163 H       1  NONAME1     0.0570
     55 H18        15.5399    6.6898    0.5028 H       1  NONAME1     0.0569
     56 H19        14.2315    9.1759    1.0760 H       1  NONAME1     0.0312
     57 H20        14.2148    9.0907   -0.6957 H       1  NONAME1     0.0312
     58 H21        16.7282    8.7865    1.0241 H       1  NONAME1     0.0382
     59 H22        16.6711    8.8185   -0.7433 H       1  NONAME1     0.0382
     60 H23        11.3960    4.6302   -0.5702 H       1  NONAME1     0.1491
     61 H24         9.5236    3.1021   -0.8322 H       1  NONAME1     0.0598
     62 H25        11.2439    1.6824   -0.6414 H       1  NONAME1     0.0336
     63 H26        10.1675    0.7205    0.3411 H       1  NONAME1     0.0336
     64 H27        13.3174    0.8930    0.1246 H       1  NONAME1     0.0620
     65 H28        15.0674    0.9414    1.8535 H       1  NONAME1     0.0618
     66 H29        14.5437    1.7337    4.1443 H       1  NONAME1     0.0618
     67 H30        12.2190    2.3762    4.7206 H       1  NONAME1     0.0618
     68 H31        10.4408    2.2687    3.0479 H       1  NONAME1     0.0620
     69 H32         8.3835    1.8523    1.5406 H       1  NONAME1     0.1495
     70 H33         5.3964    3.3343   -0.5235 H       1  NONAME1     0.0592
     71 H34         6.5325    3.0959   -2.3603 H       1  NONAME1     0.0252
     72 H35         6.0948    4.8073   -2.3110 H       1  NONAME1     0.0252
     73 H36         7.7547    4.2441   -2.0337 H       1  NONAME1     0.0252
     74 H37         5.2956    4.5484    1.2559 H       1  NONAME1     0.1495
@<TRIPOS>BOND
     1     1     2    1
     2     2     3    1
     3     4     2    1
     4     4     5    1
     5     5     6   am
     6     6     7    2
     7     8     6    1
     8     8     9    1
     9     8    10    1
    10    10    11    1
    11    11    12    1
    12    12    13    2
    13    13    14    1
    14    14    15    1
    15    15    16    1
    16    16    17   ar
    17    16    18   ar
    18    10    19    1
    19    19    20   am
    20    20    21    2
    21    22    20    1
    22    22    23    1
    23    23    24    1
    24    24    25   ar
    25    25    26   ar
    26    26    27   ar
    27    27    28   ar
    28    28    29   ar
    29    24    29   ar
    30    22    30    1
    31    30    31   am
    32    31    32    2
    33    33    31    1
    34    33    34    1
    35    33    35    1
    36    35    36   am
    37     4    36    1
    38    36    37    2
    39     1    38    1
    40     1    39    1
    41     1    40    1
    42     2    41    1
    43     3    42    1
    44     3    43    1
    45     3    44    1
    46     4    45    1
    47     5    46    1
    48     8    47    1
    49     9    48    1
    50     9    49    1
    51     9    50    1
    52    10    51    1
    53    11    52    1
    54    11    53    1
    55    12    54    1
    56    13    55    1
    57    14    56    1
    58    14    57    1
    59    15    58    1
    60    15    59    1
    61    19    60    1
    62    22    61    1
    63    23    62    1
    64    23    63    1
    65    25    64    1
    66    26    65    1
    67    27    66    1
    68    28    67    1
    69    29    68    1
    70    30    69    1
    71    33    70    1
    72    34    71    1
    73    34    72    1
    74    34    73    1
    75    35    74    1
