REMARK  9 active torsions:
REMARK  status: ('A' for Active; 'I' for Inactive)
REMARK    1  A    between atoms: C1_2  and  C2_3 
REMARK       I    between atoms: C1_2  and  N2_18 
REMARK    2  A    between atoms: C2_3  and  C3_4 
REMARK    3  A    between atoms: C3_4  and  C4_5 
REMARK    4  A    between atoms: C4_5  and  C5_6 
REMARK    5  A    between atoms: C5_6  and  C6_7 
REMARK    6  A    between atoms: C6_7  and  C7_8 
REMARK    7  A    between atoms: C7_8  and  C8_9 
REMARK       I    between atoms: C8_9  and  N1_11 
REMARK    8  A    between atoms: N1_11  and  C9_12 
REMARK    9  A    between atoms: N2_18  and  O3_19 
ROOT
ATOM      1  C6  NON d   1       2.426  -2.999  -0.023  0.00  0.00     0.009 C 
ENDROOT
BRANCH   1   2
ATOM      2  C5  NON d   1       3.653  -2.091   0.081  0.00  0.00     0.000 C 
BRANCH   2   3
ATOM      3  C4  NON d   1       3.999  -1.304  -1.192  0.00  0.00     0.000 C 
BRANCH   3   4
ATOM      4  C3  NON d   1       3.152  -0.049  -1.425  0.00  0.00     0.009 C 
BRANCH   4   5
ATOM      5  C2  NON d   1       1.977  -0.281  -2.374  0.00  0.00     0.105 C 
BRANCH   5   6
ATOM      6  C1  NON d   1       0.957   0.844  -2.303  0.00  0.00     0.240 C 
ATOM      7  O1  NON d   1       1.236   1.989  -1.966  0.00  0.00    -0.271 OA
ATOM      8  N2  NON d   1      -0.297   0.435  -2.722  0.00  0.00    -0.237 N 
ATOM      9  H19 NON d   1      -0.553  -0.546  -2.667  0.00  0.00     0.197 HD
BRANCH   8  10
ATOM     10  O3  NON d   1      -1.348   1.336  -2.435  0.00  0.00    -0.287 OA
ATOM     11  H20 NON d   1      -1.400   1.858  -3.259  0.00  0.00     0.244 HD
ENDBRANCH   8  10
ENDBRANCH   5   6
ENDBRANCH   4   5
ENDBRANCH   3   4
ENDBRANCH   2   3
ENDBRANCH   1   2
BRANCH   1  12
ATOM     12  C7  NON d   1       1.137  -2.385   0.531  0.00  0.00     0.103 C 
BRANCH  12  13
ATOM     13  C8  NON d   1      -0.037  -3.342   0.352  0.00  0.00     0.222 C 
ATOM     14  O2  NON d   1       0.140  -4.542   0.176  0.00  0.00    -0.273 OA
ATOM     15  N1  NON d   1      -1.260  -2.696   0.422  0.00  0.00    -0.327 N 
ATOM     16  H13 NON d   1      -1.248  -1.695   0.570  0.00  0.00     0.169 HD
BRANCH  15  17
ATOM     17  C9  NON d   1      -2.540  -3.284   0.294  0.00  0.00     0.034 A 
ATOM     18  C10 NON d   1      -2.764  -4.656   0.157  0.00  0.00     0.029 A 
ATOM     19  C11 NON d   1      -4.064  -5.162   0.037  0.00  0.00     0.002 A 
ATOM     20  C12 NON d   1      -5.152  -4.298   0.047  0.00  0.00     0.000 A 
ATOM     21  C13 NON d   1      -4.945  -2.927   0.179  0.00  0.00     0.002 A 
ATOM     22  C14 NON d   1      -3.646  -2.423   0.305  0.00  0.00     0.029 A 
ENDBRANCH  15  17
ENDBRANCH  12  13
ENDBRANCH   1  12
TORSDOF 9
