@<TRIPOS>MOLECULE
*****
 65 67 0 0 0
SMALL
USER_CHARGES

@<TRIPOS>ATOM
      1 C1          4.2857  -17.4759    5.8173 C.3     1  NONAME1    -0.0061
      2 C2          3.5527  -17.2676    4.5164 C.2     1  NONAME1     0.1303
      3 O1          3.0549  -18.2209    3.9187 O.2     1  NONAME1    -0.2977
      4 C3          3.3975  -15.8327    4.0456 C.3     1  NONAME1     0.0055
      5 C4          2.8833  -15.6850    2.6134 C.3     1  NONAME1    -0.0464
      6 C5          3.9849  -15.5926    1.5461 C.3     1  NONAME1    -0.0526
      7 C6          4.7028  -16.9123    1.2377 C.3     1  NONAME1    -0.0512
      8 C7          5.6580  -16.7773    0.0254 C.3     1  NONAME1    -0.0290
      9 C8          7.0607  -16.2411    0.4105 C.3     1  NONAME1     0.0862
     10 N1          7.5987  -15.2003   -0.5241 N.3     1  NONAME1    -0.2904
     11 C9          7.7398  -13.8864    0.1085 C.3     1  NONAME1     0.0615
     12 C10         8.7270  -13.8688    1.3043 C.3     1  NONAME1    -0.0240
     13 C11        10.1443  -13.3578    1.0706 C.3     1  NONAME1    -0.0493
     14 C12        10.4952  -13.0959   -0.3749 C.3     1  NONAME1    -0.0401
     15 C13         9.3773  -12.4275   -1.1562 C.3     1  NONAME1     0.0000
     16 N2          8.0254  -12.8871   -0.8970 N.3     1  NONAME1    -0.2902
     17 C14         7.1357  -12.7564   -2.0358 C.3     1  NONAME1    -0.0113
     18 C15         8.0865  -17.4139    0.4662 C.2     1  NONAME1     0.2357
     19 O2          7.7854  -18.4923    0.9692 O.2     1  NONAME1    -0.2737
     20 N3          9.3273  -17.0331   -0.0059 N.am    1  NONAME1    -0.2634
     21 C16        10.4932  -17.7440    0.0216 C.ar    1  NONAME1     0.1649
     22 N4         11.6597  -17.1850   -0.2223 N.ar    1  NONAME1    -0.2246
     23 C17        12.6775  -18.1282   -0.0605 C.ar    1  NONAME1     0.0802
     24 C18        14.0941  -17.7611   -0.1364 C.ar    1  NONAME1     0.0009
     25 C19        14.4777  -16.4118   -0.1184 C.ar    1  NONAME1    -0.0525
     26 C20        15.8286  -16.0480   -0.1219 C.ar    1  NONAME1    -0.0611
     27 C21        16.8199  -17.0283   -0.1492 C.ar    1  NONAME1    -0.0617
     28 C22        16.4607  -18.3694   -0.1863 C.ar    1  NONAME1    -0.0611
     29 C23        15.1101  -18.7338   -0.1861 C.ar    1  NONAME1    -0.0525
     30 C24        12.2146  -19.4022    0.2353 C.ar    1  NONAME1     0.0049
     31 S1         10.5182  -19.4112    0.3534 S.2     1  NONAME1    -0.0599
     32 H1          5.1053  -18.1811    5.6613 H       1  NONAME1     0.0306
     33 H2          3.5895  -17.8603    6.5671 H       1  NONAME1     0.0306
     34 H3          4.7022  -16.5324    6.1805 H       1  NONAME1     0.0306
     35 H4          2.6753  -15.3684    4.7297 H       1  NONAME1     0.0341
     36 H5          4.3531  -15.3120    4.1634 H       1  NONAME1     0.0341
     37 H6          2.1698  -16.4761    2.3552 H       1  NONAME1     0.0269
     38 H7          2.3210  -14.7429    2.5676 H       1  NONAME1     0.0269
     39 H8          4.7136  -14.8261    1.8328 H       1  NONAME1     0.0265
     40 H9          3.5073  -15.2377    0.6237 H       1  NONAME1     0.0265
     41 H10         5.2478  -17.2731    2.1172 H       1  NONAME1     0.0266
     42 H11         3.9464  -17.6706    0.9996 H       1  NONAME1     0.0266
     43 H12         5.1777  -16.1377   -0.7244 H       1  NONAME1     0.0285
     44 H13         5.7511  -17.7662   -0.4416 H       1  NONAME1     0.0285
     45 H14         7.0060  -15.8504    1.4326 H       1  NONAME1     0.0557
     46 H15         6.9361  -15.0996   -1.2898 H       1  NONAME1     0.1241
     47 H16         6.7566  -13.6311    0.5263 H       1  NONAME1     0.0630
     48 H17         8.8253  -14.8627    1.7557 H       1  NONAME1     0.0293
     49 H18         8.2808  -13.2607    2.1018 H       1  NONAME1     0.0293
     50 H19        10.8687  -14.0690    1.4884 H       1  NONAME1     0.0267
     51 H20        10.2764  -12.4345    1.6489 H       1  NONAME1     0.0267
     52 H21        11.3837  -12.4497   -0.4070 H       1  NONAME1     0.0278
     53 H22        10.7797  -14.0342   -0.8629 H       1  NONAME1     0.0278
     54 H23         9.3989  -11.3508   -0.9423 H       1  NONAME1     0.0427
     55 H24         9.6288  -12.5248   -2.2210 H       1  NONAME1     0.0427
     56 H25         7.2907  -11.8001   -2.5477 H       1  NONAME1     0.0391
     57 H26         6.0874  -12.7776   -1.7228 H       1  NONAME1     0.0391
     58 H27         7.2983  -13.5511   -2.7750 H       1  NONAME1     0.0391
     59 H28         9.3941  -16.0806   -0.3499 H       1  NONAME1     0.1568
     60 H29        13.7190  -15.6300   -0.0843 H       1  NONAME1     0.0624
     61 H30        16.1074  -14.9988   -0.0938 H       1  NONAME1     0.0618
     62 H31        17.8708  -16.7454   -0.1413 H       1  NONAME1     0.0618
     63 H32        17.2277  -19.1407   -0.2102 H       1  NONAME1     0.0618
     64 H33        14.8726  -19.7916   -0.2182 H       1  NONAME1     0.0624
     65 H34        12.7809  -20.3050    0.4179 H       1  NONAME1     0.0716
@<TRIPOS>BOND
     1     1     2    1
     2     2     3    2
     3     2     4    1
     4     4     5    1
     5     5     6    1
     6     6     7    1
     7     7     8    1
     8     9     8    1
     9     9    10    1
    10    10    11    1
    11    11    12    1
    12    12    13    1
    13    13    14    1
    14    14    15    1
    15    15    16    1
    16    11    16    1
    17    16    17    1
    18     9    18    1
    19    18    19    2
    20    18    20   am
    21    20    21    1
    22    21    22   ar
    23    22    23   ar
    24    23    24    1
    25    24    25   ar
    26    25    26   ar
    27    26    27   ar
    28    27    28   ar
    29    28    29   ar
    30    24    29   ar
    31    23    30   ar
    32    30    31   ar
    33    21    31   ar
    34     1    32    1
    35     1    33    1
    36     1    34    1
    37     4    35    1
    38     4    36    1
    39     5    37    1
    40     5    38    1
    41     6    39    1
    42     6    40    1
    43     7    41    1
    44     7    42    1
    45     8    43    1
    46     8    44    1
    47     9    45    1
    48    10    46    1
    49    11    47    1
    50    12    48    1
    51    12    49    1
    52    13    50    1
    53    13    51    1
    54    14    52    1
    55    14    53    1
    56    15    54    1
    57    15    55    1
    58    17    56    1
    59    17    57    1
    60    17    58    1
    61    20    59    1
    62    25    60    1
    63    26    61    1
    64    27    62    1
    65    28    63    1
    66    29    64    1
    67    30    65    1
