@<TRIPOS>MOLECULE
*****
 54 56 0 0 0
SMALL
USER_CHARGES

@<TRIPOS>ATOM
      1 O1          4.5754    7.6187    7.8439 O.2     1  NONAME1    -0.2687
      2 C1          4.9706    8.1776    6.8250 C.2     1  NONAME1     0.2593
      3 C2          5.5826    7.3610    5.7301 C.2     1  NONAME1     0.0027
      4 C3          6.3128    7.8380    4.7102 C.2     1  NONAME1    -0.0496
      5 C4          6.8805    7.0343    3.6078 C.ar    1  NONAME1    -0.0249
      6 C5          7.0947    7.6603    2.3771 C.ar    1  NONAME1    -0.0542
      7 C6          7.5742    6.9400    1.2748 C.ar    1  NONAME1    -0.0530
      8 C7          7.8694    5.5649    1.3557 C.ar    1  NONAME1    -0.0029
      9 C8          8.2595    4.8854    0.0587 C.3     1  NONAME1    -0.0058
     10 N1          8.4113    3.3761   -0.1218 N.4     1  NONAME1     0.2403
     11 C9          7.1238    2.5645   -0.2398 C.3     1  NONAME1    -0.0078
     12 C10         6.1631    2.6150    0.9433 C.3     1  NONAME1     0.0841
     13 O2          5.4664    3.8541    0.9315 O.3     1  NONAME1    -0.3898
     14 C11         9.6342    2.7960    0.5677 C.3     1  NONAME1    -0.0274
     15 C12         9.8512    1.2886    0.3593 C.3     1  NONAME1     0.0147
     16 C13         9.2519    0.4010    1.4118 C.ar    1  NONAME1    -0.0173
     17 C14         8.7918    0.7602    2.6663 C.ar    1  NONAME1     0.0061
     18 N2          8.3707   -0.3697    3.3208 N.ar    1  NONAME1    -0.3604
     19 C15         8.5789   -1.4747    2.5369 C.ar    1  NONAME1     0.0467
     20 C16         8.3403   -2.8238    2.8186 C.ar    1  NONAME1    -0.0378
     21 C17         8.6979   -3.7614    1.8486 C.ar    1  NONAME1    -0.0598
     22 C18         9.2618   -3.3593    0.6413 C.ar    1  NONAME1    -0.0611
     23 C19         9.4818   -2.0011    0.3693 C.ar    1  NONAME1    -0.0523
     24 C20         9.1337   -1.0316    1.3363 C.ar    1  NONAME1     0.0030
     25 C21         7.7570    4.9739    2.6178 C.ar    1  NONAME1    -0.0530
     26 C22         7.2511    5.6908    3.7230 C.ar    1  NONAME1    -0.0542
     27 N3          4.8505    9.5222    6.5829 N.am    1  NONAME1    -0.1940
     28 O3          4.0292   10.2499    7.4738 O.3     1  NONAME1    -0.2949
     29 H1          5.3834    6.2997    5.8493 H       1  NONAME1     0.0670
     30 H2          6.5050    8.9050    4.6260 H       1  NONAME1     0.0625
     31 H3          6.8617    8.7163    2.2459 H       1  NONAME1     0.0624
     32 H4          7.6879    7.4764    0.3323 H       1  NONAME1     0.0622
     33 H5          7.5402    5.1827   -0.7151 H       1  NONAME1     0.0867
     34 H6          9.2319    5.2990   -0.2416 H       1  NONAME1     0.0867
     35 H7          8.7113    3.3444   -1.1030 H       1  NONAME1     0.2038
     36 H8          7.4024    1.5335   -0.4644 H       1  NONAME1     0.0837
     37 H9          6.6209    2.9637   -1.1296 H       1  NONAME1     0.0837
     38 H10         5.4152    1.8232    0.8328 H       1  NONAME1     0.0610
     39 H11         6.6632    2.4717    1.9005 H       1  NONAME1     0.0610
     40 H12         4.8624    3.8649    1.6989 H       1  NONAME1     0.2096
     41 H13        10.4806    3.3193    0.1038 H       1  NONAME1     0.0818
     42 H14         9.6148    3.0868    1.6166 H       1  NONAME1     0.0818
     43 H15        10.9334    1.1009    0.3768 H       1  NONAME1     0.0366
     44 H16         9.5162    0.9833   -0.6404 H       1  NONAME1     0.0366
     45 H17         8.7433    1.7046    3.1848 H       1  NONAME1     0.0810
     46 H18         8.0068   -0.4027    4.2662 H       1  NONAME1     0.1653
     47 H19         7.9143   -3.1427    3.7654 H       1  NONAME1     0.0638
     48 H20         8.5444   -4.8206    2.0479 H       1  NONAME1     0.0618
     49 H21         9.5500   -4.1123   -0.0897 H       1  NONAME1     0.0618
     50 H22         9.9418   -1.7176   -0.5727 H       1  NONAME1     0.0624
     51 H23         8.0104    3.9353    2.7837 H       1  NONAME1     0.0622
     52 H24         7.1461    5.1718    4.6744 H       1  NONAME1     0.0624
     53 H25         4.9176    9.9104    5.6510 H       1  NONAME1     0.1825
     54 H26         4.5421   10.2091    8.3038 H       1  NONAME1     0.2414
@<TRIPOS>BOND
     1     1     2    2
     2     2     3    1
     3     3     4    2
     4     4     5    1
     5     5     6   ar
     6     6     7   ar
     7     7     8   ar
     8     8     9    1
     9     9    10    1
    10    10    11    1
    11    11    12    1
    12    12    13    1
    13    10    14    1
    14    14    15    1
    15    15    16    1
    16    16    17   ar
    17    17    18   ar
    18    18    19   ar
    19    19    20   ar
    20    20    21   ar
    21    21    22   ar
    22    22    23   ar
    23    23    24   ar
    24    16    24   ar
    25    19    24   ar
    26     8    25   ar
    27    25    26   ar
    28     5    26   ar
    29     2    27   am
    30    27    28    1
    31     3    29    1
    32     4    30    1
    33     6    31    1
    34     7    32    1
    35     9    33    1
    36     9    34    1
    37    10    35    1
    38    11    36    1
    39    11    37    1
    40    12    38    1
    41    12    39    1
    42    13    40    1
    43    14    41    1
    44    14    42    1
    45    15    43    1
    46    15    44    1
    47    17    45    1
    48    18    46    1
    49    20    47    1
    50    21    48    1
    51    22    49    1
    52    23    50    1
    53    25    51    1
    54    26    52    1
    55    27    53    1
    56    28    54    1
