REMARK  16 active torsions:
REMARK  status: ('A' for Active; 'I' for Inactive)
REMARK       I    between atoms: C1_2  and  N1_3 
REMARK    1  A    between atoms: C1_2  and  O3_33 
REMARK    2  A    between atoms: C2_4  and  N1_3 
REMARK    3  A    between atoms: C2_4  and  C3_5 
REMARK    4  A    between atoms: C2_4  and  C14_19 
REMARK    5  A    between atoms: C3_5  and  C4_6 
REMARK    6  A    between atoms: C4_6  and  C5_7 
REMARK    7  A    between atoms: C5_7  and  C6_8 
REMARK    8  A    between atoms: C6_8  and  C7_9 
REMARK    9  A    between atoms: C7_9  and  C8_10 
REMARK   10  A    between atoms: C8_10  and  S1_11 
REMARK   11  A    between atoms: S1_11  and  S2_12 
REMARK   12  A    between atoms: S2_12  and  C9_13 
REMARK       I    between atoms: C14_19  and  N3_21 
REMARK   13  A    between atoms: N3_21  and  C15_22 
REMARK   14  A    between atoms: C16_24  and  C17_25 
REMARK   15  A    between atoms: O3_33  and  C24_34 
REMARK   16  A    between atoms: C24_34  and  C25_35 
ROOT
ATOM      1  C2  NON d   1       2.572 -12.265   0.000  0.00  0.00     0.157 C 
ENDROOT
BRANCH   1   2
ATOM      2  N1  NON d   1       3.639 -11.229  -0.246  0.00  0.00    -0.224 NA
ATOM      3  C1  NON d   1       3.402 -10.078  -0.972  0.00  0.00     0.339 C 
ATOM      4  O1  NON d   1       2.699 -10.036  -1.970  0.00  0.00    -0.245 OA
ATOM      5  H1  NON d   1       4.130 -10.981   0.605  0.00  0.00     0.133 HD
BRANCH   3   6
ATOM      6  O3  NON d   1       3.836  -8.989  -0.266  0.00  0.00    -0.304 OA
BRANCH   6   7
ATOM      7  C24 NON d   1       2.967  -7.838  -0.380  0.00  0.00     0.218 C 
BRANCH   7   8
ATOM      8  C25 NON d   1       3.617  -6.476  -0.202  0.00  0.00    -0.034 A 
ATOM      9  C26 NON d   1       2.797  -5.334  -0.180  0.00  0.00     0.009 A 
ATOM     10  C27 NON d   1       3.337  -4.047  -0.076  0.00  0.00     0.001 A 
ATOM     11  C28 NON d   1       4.715  -3.883   0.011  0.00  0.00     0.000 A 
ATOM     12  C29 NON d   1       5.546  -5.004   0.005  0.00  0.00     0.001 A 
ATOM     13  C30 NON d   1       5.003  -6.294  -0.102  0.00  0.00     0.009 A 
ENDBRANCH   7   8
ENDBRANCH   6   7
ENDBRANCH   3   6
ENDBRANCH   1   2
BRANCH   1  14
ATOM     14  C3  NON d   1       1.028 -12.534  -0.256  0.00  0.00     0.029 C 
BRANCH  14  15
ATOM     15  C4  NON d   1       0.112 -12.111   0.972  0.00  0.00     0.002 C 
BRANCH  15  16
ATOM     16  C5  NON d   1       0.213 -10.632   1.442  0.00  0.00     0.000 C 
BRANCH  16  17
ATOM     17  C6  NON d   1      -0.812 -10.134   2.468  0.00  0.00     0.001 C 
BRANCH  17  18
ATOM     18  C7  NON d   1      -0.348 -10.205   3.929  0.00  0.00     0.011 C 
BRANCH  18  19
ATOM     19  C8  NON d   1      -0.425 -11.608   4.516  0.00  0.00     0.086 C 
BRANCH  19  20
ATOM     20  S1  NON d   1       0.399 -11.726   6.141  0.00  0.00    -0.091 SA
BRANCH  20  21
ATOM     21  S2  NON d   1      -0.975 -10.929   7.444  0.00  0.00    -0.038 SA
BRANCH  21  22
ATOM     22  C9  NON d   1      -0.675  -9.174   7.561  0.00  0.00     0.103 A 
ATOM     23  C10 NON d   1       0.416  -8.520   6.998  0.00  0.00     0.040 A 
ATOM     24  C11 NON d   1       0.529  -7.136   7.138  0.00  0.00     0.004 A 
ATOM     25  C12 NON d   1      -0.431  -6.443   7.861  0.00  0.00     0.019 A 
ATOM     26  C13 NON d   1      -1.472  -7.165   8.411  0.00  0.00     0.118 A 
ATOM     27  N2  NON d   1      -1.615  -8.500   8.266  0.00  0.00    -0.253 NA
ENDBRANCH  21  22
ENDBRANCH  20  21
ENDBRANCH  19  20
ENDBRANCH  18  19
ENDBRANCH  17  18
ENDBRANCH  16  17
ENDBRANCH  15  16
ENDBRANCH  14  15
ENDBRANCH   1  14
BRANCH   1  28
ATOM     28  C14 NON d   1       3.342 -13.598   0.000  0.00  0.00     0.241 C 
ATOM     29  O2  NON d   1       2.687 -14.557   0.438  0.00  0.00    -0.271 OA
ATOM     30  N3  NON d   1       4.675 -13.704  -0.316  0.00  0.00    -0.304 N 
ATOM     31  H19 NON d   1       5.230 -12.866  -0.418  0.00  0.00     0.171 HD
BRANCH  30  32
ATOM     32  C15 NON d   1       5.374 -14.911  -0.277  0.00  0.00     0.173 C 
ATOM     33  N4  NON d   1       6.689 -15.030  -0.244  0.00  0.00    -0.223 NA
ATOM     34  C16 NON d   1       7.053 -16.391  -0.162  0.00  0.00     0.076 C 
ATOM     35  C23 NON d   1       5.978 -17.259  -0.167  0.00  0.00     0.085 C 
ATOM     36  S3  NON d   1       4.529 -16.405  -0.359  0.00  0.00    -0.061 SA
BRANCH  34  37
ATOM     37  C17 NON d   1       8.443 -16.869  -0.092  0.00  0.00    -0.007 A 
ATOM     38  C18 NON d   1       9.513 -15.964  -0.105  0.00  0.00     0.014 A 
ATOM     39  C19 NON d   1      10.838 -16.421  -0.063  0.00  0.00     0.001 A 
ATOM     40  C20 NON d   1      11.117 -17.788  -0.009  0.00  0.00     0.000 A 
ATOM     41  C21 NON d   1      10.071 -18.702   0.011  0.00  0.00     0.001 A 
ATOM     42  C22 NON d   1       8.750 -18.244  -0.030  0.00  0.00     0.014 A 
ENDBRANCH  34  37
ENDBRANCH  30  32
ENDBRANCH   1  28
TORSDOF 16
