REMARK  7 active torsions:
REMARK  status: ('A' for Active; 'I' for Inactive)
REMARK    1  A    between atoms: N1_4  and  C4_5 
REMARK    2  A    between atoms: C7_8  and  C8_9 
REMARK       I    between atoms: C8_9  and  N2_11 
REMARK    3  A    between atoms: N2_11  and  C9_12 
REMARK    4  A    between atoms: C14_17  and  N3_18 
REMARK       I    between atoms: N5_23  and  C18_24 
REMARK    5  A    between atoms: C18_24  and  O3_26 
REMARK    6  A    between atoms: O3_26  and  C19_27 
REMARK    7  A    between atoms: C19_27  and  C20_28 
ROOT
ATOM      1  C4  NON d   1       7.928  -7.290   0.475  0.00  0.00     0.125 A 
ATOM      2  C5  NON d   1       9.141  -6.674   0.792  0.00  0.00     0.051 A 
ATOM      3  C6  NON d   1      10.350  -7.350   0.616  0.00  0.00     0.022 A 
ATOM      4  C7  NON d   1      10.348  -8.659   0.148  0.00  0.00     0.050 A 
ATOM      5  C15 NON d   1       9.114  -9.214  -0.139  0.00  0.00     0.136 A 
ATOM      6  N4  NON d   1       7.926  -8.565   0.019  0.00  0.00    -0.242 NA
ENDROOT
BRANCH   1   7
ATOM      7  N1  NON d   1       6.718  -6.635   0.639  0.00  0.00    -0.362 N 
ATOM      8  C3  NON d   1       6.638  -5.170   0.661  0.00  0.00     0.149 C 
ATOM      9  C2  NON d   1       5.335  -4.620   0.000  0.00  0.00     0.103 C 
ATOM     10  C1  NON d   1       5.335  -3.080   0.000  0.00  0.00     0.034 C 
ATOM     11  N5  NON d   1       4.118  -5.250   0.562  0.00  0.00    -0.321 N 
ATOM     12  C17 NON d   1       4.269  -6.656   0.978  0.00  0.00     0.148 C 
ATOM     13  C18 NON d   1       2.822  -4.750   0.522  0.00  0.00     0.363 C 
ATOM     14  C16 NON d   1       5.484  -7.373   0.359  0.00  0.00     0.144 C 
ATOM     15  O2  NON d   1       1.848  -5.412   0.871  0.00  0.00    -0.238 OA
BRANCH  13  16
ATOM     16  O3  NON d   1       2.719  -3.463   0.082  0.00  0.00    -0.299 OA
BRANCH  16  17
ATOM     17  C19 NON d   1       1.367  -2.971   0.096  0.00  0.00     0.219 C 
BRANCH  17  18
ATOM     18  C20 NON d   1       1.257  -1.462  -0.012  0.00  0.00    -0.034 A 
ATOM     19  C21 NON d   1      -0.009  -0.866   0.126  0.00  0.00     0.009 A 
ATOM     20  C22 NON d   1      -0.161   0.521   0.055  0.00  0.00     0.001 A 
ATOM     21  C23 NON d   1       0.949   1.335  -0.155  0.00  0.00     0.000 A 
ATOM     22  C24 NON d   1       2.207   0.759  -0.305  0.00  0.00     0.001 A 
ATOM     23  C25 NON d   1       2.356  -0.630  -0.244  0.00  0.00     0.009 A 
ENDBRANCH  17  18
ENDBRANCH  16  17
ENDBRANCH  13  16
ENDBRANCH   1   7
BRANCH   4  24
ATOM     24  C8  NON d   1      11.646  -9.359  -0.033  0.00  0.00     0.257 C 
ATOM     25  O1  NON d   1      12.638  -8.666  -0.239  0.00  0.00    -0.267 OA
ATOM     26  N2  NON d   1      11.623 -10.732   0.080  0.00  0.00    -0.321 N 
ATOM     27  H9  NON d   1      10.759 -11.218   0.302  0.00  0.00     0.169 HD
BRANCH  26  28
ATOM     28  C9  NON d   1      12.727 -11.616   0.053  0.00  0.00     0.056 A 
ATOM     29  C10 NON d   1      14.056 -11.216  -0.085  0.00  0.00     0.031 A 
ATOM     30  C11 NON d   1      15.078 -12.168  -0.083  0.00  0.00     0.002 A 
ATOM     31  C12 NON d   1      14.776 -13.522   0.041  0.00  0.00     0.002 A 
ATOM     32  C13 NON d   1      13.449 -13.932   0.169  0.00  0.00     0.025 A 
ATOM     33  C14 NON d   1      12.422 -12.984   0.220  0.00  0.00     0.033 A 
BRANCH  33  34
ATOM     34  N3  NON d   1      11.061 -13.403   0.180  0.00  0.00    -0.301 NA
ATOM     35  H14 NON d   1      10.789 -13.502  -0.799  0.00  0.00     0.124 HD
ATOM     36  H15 NON d   1      10.957 -14.313   0.627  0.00  0.00     0.124 HD
ENDBRANCH  33  34
ENDBRANCH  26  28
ENDBRANCH   4  24
TORSDOF 7
