REMARK  14 active torsions:
REMARK  status: ('A' for Active; 'I' for Inactive)
REMARK    1  A    between atoms: C2_2  and  C3_3 
REMARK    2  A    between atoms: C3_3  and  C6_6 
REMARK    3  A    between atoms: C6_6  and  O2_8 
REMARK    4  A    between atoms: C7_9  and  O2_8 
REMARK    5  A    between atoms: C17_19  and  C18_20 
REMARK    6  A    between atoms: C18_20  and  C19_21 
REMARK    7  A    between atoms: C20_22  and  C19_21 
REMARK    8  A    between atoms: C20_22  and  O3_23 
REMARK    9  A    between atoms: C20_22  and  C21_24 
REMARK   10  A    between atoms: C22_25  and  C21_24 
REMARK   11  A    between atoms: C22_25  and  O4_26 
REMARK   12  A    between atoms: C22_25  and  C23_27 
REMARK   13  A    between atoms: C23_27  and  C24_28 
REMARK       I    between atoms: C24_28  and  N1_30 
REMARK   14  A    between atoms: N1_30  and  O6_31 
ROOT
ATOM      1  C7  NON d   1       3.187   3.407  -0.734  0.00  0.00     0.141 C 
ATOM      2  C8  NON d   1       1.752   3.957  -0.751  0.00  0.00     0.041 C 
ATOM      3  C9  NON d   1       1.531   5.439  -0.981  0.00  0.00     0.007 C 
ATOM      4  C10 NON d   1       0.246   5.856  -0.247  0.00  0.00     0.014 C 
ATOM      5  C11 NON d   1       2.681   6.274  -0.532  0.00  0.00    -0.015 C 
ATOM      6  C12 NON d   1       3.852   5.800  -0.080  0.00  0.00    -0.055 C 
ATOM      7  C13 NON d   1       4.858   6.756   0.323  0.00  0.00     0.004 C 
ATOM      8  C14 NON d   1       6.104   6.401   0.642  0.00  0.00    -0.022 C 
ATOM      9  C15 NON d   1       6.614   4.985   0.569  0.00  0.00     0.009 C 
ATOM     10  C16 NON d   1       8.082   5.039   0.133  0.00  0.00     0.014 C 
ATOM     11  C17 NON d   1       5.708   4.066  -0.326  0.00  0.00     0.004 C 
ATOM     12  C25 NON d   1       4.189   4.314   0.049  0.00  0.00     0.052 C 
ENDROOT
BRANCH  11  13
ATOM     13  C18 NON d   1       6.142   2.573  -0.231  0.00  0.00     0.009 C 
BRANCH  13  14
ATOM     14  C19 NON d   1       7.277   2.203  -1.198  0.00  0.00     0.032 C 
BRANCH  14  15
ATOM     15  C20 NON d   1       7.587   0.704  -1.344  0.00  0.00     0.120 C 
BRANCH  15  16
ATOM     16  O3  NON d   1       7.021  -0.037  -0.264  0.00  0.00    -0.395 OA
ATOM     17  H32 NON d   1       7.173  -0.982  -0.441  0.00  0.00     0.210 HD
ENDBRANCH  15  16
BRANCH  15  18
ATOM     18  C21 NON d   1       9.084   0.354  -1.427  0.00  0.00     0.063 C 
BRANCH  18  19
ATOM     19  C22 NON d   1      10.036   1.296  -2.186  0.00  0.00     0.129 C 
BRANCH  19  20
ATOM     20  O4  NON d   1      11.265   0.572  -2.360  0.00  0.00    -0.395 OA
ATOM     21  H36 NON d   1      11.960   1.228  -2.552  0.00  0.00     0.210 HD
ENDBRANCH  19  20
BRANCH  19  22
ATOM     22  C23 NON d   1       9.551   1.767  -3.559  0.00  0.00     0.136 C 
BRANCH  22  23
ATOM     23  C24 NON d   1       9.399   3.273  -3.615  0.00  0.00     0.243 C 
ATOM     24  O5  NON d   1      10.170   4.056  -3.067  0.00  0.00    -0.271 OA
ATOM     25  N1  NON d   1       8.336   3.692  -4.388  0.00  0.00    -0.237 N 
ATOM     26  H39 NON d   1       7.590   3.074  -4.699  0.00  0.00     0.197 HD
BRANCH  25  27
ATOM     27  O6  NON d   1       8.038   5.067  -4.384  0.00  0.00    -0.287 OA
ATOM     28  H40 NON d   1       8.923   5.479  -4.448  0.00  0.00     0.244 HD
ENDBRANCH  25  27
ENDBRANCH  22  23
ENDBRANCH  19  22
ENDBRANCH  18  19
ENDBRANCH  15  18
ENDBRANCH  14  15
ENDBRANCH  13  14
ENDBRANCH  11  13
BRANCH   1  29
ATOM     29  O2  NON d   1       3.069   2.134  -0.019  0.00  0.00    -0.315 OA
BRANCH  29  30
ATOM     30  C6  NON d   1       2.302   1.169  -0.596  0.00  0.00     0.267 C 
ATOM     31  O1  NON d   1       2.362   0.881  -1.786  0.00  0.00    -0.264 OA
BRANCH  30  32
ATOM     32  C3  NON d   1       1.213   0.636   0.372  0.00  0.00     0.040 C 
ATOM     33  C4  NON d   1       1.360   1.217   1.794  0.00  0.00     0.025 C 
ATOM     34  C5  NON d   1      -0.144   1.069  -0.230  0.00  0.00     0.025 C 
BRANCH  32  35
ATOM     35  C2  NON d   1       1.269  -0.907   0.428  0.00  0.00     0.014 C 
ATOM     36  C1  NON d   1       0.302  -1.531   1.439  0.00  0.00     0.006 C 
ENDBRANCH  32  35
ENDBRANCH  30  32
ENDBRANCH  29  30
ENDBRANCH   1  29
TORSDOF 14
