@<TRIPOS>MOLECULE
*****
 73 75 0 0 0
SMALL
USER_CHARGES

@<TRIPOS>ATOM
      1 N1          0.0000   -1.5400    0.0000 N.4     1  NONAME1     0.2276
      2 C1         -1.3337   -2.3100    0.0000 C.3     1  NONAME1     0.0575
      3 C2         -1.6446   -3.7940   -0.6071 C.3     1  NONAME1     0.0241
      4 C3         -2.9384   -4.5979   -0.4906 C.ar    1  NONAME1    -0.0413
      5 C4         -4.1814   -4.1481   -0.9451 C.ar    1  NONAME1    -0.0549
      6 C5         -5.3242   -4.9514   -0.8315 C.ar    1  NONAME1    -0.0199
      7 C6         -5.2289   -6.2424   -0.3326 C.ar    1  NONAME1     0.1169
      8 O1         -6.3679   -6.9869   -0.2638 O.3     1  NONAME1    -0.5068
      9 C7         -4.0029   -6.7506    0.0675 C.ar    1  NONAME1    -0.0199
     10 C8         -2.8714   -5.9305   -0.0096 C.ar    1  NONAME1    -0.0549
     11 C9         -2.6674   -1.5400    0.0000 C.2     1  NONAME1     0.2657
     12 O2         -3.5727   -1.9674    0.7192 O.2     1  NONAME1    -0.2693
     13 N2         -2.6563   -0.2003   -0.4464 N.am    1  NONAME1    -0.2803
     14 C10        -3.7626    0.6909   -0.1943 C.ar    1  NONAME1     0.0413
     15 C11        -5.0635    0.1522   -0.3209 C.ar    1  NONAME1    -0.0399
     16 C12        -6.2049    0.9314   -0.1649 C.ar    1  NONAME1    -0.0600
     17 C13        -6.0752    2.2733    0.1293 C.ar    1  NONAME1    -0.0611
     18 C14        -4.8012    2.8265    0.2781 C.ar    1  NONAME1    -0.0523
     19 C15        -3.6008    2.0806    0.1149 C.ar    1  NONAME1     0.0033
     20 C16        -2.3038    2.8054    0.3839 C.ar    1  NONAME1    -0.0160
     21 C17        -2.1822    4.2052    0.2009 C.ar    1  NONAME1    -0.0522
     22 C18        -0.9941    4.9174    0.4965 C.ar    1  NONAME1    -0.0399
     23 C19         0.1343    4.2449    0.9317 C.ar    1  NONAME1     0.0334
     24 N3          1.3552    4.9796    1.0165 N.am    1  NONAME1    -0.2855
     25 C20         2.6235    4.4412    1.2097 C.2     1  NONAME1     0.2172
     26 O3          2.8588    3.3236    1.6544 O.2     1  NONAME1    -0.2755
     27 C21         3.7346    5.3532    0.6885 C.3     1  NONAME1     0.0243
     28 C22         5.0635    4.6320    0.3945 C.3     1  NONAME1    -0.0448
     29 C23         5.2488    4.0527   -1.0271 C.3     1  NONAME1    -0.0526
     30 C24         4.6532    2.6556   -1.2884 C.3     1  NONAME1    -0.0526
     31 C25         3.4936    2.6202   -2.3015 C.3     1  NONAME1    -0.0447
     32 C26         2.3339    3.4600   -1.8148 C.3     1  NONAME1     0.0259
     33 C27         0.9856    3.2374   -2.4418 C.2     1  NONAME1     0.2354
     34 O4          0.5035    2.1105   -2.5670 O.2     1  NONAME1    -0.2737
     35 N4          0.3350    4.4301   -2.6997 N.am    1  NONAME1    -0.1975
     36 O5         -1.0164    4.3460   -3.0739 O.3     1  NONAME1    -0.2952
     37 C28         0.0312    2.8766    1.1707 C.ar    1  NONAME1    -0.0399
     38 C29        -1.1764    2.1787    0.9302 C.ar    1  NONAME1    -0.0522
     39 H1         -0.0471   -1.3477    1.0177 H       1  NONAME1     0.2002
     40 H2          1.3337   -0.7700    0.0000 H       1  NONAME1     0.2002
     41 H3         -0.3741   -0.7194   -0.4910 H       1  NONAME1     0.2002
     42 H4          0.0000   -3.0800    0.0000 H       1  NONAME1     0.0952
     43 H5         -1.3183   -3.8253   -1.6523 H       1  NONAME1     0.0373
     44 H6         -0.9772   -4.4722   -0.0442 H       1  NONAME1     0.0373
     45 H7         -4.3092   -3.1621   -1.3786 H       1  NONAME1     0.0621
     46 H8         -6.2923   -4.5674   -1.1396 H       1  NONAME1     0.0654
     47 H9         -6.1577   -7.8557    0.1164 H       1  NONAME1     0.2921
     48 H10        -3.9081   -7.7701    0.4284 H       1  NONAME1     0.0654
     49 H11        -1.9228   -6.3667    0.3019 H       1  NONAME1     0.0621
     50 H12        -1.8900    0.2692   -0.9118 H       1  NONAME1     0.1550
     51 H13        -5.2204   -0.8931   -0.5756 H       1  NONAME1     0.0636
     52 H14        -7.1903    0.4849   -0.2724 H       1  NONAME1     0.0618
     53 H15        -6.9602    2.8910    0.2614 H       1  NONAME1     0.0618
     54 H16        -4.7782    3.8757    0.5663 H       1  NONAME1     0.0624
     55 H17        -3.0193    4.7925   -0.1723 H       1  NONAME1     0.0624
     56 H18        -0.9967    5.9974    0.3492 H       1  NONAME1     0.0636
     57 H19         1.3053    5.9738    0.8077 H       1  NONAME1     0.1548
     58 H20         3.3978    5.8935   -0.2037 H       1  NONAME1     0.0358
     59 H21         3.9093    6.1035    1.4706 H       1  NONAME1     0.0358
     60 H22         5.2682    3.8578    1.1430 H       1  NONAME1     0.0270
     61 H23         5.8543    5.3844    0.5171 H       1  NONAME1     0.0270
     62 H24         6.3351    3.9483   -1.1658 H       1  NONAME1     0.0265
     63 H25         4.9319    4.7762   -1.7862 H       1  NONAME1     0.0265
     64 H26         5.4486    2.0159   -1.6945 H       1  NONAME1     0.0265
     65 H27         4.3436    2.1853   -0.3483 H       1  NONAME1     0.0265
     66 H28         3.8316    2.9777   -3.2804 H       1  NONAME1     0.0270
     67 H29         3.1771    1.5778   -2.4417 H       1  NONAME1     0.0270
     68 H30         2.6005    4.5198   -1.8535 H       1  NONAME1     0.0359
     69 H31         2.1655    3.1777   -0.7787 H       1  NONAME1     0.0359
     70 H32         0.6638    5.3140   -2.3075 H       1  NONAME1     0.1822
     71 H33        -1.4588    4.9841   -2.4856 H       1  NONAME1     0.2414
     72 H34         0.8637    2.3153    1.5738 H       1  NONAME1     0.0636
     73 H35        -1.2215    1.1392    1.2255 H       1  NONAME1     0.0624
@<TRIPOS>BOND
     1     2     1    1
     2     2     3    1
     3     3     4    1
     4     4     5   ar
     5     5     6   ar
     6     6     7   ar
     7     7     8    1
     8     7     9   ar
     9     9    10   ar
    10     4    10   ar
    11     2    11    1
    12    11    12    2
    13    11    13   am
    14    13    14    1
    15    14    15   ar
    16    15    16   ar
    17    16    17   ar
    18    17    18   ar
    19    18    19   ar
    20    14    19   ar
    21    19    20    1
    22    20    21   ar
    23    21    22   ar
    24    22    23   ar
    25    23    24    1
    26    24    25   am
    27    25    26    2
    28    25    27    1
    29    27    28    1
    30    28    29    1
    31    29    30    1
    32    30    31    1
    33    31    32    1
    34    32    33    1
    35    33    34    2
    36    33    35   am
    37    35    36    1
    38    23    37   ar
    39    37    38   ar
    40    20    38   ar
    41     1    39    1
    42     1    40    1
    43     1    41    1
    44     2    42    1
    45     3    43    1
    46     3    44    1
    47     5    45    1
    48     6    46    1
    49     8    47    1
    50     9    48    1
    51    10    49    1
    52    13    50    1
    53    15    51    1
    54    16    52    1
    55    17    53    1
    56    18    54    1
    57    21    55    1
    58    22    56    1
    59    24    57    1
    60    27    58    1
    61    27    59    1
    62    28    60    1
    63    28    61    1
    64    29    62    1
    65    29    63    1
    66    30    64    1
    67    30    65    1
    68    31    66    1
    69    31    67    1
    70    32    68    1
    71    32    69    1
    72    35    70    1
    73    36    71    1
    74    37    72    1
    75    38    73    1
