@<TRIPOS>MOLECULE
*****
 35 36 0 0 0
SMALL
USER_CHARGES

@<TRIPOS>ATOM
      1 O1         -0.5562    2.0431   -0.5349 O.2     1  NONAME1    -0.2687
      2 C1          0.3951    1.3614   -0.1609 C.2     1  NONAME1     0.2593
      3 C2          0.2654   -0.1145   -0.0426 C.2     1  NONAME1     0.0027
      4 C3          1.3029   -0.9633   -0.0746 C.2     1  NONAME1    -0.0496
      5 C4          1.2285   -2.4353   -0.0284 C.ar    1  NONAME1    -0.0248
      6 C5          2.4245   -3.1510    0.0573 C.ar    1  NONAME1    -0.0540
      7 C6          2.4340   -4.5542    0.0788 C.ar    1  NONAME1    -0.0535
      8 C7          1.2549   -5.3176   -0.0008 C.ar    1  NONAME1    -0.0178
      9 C8          1.2766   -6.8146    0.0083 C.ar    1  NONAME1    -0.0179
     10 C9          2.4687   -7.5477   -0.1556 C.ar    1  NONAME1    -0.0537
     11 C10         2.5006   -8.9505   -0.1202 C.ar    1  NONAME1    -0.0558
     12 C11         1.3320   -9.6926    0.0659 C.ar    1  NONAME1    -0.0221
     13 C12         1.4228  -11.1974    0.1231 C.3     1  NONAME1     0.0692
     14 O2          0.1527  -11.8289    0.1961 O.3     1  NONAME1    -0.3904
     15 C13         0.1364   -8.9907    0.2247 C.ar    1  NONAME1    -0.0558
     16 C14         0.1128   -7.5856    0.1949 C.ar    1  NONAME1    -0.0537
     17 C15         0.0607   -4.5764   -0.0923 C.ar    1  NONAME1    -0.0535
     18 C16         0.0437   -3.1689   -0.0996 C.ar    1  NONAME1    -0.0540
     19 N1          1.5928    1.9090    0.2034 N.am    1  NONAME1    -0.1940
     20 O3          1.6928    3.3165    0.1371 O.3     1  NONAME1    -0.2949
     21 H1         -0.7656   -0.4476    0.0005 H       1  NONAME1     0.0670
     22 H2          2.3141   -0.5758   -0.1721 H       1  NONAME1     0.0625
     23 H3          3.3801   -2.6334    0.1090 H       1  NONAME1     0.0624
     24 H4          3.4076   -5.0280    0.1638 H       1  NONAME1     0.0624
     25 H5          3.4205   -7.0494   -0.3162 H       1  NONAME1     0.0624
     26 H6          3.4585   -9.4560   -0.2315 H       1  NONAME1     0.0621
     27 H7          1.9973  -11.4959    1.0057 H       1  NONAME1     0.0607
     28 H8          1.9316  -11.5749   -0.7708 H       1  NONAME1     0.0607
     29 H9         -0.3040  -11.6151   -0.6354 H       1  NONAME1     0.2098
     30 H10        -0.7984   -9.5213    0.3931 H       1  NONAME1     0.0621
     31 H11        -0.8548   -7.1150    0.3430 H       1  NONAME1     0.0624
     32 H12        -0.9024   -5.0734   -0.1746 H       1  NONAME1     0.0624
     33 H13        -0.9220   -2.6762   -0.1769 H       1  NONAME1     0.0624
     34 H14         2.3465    1.4197    0.6686 H       1  NONAME1     0.1825
     35 H15         0.8174    3.5705   -0.2301 H       1  NONAME1     0.2414
@<TRIPOS>BOND
     1     1     2    2
     2     2     3    1
     3     3     4    2
     4     4     5    1
     5     5     6   ar
     6     6     7   ar
     7     7     8   ar
     8     8     9    1
     9     9    10   ar
    10    10    11   ar
    11    11    12   ar
    12    12    13    1
    13    13    14    1
    14    12    15   ar
    15    15    16   ar
    16     9    16   ar
    17     8    17   ar
    18    17    18   ar
    19     5    18   ar
    20     2    19   am
    21    19    20    1
    22     3    21    1
    23     4    22    1
    24     6    23    1
    25     7    24    1
    26    10    25    1
    27    11    26    1
    28    13    27    1
    29    13    28    1
    30    14    29    1
    31    15    30    1
    32    16    31    1
    33    17    32    1
    34    18    33    1
    35    19    34    1
    36    20    35    1
