REMARK  12 active torsions:
REMARK  status: ('A' for Active; 'I' for Inactive)
REMARK    1  A    between atoms: C7_7  and  N1_8 
REMARK    2  A    between atoms: N1_8  and  C8_9 
REMARK    3  A    between atoms: C12_15  and  O1_16 
REMARK    4  A    between atoms: C14_18  and  O2_19 
REMARK    5  A    between atoms: O2_19  and  C15_20 
REMARK    6  A    between atoms: C15_20  and  C16_21 
REMARK    7  A    between atoms: C16_21  and  C17_22 
REMARK    8  A    between atoms: C17_22  and  C18_23 
REMARK    9  A    between atoms: C18_23  and  C19_24 
REMARK   10  A    between atoms: C19_24  and  C20_25 
REMARK   11  A    between atoms: C20_25  and  C21_26 
REMARK       I    between atoms: C21_26  and  N4_28 
REMARK   12  A    between atoms: N4_28  and  O4_29 
ROOT
ATOM      1  C1  NON d   1      -5.942  -3.209   0.076  0.00  0.00     0.018 C 
ATOM      2  C2  NON d   1      -6.003  -2.004   0.080  0.00  0.00    -0.078 C 
ATOM      3  C3  NON d   1      -6.128  -0.573   0.093  0.00  0.00     0.019 A 
ATOM      4  C4  NON d   1      -7.397  -0.003   0.125  0.00  0.00     0.021 A 
ATOM      5  C5  NON d   1      -7.517   1.379   0.176  0.00  0.00     0.004 A 
ATOM      6  C6  NON d   1      -6.371   2.185   0.179  0.00  0.00     0.029 A 
ATOM      7  C7  NON d   1      -5.083   1.641   0.083  0.00  0.00     0.035 A 
ATOM      8  C24 NON d   1      -4.983   0.240   0.078  0.00  0.00     0.050 A 
ENDROOT
BRANCH   7   9
ATOM      9  N1  NON d   1      -3.880   2.407   0.091  0.00  0.00    -0.340 N 
ATOM     10  H5  NON d   1      -3.159   1.912  -0.420  0.00  0.00     0.167 HD
BRANCH   9  11
ATOM     11  C8  NON d   1      -3.693   3.814  -0.022  0.00  0.00     0.142 A 
ATOM     12  N2  NON d   1      -4.783   4.602  -0.002  0.00  0.00    -0.224 NA
ATOM     13  C9  NON d   1      -4.607   5.921  -0.074  0.00  0.00     0.236 A 
ATOM     14  N3  NON d   1      -3.436   6.541  -0.174  0.00  0.00    -0.241 NA
ATOM     15  C10 NON d   1      -2.354   5.776  -0.184  0.00  0.00     0.075 A 
ATOM     16  C11 NON d   1      -1.137   6.429  -0.300  0.00  0.00     0.072 A 
ATOM     17  C23 NON d   1      -2.379   4.371  -0.093  0.00  0.00     0.042 A 
ATOM     18  C12 NON d   1       0.079   5.745  -0.345  0.00  0.00     0.103 A 
ATOM     19  C14 NON d   1       0.091   4.359  -0.190  0.00  0.00     0.103 A 
ATOM     20  C22 NON d   1      -1.133   3.675  -0.089  0.00  0.00     0.057 A 
BRANCH  18  21
ATOM     21  O1  NON d   1       1.182   6.543  -0.464  0.00  0.00    -0.353 OA
ATOM     22  C13 NON d   1       2.011   6.242  -1.585  0.00  0.00     0.210 C 
ENDBRANCH  18  21
BRANCH  19  23
ATOM     23  O2  NON d   1       1.229   3.592  -0.214  0.00  0.00    -0.348 OA
BRANCH  23  24
ATOM     24  C15 NON d   1       2.179   3.928   0.800  0.00  0.00     0.176 C 
BRANCH  24  25
ATOM     25  C16 NON d   1       3.577   3.345   0.531  0.00  0.00     0.027 C 
BRANCH  25  26
ATOM     26  C17 NON d   1       3.929   2.889  -0.890  0.00  0.00     0.002 C 
BRANCH  26  27
ATOM     27  C18 NON d   1       3.326   1.529  -1.253  0.00  0.00     0.001 C 
BRANCH  27  28
ATOM     28  C19 NON d   1       3.857   0.946  -2.572  0.00  0.00     0.009 C 
BRANCH  28  29
ATOM     29  C20 NON d   1       5.091   0.052  -2.417  0.00  0.00     0.105 C 
BRANCH  29  30
ATOM     30  C21 NON d   1       6.438   0.755  -2.492  0.00  0.00     0.240 C 
ATOM     31  O3  NON d   1       6.575   1.937  -2.782  0.00  0.00    -0.271 OA
ATOM     32  N4  NON d   1       7.473  -0.130  -2.260  0.00  0.00    -0.237 N 
ATOM     33  H23 NON d   1       7.330  -1.078  -1.932  0.00  0.00     0.197 HD
BRANCH  32  34
ATOM     34  O4  NON d   1       8.777   0.389  -2.153  0.00  0.00    -0.287 OA
ATOM     35  H24 NON d   1       9.207   0.026  -2.949  0.00  0.00     0.244 HD
ENDBRANCH  32  34
ENDBRANCH  29  30
ENDBRANCH  28  29
ENDBRANCH  27  28
ENDBRANCH  26  27
ENDBRANCH  25  26
ENDBRANCH  24  25
ENDBRANCH  23  24
ENDBRANCH  19  23
ENDBRANCH   9  11
ENDBRANCH   7   9
TORSDOF 12
