@<TRIPOS>MOLECULE
*****
 47 48 0 0 0
SMALL
USER_CHARGES

@<TRIPOS>ATOM
      1 N1         -1.5011    3.1700   -0.1484 N.pl3   1  NONAME1    -0.3579
      2 C1         -0.7634    4.3519    0.0083 C.ar    1  NONAME1     0.0252
      3 C2         -1.4209    5.5833   -0.0208 C.ar    1  NONAME1    -0.0410
      4 C3         -0.6971    6.7718    0.0071 C.ar    1  NONAME1    -0.0594
      5 C4          0.6968    6.7351    0.0199 C.ar    1  NONAME1    -0.0509
      6 C5          1.3925    5.5135   -0.0153 C.ar    1  NONAME1     0.0217
      7 C6          2.8545    5.5186   -0.0498 C.ar    1  NONAME1     0.1680
      8 C7          3.7920    6.5179   -0.1256 C.ar    1  NONAME1     0.0176
      9 C8          5.0501    5.8673   -0.1116 C.ar    1  NONAME1     0.1682
     10 C9          6.3452    6.5510   -0.1686 C.2     1  NONAME1     0.2658
     11 O1          6.4122    7.7755   -0.2415 O.2     1  NONAME1    -0.2684
     12 N2          7.4804    5.7560   -0.1255 N.am    1  NONAME1    -0.3100
     13 C10         8.7820    6.3854   -0.1636 C.3     1  NONAME1     0.0119
     14 C11         9.9753    5.4659    0.0863 C.3     1  NONAME1    -0.0374
     15 C12        10.5162    4.7548   -1.1611 C.3     1  NONAME1    -0.0516
     16 C13         9.8080    3.4377   -1.4635 C.3     1  NONAME1    -0.0526
     17 C14        10.3464    2.7298   -2.7172 C.3     1  NONAME1    -0.0447
     18 C15        11.5877    1.8617   -2.4889 C.3     1  NONAME1     0.0259
     19 C16        12.9356    2.5563   -2.6131 C.2     1  NONAME1     0.2354
     20 O2         13.0773    3.7291   -2.9378 O.2     1  NONAME1    -0.2737
     21 N3         13.9764    1.6679   -2.3729 N.am    1  NONAME1    -0.1975
     22 O3         15.2562    2.2443   -2.2158 O.3     1  NONAME1    -0.2952
     23 N4          4.8931    4.5344   -0.0310 N.ar    1  NONAME1    -0.0730
     24 O4          3.5128    4.3222    0.0053 O.2     1  NONAME1    -0.3539
     25 C17         0.6391    4.3280   -0.0398 C.ar    1  NONAME1    -0.0303
     26 H1         -2.4560    3.2317    0.1943 H       1  NONAME1     0.1423
     27 H2         -1.0223    2.3426    0.1930 H       1  NONAME1     0.1423
     28 H3         -2.5059    5.6271   -0.0718 H       1  NONAME1     0.0636
     29 H4         -1.2159    7.7272    0.0028 H       1  NONAME1     0.0618
     30 H5          1.2319    7.6813    0.0420 H       1  NONAME1     0.0625
     31 H6          3.6174    7.5820   -0.1831 H       1  NONAME1     0.0679
     32 H7          7.3615    4.7498   -0.0892 H       1  NONAME1     0.1490
     33 H8          8.7767    7.1570    0.6170 H       1  NONAME1     0.0462
     34 H9          8.8777    6.9109   -1.1214 H       1  NONAME1     0.0462
     35 H10        10.7901    6.1080    0.4486 H       1  NONAME1     0.0280
     36 H11         9.7637    4.7497    0.8878 H       1  NONAME1     0.0280
     37 H12        11.5781    4.5497   -0.9880 H       1  NONAME1     0.0266
     38 H13        10.4612    5.4217   -2.0302 H       1  NONAME1     0.0266
     39 H14         9.8741    2.7691   -0.5967 H       1  NONAME1     0.0265
     40 H15         8.7429    3.6409   -1.6221 H       1  NONAME1     0.0265
     41 H16        10.5058    3.4492   -3.5281 H       1  NONAME1     0.0270
     42 H17         9.5502    2.0532   -3.0554 H       1  NONAME1     0.0270
     43 H18        11.5327    1.3677   -1.5121 H       1  NONAME1     0.0359
     44 H19        11.5881    1.0736   -3.2539 H       1  NONAME1     0.0359
     45 H20        13.8108    0.8360   -1.8158 H       1  NONAME1     0.1822
     46 H21        15.6643    2.0801   -3.0861 H       1  NONAME1     0.2414
     47 H22         1.1465    3.3684   -0.0998 H       1  NONAME1     0.0643
@<TRIPOS>BOND
     1     1     2    1
     2     2     3   ar
     3     3     4   ar
     4     4     5   ar
     5     5     6   ar
     6     6     7    1
     7     7     8   ar
     8     8     9   ar
     9     9    10    1
    10    10    11    2
    11    10    12   am
    12    12    13    1
    13    13    14    1
    14    14    15    1
    15    15    16    1
    16    16    17    1
    17    17    18    1
    18    18    19    1
    19    19    20    2
    20    19    21   am
    21    21    22    1
    22     9    23   ar
    23    23    24   ar
    24     7    24   ar
    25     6    25   ar
    26     2    25   ar
    27     1    26    1
    28     1    27    1
    29     3    28    1
    30     4    29    1
    31     5    30    1
    32     8    31    1
    33    12    32    1
    34    13    33    1
    35    13    34    1
    36    14    35    1
    37    14    36    1
    38    15    37    1
    39    15    38    1
    40    16    39    1
    41    16    40    1
    42    17    41    1
    43    17    42    1
    44    18    43    1
    45    18    44    1
    46    21    45    1
    47    22    46    1
    48    25    47    1
