@<TRIPOS>MOLECULE
*****
 78 81 0 0 0
SMALL
USER_CHARGES

@<TRIPOS>ATOM
      1 C1          4.1290   -6.0085   -2.3916 C.3     1  NONAME1    -0.0573
      2 C2          3.3513   -6.1916   -1.0963 C.3     1  NONAME1    -0.0054
      3 C3          3.0879   -7.6848   -0.8577 C.3     1  NONAME1    -0.0573
      4 C4          2.1575   -5.2349   -0.9574 C.ar    1  NONAME1     0.0345
      5 C5          0.7806   -5.5197   -0.9345 C.ar    1  NONAME1     0.0662
      6 C6          0.1780   -6.8551   -1.1639 C.2     1  NONAME1     0.2506
      7 O1          0.4967   -7.5271   -2.1391 O.2     1  NONAME1    -0.2698
      8 N1         -0.7738   -7.2476   -0.2362 N.am    1  NONAME1    -0.2814
      9 C7         -1.4375   -8.4923   -0.1922 C.ar    1  NONAME1     0.0337
     10 C8         -0.8308   -9.6778   -0.6046 C.ar    1  NONAME1    -0.0405
     11 C9         -1.5063  -10.8988   -0.4867 C.ar    1  NONAME1    -0.0600
     12 C10        -2.8082  -10.9330    0.0090 C.ar    1  NONAME1    -0.0616
     13 C11        -3.4217   -9.7544    0.4169 C.ar    1  NONAME1    -0.0600
     14 C12        -2.7265   -8.5364    0.3465 C.ar    1  NONAME1    -0.0405
     15 C13         0.0869   -4.2853   -0.6329 C.ar    1  NONAME1     0.0200
     16 C14        -1.3591   -4.1107   -0.3816 C.ar    1  NONAME1    -0.0151
     17 C15        -2.3191   -4.7699   -1.1637 C.ar    1  NONAME1    -0.0539
     18 C16        -3.6854   -4.6430   -0.8863 C.ar    1  NONAME1    -0.0612
     19 C17        -4.1154   -3.8082    0.1413 C.ar    1  NONAME1    -0.0617
     20 C18        -3.1798   -3.1291    0.9155 C.ar    1  NONAME1    -0.0612
     21 C19        -1.8115   -3.3074    0.6785 C.ar    1  NONAME1    -0.0539
     22 C20         1.0213   -3.2282   -0.6702 C.ar    1  NONAME1     0.0578
     23 C21         0.7651   -1.7178   -0.6623 C.ar    1  NONAME1    -0.0007
     24 C22        -0.4266   -1.2115   -1.2224 C.ar    1  NONAME1    -0.0499
     25 C23        -0.7864    0.1464   -1.1407 C.ar    1  NONAME1    -0.0258
     26 C24         0.0793    1.0577   -0.5643 C.ar    1  NONAME1     0.1234
     27 F1         -0.2542    2.3511   -0.4813 F       1  NONAME1    -0.2055
     28 C25         1.2924    0.6324   -0.0737 C.ar    1  NONAME1    -0.0258
     29 C26         1.6143   -0.7335   -0.1110 C.ar    1  NONAME1    -0.0499
     30 N2          2.2932   -3.8695   -0.6875 N.ar    1  NONAME1    -0.3422
     31 C27         3.4770   -3.0994   -0.3541 C.3     1  NONAME1     0.0259
     32 C28         4.9262   -3.5274    0.0310 C.3     1  NONAME1    -0.0087
     33 C29         5.5141   -4.7460    1.1458 C.3     1  NONAME1     0.0592
     34 O2          6.5421   -4.0829    2.0193 O.3     1  NONAME1    -0.3916
     35 C30         4.4981   -4.9658    2.2821 C.3     1  NONAME1    -0.0002
     36 C31         3.0974   -5.5222    1.9657 C.3     1  NONAME1     0.0659
     37 O3          2.1750   -4.6597    2.8042 O.3     1  NONAME1    -0.3912
     38 C32         2.6285   -6.8396    2.6108 C.3     1  NONAME1     0.0520
     39 C33         1.1552   -7.1900    2.5589 C.2     1  NONAME1     0.2379
     40 O4          0.2881   -6.4198    2.1531 O.2     1  NONAME1    -0.2736
     41 N3          0.9177   -8.4725    3.0250 N.am    1  NONAME1    -0.1974
     42 O5         -0.4410   -8.7932    3.2337 O.3     1  NONAME1    -0.2952
     43 H1          5.1043   -6.5042   -2.3034 H       1  NONAME1     0.0236
     44 H2          3.6036   -6.4484   -3.2430 H       1  NONAME1     0.0236
     45 H3          4.3148   -4.9549   -2.6126 H       1  NONAME1     0.0236
     46 H4          4.0391   -5.9360   -0.2974 H       1  NONAME1     0.0358
     47 H5          2.3727   -7.8702   -0.0529 H       1  NONAME1     0.0236
     48 H6          2.7362   -8.1919   -1.7605 H       1  NONAME1     0.0236
     49 H7          4.0189   -8.1901   -0.5725 H       1  NONAME1     0.0236
     50 H8         -1.0549   -6.5478    0.4571 H       1  NONAME1     0.1551
     51 H9          0.1890   -9.6846   -0.9827 H       1  NONAME1     0.0636
     52 H10        -1.0160  -11.8233   -0.7846 H       1  NONAME1     0.0618
     53 H11        -3.3432  -11.8783    0.0718 H       1  NONAME1     0.0618
     54 H12        -4.4467   -9.7729    0.7844 H       1  NONAME1     0.0618
     55 H13        -3.2276   -7.6298    0.6697 H       1  NONAME1     0.0636
     56 H14        -2.0208   -5.4106   -1.9914 H       1  NONAME1     0.0624
     57 H15        -4.4117   -5.1944   -1.4783 H       1  NONAME1     0.0618
     58 H16        -5.1776   -3.6860    0.3380 H       1  NONAME1     0.0618
     59 H17        -3.5100   -2.4602    1.7065 H       1  NONAME1     0.0618
     60 H18        -1.1027   -2.7837    1.3161 H       1  NONAME1     0.0624
     61 H19        -1.1307   -1.8760   -1.7169 H       1  NONAME1     0.0625
     62 H20        -1.7432    0.4880   -1.5204 H       1  NONAME1     0.0646
     63 H21         1.9882    1.3464    0.3588 H       1  NONAME1     0.0646
     64 H22         2.5698   -0.9300    0.3439 H       1  NONAME1     0.0625
     65 H23         3.1895   -2.5698    0.5491 H       1  NONAME1     0.0493
     66 H24         3.5893   -2.3830   -1.1812 H       1  NONAME1     0.0493
     67 H25         5.3447   -3.7555   -0.9614 H       1  NONAME1     0.0307
     68 H26         5.4297   -2.6055    0.3637 H       1  NONAME1     0.0307
     69 H27         6.5300   -4.5262    0.0094 H       1  NONAME1     0.0594
     70 H28         7.1271   -4.7959    2.3313 H       1  NONAME1     0.2098
     71 H29         4.4550   -4.0963    2.9690 H       1  NONAME1     0.0315
     72 H30         4.9713   -5.7206    2.9317 H       1  NONAME1     0.0315
     73 H31         3.5664   -4.2048    1.3206 H       1  NONAME1     0.0599
     74 H32         1.2956   -4.7209    2.3691 H       1  NONAME1     0.2098
     75 H33         2.9171   -6.8455    3.6716 H       1  NONAME1     0.0384
     76 H34         3.1832   -7.6566    2.1342 H       1  NONAME1     0.0384
     77 H35         1.5603   -8.8887    3.6922 H       1  NONAME1     0.1822
     78 H36        -0.7206   -9.0926    2.3465 H       1  NONAME1     0.2414
@<TRIPOS>BOND
     1     1     2    1
     2     2     3    1
     3     2     4    1
     4     4     5   ar
     5     5     6    1
     6     6     7    2
     7     6     8   am
     8     8     9    1
     9     9    10   ar
    10    10    11   ar
    11    11    12   ar
    12    12    13   ar
    13    13    14   ar
    14     9    14   ar
    15     5    15   ar
    16    15    16    1
    17    16    17   ar
    18    17    18   ar
    19    18    19   ar
    20    19    20   ar
    21    20    21   ar
    22    16    21   ar
    23    15    22   ar
    24    22    23    1
    25    23    24   ar
    26    24    25   ar
    27    25    26   ar
    28    26    27    1
    29    26    28   ar
    30    28    29   ar
    31    23    29   ar
    32    22    30   ar
    33     4    30   ar
    34    30    31    1
    35    31    32    1
    36    33    32    1
    37    33    34    1
    38    33    35    1
    39    36    35    1
    40    36    37    1
    41    36    38    1
    42    38    39    1
    43    39    40    2
    44    39    41   am
    45    41    42    1
    46     1    43    1
    47     1    44    1
    48     1    45    1
    49     2    46    1
    50     3    47    1
    51     3    48    1
    52     3    49    1
    53     8    50    1
    54    10    51    1
    55    11    52    1
    56    12    53    1
    57    13    54    1
    58    14    55    1
    59    17    56    1
    60    18    57    1
    61    19    58    1
    62    20    59    1
    63    21    60    1
    64    24    61    1
    65    25    62    1
    66    28    63    1
    67    29    64    1
    68    31    65    1
    69    31    66    1
    70    32    67    1
    71    32    68    1
    72    33    69    1
    73    34    70    1
    74    35    71    1
    75    35    72    1
    76    36    73    1
    77    37    74    1
    78    38    75    1
    79    38    76    1
    80    41    77    1
    81    42    78    1
