@<TRIPOS>MOLECULE
*****
 42 44 0 0 0
SMALL
USER_CHARGES

@<TRIPOS>ATOM
      1 N1          6.7258   16.4473    0.0843 N.2     1  NONAME1    -0.4030
      2 C1          6.5489   15.1783    0.0696 C.2     1  NONAME1     0.0134
      3 C2          5.2073   14.5471   -0.0937 C.2     1  NONAME1     0.0436
      4 N2          5.0712   13.3452    0.3378 N.2     1  NONAME1    -0.2542
      5 C3          3.8386   12.6792    0.1843 C.ar    1  NONAME1     0.0639
      6 C4          3.8570   11.2844    0.0300 C.ar    1  NONAME1    -0.0356
      7 C5          2.6737   10.5407   -0.1347 C.ar    1  NONAME1    -0.0476
      8 C6          1.4432   11.1973   -0.1448 C.ar    1  NONAME1     0.0372
      9 C7          0.1299   10.5344   -0.3890 C.2     1  NONAME1     0.2483
     10 O1         -0.7250   11.2180   -0.9495 O.2     1  NONAME1    -0.2699
     11 N3         -0.0318    9.2238    0.0216 N.am    1  NONAME1    -0.2799
     12 C8         -1.2529    8.4778    0.0282 C.ar    1  NONAME1     0.0551
     13 C9         -1.1222    7.0681    0.0341 C.ar    1  NONAME1    -0.0305
     14 C10        -2.2367    6.2007    0.0404 C.ar    1  NONAME1    -0.0094
     15 C11        -2.0679    4.7224    0.0107 C.ar    1  NONAME1     0.0194
     16 C12        -0.9049    3.9649    0.0013 C.ar    1  NONAME1    -0.0469
     17 C13        -1.1398    2.5561   -0.0281 C.ar    1  NONAME1    -0.0541
     18 C14        -2.4805    2.2607   -0.0427 C.ar    1  NONAME1    -0.0237
     19 S1         -3.4387    3.6666   -0.0255 S.2     1  NONAME1    -0.0967
     20 C15        -3.5029    6.7950    0.0857 C.ar    1  NONAME1    -0.0517
     21 C16        -3.6525    8.1810    0.1229 C.ar    1  NONAME1    -0.0386
     22 C17        -2.5490    9.0404    0.0563 C.ar    1  NONAME1     0.0461
     23 N4         -2.8047   10.4041    0.3144 N.pl3   1  NONAME1    -0.3565
     24 C18         1.4184   12.5899    0.0337 C.ar    1  NONAME1    -0.0476
     25 C19         2.5979   13.3196    0.2109 C.ar    1  NONAME1    -0.0356
     26 H1          7.6598   16.8502    0.1961 H       1  NONAME1     0.1554
     27 H2          5.9583   17.1152   -0.0003 H       1  NONAME1     0.1554
     28 H3          7.4121   14.5055    0.1826 H       1  NONAME1     0.0817
     29 H4          4.4342   15.1631   -0.5846 H       1  NONAME1     0.0844
     30 H5          4.8129   10.7631    0.0267 H       1  NONAME1     0.0639
     31 H6          2.7485    9.4686   -0.2872 H       1  NONAME1     0.0626
     32 H7          0.7928    8.7065    0.2900 H       1  NONAME1     0.1552
     33 H8         -0.1230    6.6424    0.0099 H       1  NONAME1     0.0643
     34 H9          0.0903    4.3886    0.0162 H       1  NONAME1     0.0629
     35 H10        -0.3649    1.8009   -0.0376 H       1  NONAME1     0.0623
     36 H11        -2.9467    1.2832   -0.0640 H       1  NONAME1     0.0693
     37 H12        -4.4131    6.2026    0.1174 H       1  NONAME1     0.0624
     38 H13        -4.6547    8.5924    0.2149 H       1  NONAME1     0.0637
     39 H14        -2.0872   10.9856   -0.1280 H       1  NONAME1     0.1424
     40 H15        -3.7173   10.7031   -0.0115 H       1  NONAME1     0.1424
     41 H16         0.4648   13.1182    0.0338 H       1  NONAME1     0.0626
     42 H17         2.5094   14.3889    0.3695 H       1  NONAME1     0.0639
@<TRIPOS>BOND
     1     1     2    2
     2     2     3    1
     3     3     4    2
     4     4     5    1
     5     5     6   ar
     6     6     7   ar
     7     7     8   ar
     8     8     9    1
     9     9    10    2
    10     9    11   am
    11    11    12    1
    12    12    13   ar
    13    13    14   ar
    14    14    15    1
    15    15    16   ar
    16    16    17   ar
    17    17    18   ar
    18    18    19   ar
    19    15    19   ar
    20    14    20   ar
    21    20    21   ar
    22    21    22   ar
    23    12    22   ar
    24    22    23    1
    25     8    24   ar
    26    24    25   ar
    27     5    25   ar
    28     1    26    1
    29     1    27    1
    30     2    28    1
    31     3    29    1
    32     6    30    1
    33     7    31    1
    34    11    32    1
    35    13    33    1
    36    16    34    1
    37    17    35    1
    38    18    36    1
    39    20    37    1
    40    21    38    1
    41    23    39    1
    42    23    40    1
    43    24    41    1
    44    25    42    1
