@<TRIPOS>MOLECULE
*****
 58 60 0 0 0
SMALL
USER_CHARGES

@<TRIPOS>ATOM
      1 C1         -5.9423   -3.2093    0.0758 C.1     1  NONAME1    -0.1139
      2 C2         -6.0029   -2.0040    0.0799 C.1     1  NONAME1    -0.0696
      3 C3         -6.1282   -0.5734    0.0928 C.ar    1  NONAME1     0.0264
      4 C4         -7.3969   -0.0028    0.1251 C.ar    1  NONAME1    -0.0462
      5 C5         -7.5166    1.3794    0.1761 C.ar    1  NONAME1    -0.0589
      6 C6         -6.3706    2.1852    0.1791 C.ar    1  NONAME1    -0.0404
      7 C7         -5.0826    1.6412    0.0832 C.ar    1  NONAME1     0.0335
      8 N1         -3.8797    2.4070    0.0906 N.pl3   1  NONAME1    -0.2988
      9 C8         -3.6926    3.8139   -0.0216 C.ar    1  NONAME1     0.1340
     10 N2         -4.7830    4.6018   -0.0021 N.ar    1  NONAME1    -0.2200
     11 C9         -4.6069    5.9209   -0.0745 C.ar    1  NONAME1     0.1187
     12 N3         -3.4364    6.5411   -0.1736 N.ar    1  NONAME1    -0.2352
     13 C10        -2.3540    5.7759   -0.1844 C.ar    1  NONAME1     0.0797
     14 C11        -1.1365    6.4290   -0.2996 C.ar    1  NONAME1     0.0098
     15 C12         0.0785    5.7451   -0.3446 C.ar    1  NONAME1     0.1636
     16 O1          1.1820    6.5431   -0.4636 O.3     1  NONAME1    -0.4914
     17 C13         2.0108    6.2419   -1.5845 C.3     1  NONAME1     0.0790
     18 C14         0.0909    4.3592   -0.1897 C.ar    1  NONAME1     0.1627
     19 O2          1.2287    3.5916   -0.2144 O.3     1  NONAME1    -0.4883
     20 C15         2.1788    3.9278    0.8001 C.3     1  NONAME1     0.0898
     21 C16         3.5774    3.3447    0.5314 C.3     1  NONAME1    -0.0186
     22 C17         3.9285    2.8885   -0.8900 C.3     1  NONAME1    -0.0500
     23 C18         3.3258    1.5289   -1.2528 C.3     1  NONAME1    -0.0525
     24 C19         3.8570    0.9462   -2.5724 C.3     1  NONAME1    -0.0447
     25 C20         5.0915    0.0524   -2.4165 C.3     1  NONAME1     0.0259
     26 C21         6.4382    0.7546   -2.4916 C.2     1  NONAME1     0.2354
     27 O3          6.5752    1.9366   -2.7820 O.2     1  NONAME1    -0.2737
     28 N4          7.4730   -0.1299   -2.2600 N.am    1  NONAME1    -0.1975
     29 O4          8.7766    0.3885   -2.1528 O.3     1  NONAME1    -0.2952
     30 C22        -1.1332    3.6751   -0.0895 C.ar    1  NONAME1    -0.0038
     31 C23        -2.3793    4.3706   -0.0932 C.ar    1  NONAME1     0.0441
     32 C24        -4.9832    0.2397    0.0781 C.ar    1  NONAME1    -0.0251
     33 H1         -5.9371   -4.2701    0.0697 H       1  NONAME1     0.1232
     34 H2         -8.2890   -0.6217    0.1225 H       1  NONAME1     0.0630
     35 H3         -8.5004    1.8422    0.2168 H       1  NONAME1     0.0619
     36 H4         -6.5354    3.2545    0.2401 H       1  NONAME1     0.0636
     37 H5         -3.1590    1.9121   -0.4197 H       1  NONAME1     0.1536
     38 H6         -5.4977    6.5379   -0.0501 H       1  NONAME1     0.1048
     39 H7         -1.1317    7.5139   -0.3775 H       1  NONAME1     0.0677
     40 H8          1.7810    5.2948   -2.0810 H       1  NONAME1     0.0660
     41 H9          1.9153    7.0515   -2.3139 H       1  NONAME1     0.0660
     42 H10         3.0490    6.2204   -1.2379 H       1  NONAME1     0.0660
     43 H11         1.8136    3.5405    1.7594 H       1  NONAME1     0.0696
     44 H12         2.2927    5.0077    0.9296 H       1  NONAME1     0.0696
     45 H13         4.3080    4.1093    0.8307 H       1  NONAME1     0.0298
     46 H14         3.7492    2.5119    1.2244 H       1  NONAME1     0.0298
     47 H15         5.0199    2.8142   -0.9432 H       1  NONAME1     0.0266
     48 H16         3.6318    3.6456   -1.6241 H       1  NONAME1     0.0266
     49 H17         3.4836    0.8143   -0.4368 H       1  NONAME1     0.0265
     50 H18         2.2412    1.6433   -1.3553 H       1  NONAME1     0.0265
     51 H19         4.0212    1.7373   -3.3122 H       1  NONAME1     0.0270
     52 H20         3.0594    0.3070   -2.9748 H       1  NONAME1     0.0270
     53 H21         5.0365   -0.5180   -1.4815 H       1  NONAME1     0.0359
     54 H22         5.0885   -0.6748   -3.2392 H       1  NONAME1     0.0359
     55 H23         7.3296   -1.0782   -1.9324 H       1  NONAME1     0.1822
     56 H24         9.2071    0.0265   -2.9492 H       1  NONAME1     0.2414
     57 H25        -1.1092    2.5930    0.0058 H       1  NONAME1     0.0663
     58 H26        -4.0050   -0.2362    0.0697 H       1  NONAME1     0.0648
@<TRIPOS>BOND
     1     1     2    3
     2     2     3    1
     3     3     4   ar
     4     4     5   ar
     5     5     6   ar
     6     6     7   ar
     7     7     8    1
     8     8     9    1
     9     9    10   ar
    10    10    11   ar
    11    11    12   ar
    12    12    13   ar
    13    13    14   ar
    14    14    15   ar
    15    15    16    1
    16    16    17    1
    17    15    18   ar
    18    18    19    1
    19    19    20    1
    20    20    21    1
    21    21    22    1
    22    22    23    1
    23    23    24    1
    24    24    25    1
    25    25    26    1
    26    26    27    2
    27    26    28   am
    28    28    29    1
    29    18    30   ar
    30    30    31   ar
    31     9    31   ar
    32    13    31   ar
    33     7    32   ar
    34     3    32   ar
    35     1    33    1
    36     4    34    1
    37     5    35    1
    38     6    36    1
    39     8    37    1
    40    11    38    1
    41    14    39    1
    42    17    40    1
    43    17    41    1
    44    17    42    1
    45    20    43    1
    46    20    44    1
    47    21    45    1
    48    21    46    1
    49    22    47    1
    50    22    48    1
    51    23    49    1
    52    23    50    1
    53    24    51    1
    54    24    52    1
    55    25    53    1
    56    25    54    1
    57    28    55    1
    58    29    56    1
    59    30    57    1
    60    32    58    1
