REMARK  7 active torsions:
REMARK  status: ('A' for Active; 'I' for Inactive)
REMARK    1  A    between atoms: C2_2  and  C3_3 
REMARK    2  A    between atoms: C4_4  and  C5_5 
REMARK       I    between atoms: C5_5  and  N1_7 
REMARK    3  A    between atoms: N1_7  and  O2_8 
REMARK    4  A    between atoms: C7_10  and  C6_9 
REMARK    5  A    between atoms: C7_10  and  C9_12 
REMARK    6  A    between atoms: C9_12  and  C10_14 
REMARK    7  A    between atoms: C13_17  and  N2_18 
ROOT
ATOM      1  C7  NON d   1       0.000   4.620   0.000  0.00  0.00     0.079 C 
ATOM      2  C8  NON d   1      -1.334   3.850   0.000  0.00  0.00     0.022 C 
ENDROOT
BRANCH   1   3
ATOM      3  C6  NON d   1       0.428   5.956  -0.622  0.00  0.00    -0.008 C 
ATOM      4  C2  NON d   1       0.994   6.948   0.103  0.00  0.00    -0.065 C 
ATOM      5  C1  NON d   1       1.276   6.801   1.583  0.00  0.00     0.048 C 
BRANCH   4   6
ATOM      6  C3  NON d   1       1.375   8.205  -0.535  0.00  0.00     0.012 C 
ATOM      7  C4  NON d   1       2.169   9.139   0.017  0.00  0.00     0.076 C 
BRANCH   7   8
ATOM      8  C5  NON d   1       2.468  10.398  -0.701  0.00  0.00     0.264 C 
ATOM      9  O1  NON d   1       1.909  10.743  -1.736  0.00  0.00    -0.266 OA
ATOM     10  N1  NON d   1       3.432  11.155  -0.087  0.00  0.00    -0.234 N 
ATOM     11  H6  NON d   1       3.980  10.880   0.718  0.00  0.00     0.197 HD
BRANCH  10  12
ATOM     12  O2  NON d   1       3.781  12.370  -0.719  0.00  0.00    -0.287 OA
ATOM     13  H7  NON d   1       3.177  12.379  -1.494  0.00  0.00     0.244 HD
ENDBRANCH  10  12
ENDBRANCH   7   8
ENDBRANCH   4   6
ENDBRANCH   1   3
BRANCH   1  14
ATOM     14  C9  NON d   1       1.334   3.850   0.000  0.00  0.00     0.166 C 
ATOM     15  O3  NON d   1       2.464   4.333  -0.030  0.00  0.00    -0.292 OA
BRANCH  14  16
ATOM     16  C10 NON d   1       1.285   2.198   0.031  0.00  0.00     0.011 A 
ATOM     17  C11 NON d   1       2.176   1.435  -0.743  0.00  0.00     0.017 A 
ATOM     18  C12 NON d   1       2.179  -0.032  -0.767  0.00  0.00     0.030 A 
ATOM     19  C13 NON d   1       1.290  -0.863  -0.035  0.00  0.00     0.029 A 
ATOM     20  C16 NON d   1       0.419  -0.091   0.757  0.00  0.00     0.030 A 
ATOM     21  C17 NON d   1       0.434   1.379   0.809  0.00  0.00     0.017 A 
BRANCH  19  22
ATOM     22  N2  NON d   1       1.334  -2.310   0.000  0.00  0.00    -0.390 N 
ATOM     23  C14 NON d   1       2.450  -2.954  -0.691  0.00  0.00     0.149 C 
ATOM     24  C15 NON d   1       0.000  -3.080   0.000  0.00  0.00     0.149 C 
ENDBRANCH  19  22
ENDBRANCH  14  16
ENDBRANCH   1  14
TORSDOF 7
