@<TRIPOS>MOLECULE
*****
 60 63 0 0 0
SMALL
USER_CHARGES

@<TRIPOS>ATOM
      1 C1          5.5339   22.7550    0.0000 C.3     1  NONAME1    -0.0493
      2 C2          6.8676   21.9850    0.0000 C.3     1  NONAME1     0.0123
      3 N1          6.6994   20.4868   -0.0564 N.am    1  NONAME1    -0.2925
      4 C3          7.8995   19.6952    0.1302 C.3     1  NONAME1     0.0314
      5 C4          7.7840   18.2563   -0.3604 C.3     1  NONAME1     0.0401
      6 N2          6.5537   17.5588   -0.0075 N.am    1  NONAME1    -0.2167
      7 C5          6.5997   16.1591   -0.1516 C.2     1  NONAME1     0.3092
      8 O1          7.6527   15.5729   -0.4128 O.2     1  NONAME1    -0.2522
      9 N3          5.4164   15.4587   -0.0216 N.am    1  NONAME1    -0.2948
     10 C6          5.4328   13.9975   -0.0457 C.3     1  NONAME1     0.0383
     11 C7          4.1127   13.2394    0.0004 C.ar    1  NONAME1    -0.0302
     12 C8          4.1424   11.8238    0.0372 C.ar    1  NONAME1    -0.0564
     13 C9          2.9677   11.0397    0.1226 C.ar    1  NONAME1    -0.0493
     14 C10         1.7219   11.6613    0.1757 C.ar    1  NONAME1     0.0370
     15 C11         0.4081   10.9553    0.3736 C.2     1  NONAME1     0.2483
     16 O2         -0.4815   11.6169    0.9083 O.2     1  NONAME1    -0.2699
     17 N4          0.2669    9.6261   -0.0197 N.am    1  NONAME1    -0.2799
     18 C12        -0.9538    8.8563   -0.0300 C.ar    1  NONAME1     0.0551
     19 C13        -0.8264    7.4400   -0.0272 C.ar    1  NONAME1    -0.0305
     20 C14        -1.9471    6.5681   -0.0317 C.ar    1  NONAME1    -0.0094
     21 C15        -1.7993    5.0841   -0.0060 C.ar    1  NONAME1     0.0194
     22 C16        -0.6573    4.2998    0.0077 C.ar    1  NONAME1    -0.0469
     23 C17        -0.9240    2.8949    0.0297 C.ar    1  NONAME1    -0.0541
     24 C18        -2.2713    2.6238    0.0383 C.ar    1  NONAME1    -0.0237
     25 S1         -3.1957    4.0500    0.0247 S.2     1  NONAME1    -0.0967
     26 C19        -3.2128    7.1619   -0.0764 C.ar    1  NONAME1    -0.0517
     27 C20        -3.3610    8.5443   -0.1197 C.ar    1  NONAME1    -0.0386
     28 C21        -2.2579    9.4063   -0.0638 C.ar    1  NONAME1     0.0461
     29 N5         -2.5354   10.7626   -0.3386 N.pl3   1  NONAME1    -0.3565
     30 C22         1.6884   13.0696    0.1131 C.ar    1  NONAME1    -0.0493
     31 C23         2.8585   13.8465    0.0196 C.ar    1  NONAME1    -0.0564
     32 C24         5.4013   18.2977    0.2703 C.2     1  NONAME1     0.3091
     33 O3          4.3218   17.7721    0.5407 O.2     1  NONAME1    -0.2645
     34 C25         5.4845   19.8561    0.2840 C.2     1  NONAME1     0.3022
     35 O4          4.4642   20.4657    0.5881 O.2     1  NONAME1    -0.2649
     36 H1          6.0039   23.7590    0.0429 H       1  NONAME1     0.0245
     37 H2          4.2002   23.5250    0.0000 H       1  NONAME1     0.0245
     38 H3          5.2858   22.5273   -1.0582 H       1  NONAME1     0.0245
     39 H4          7.3913   22.1930    0.9406 H       1  NONAME1     0.0462
     40 H5          7.5105   22.2781   -0.8378 H       1  NONAME1     0.0462
     41 H6          8.1249   19.7060    1.2034 H       1  NONAME1     0.0480
     42 H7          8.7287   20.1843   -0.3940 H       1  NONAME1     0.0480
     43 H8          8.6424   17.6971    0.0341 H       1  NONAME1     0.0485
     44 H9          7.8604   18.2260   -1.4538 H       1  NONAME1     0.0485
     45 H10         4.6410   15.9510    0.4151 H       1  NONAME1     0.1506
     46 H11         6.0336   13.6836    0.8216 H       1  NONAME1     0.0512
     47 H12         5.9707   13.6927   -0.9516 H       1  NONAME1     0.0512
     48 H13         5.1045   11.3119    0.0181 H       1  NONAME1     0.0621
     49 H14         3.0676    9.9616    0.1877 H       1  NONAME1     0.0625
     50 H15         1.1063    9.1167   -0.2566 H       1  NONAME1     0.1552
     51 H16         0.1711    7.0105   -0.0008 H       1  NONAME1     0.0643
     52 H17         0.3484    4.7047   -0.0018 H       1  NONAME1     0.0629
     53 H18        -0.1657    2.1207    0.0380 H       1  NONAME1     0.0623
     54 H19        -2.7559    1.6563    0.0529 H       1  NONAME1     0.0693
     55 H20        -4.1252    6.5719   -0.1052 H       1  NONAME1     0.0624
     56 H21        -4.3650    8.9530   -0.2121 H       1  NONAME1     0.0637
     57 H22        -1.8197   11.3591    0.0899 H       1  NONAME1     0.1424
     58 H23        -3.4465   11.0545   -0.0036 H       1  NONAME1     0.1424
     59 H24         0.7297   13.5871    0.1545 H       1  NONAME1     0.0625
     60 H25         2.7544   14.9289   -0.0199 H       1  NONAME1     0.0621
@<TRIPOS>BOND
     1     1     2    1
     2     2     3    1
     3     3     4    1
     4     4     5    1
     5     5     6    1
     6     6     7   am
     7     7     8    2
     8     7     9   am
     9     9    10    1
    10    10    11    1
    11    11    12   ar
    12    12    13   ar
    13    13    14   ar
    14    14    15    1
    15    15    16    2
    16    15    17   am
    17    17    18    1
    18    18    19   ar
    19    19    20   ar
    20    20    21    1
    21    21    22   ar
    22    22    23   ar
    23    23    24   ar
    24    24    25   ar
    25    21    25   ar
    26    20    26   ar
    27    26    27   ar
    28    27    28   ar
    29    18    28   ar
    30    28    29    1
    31    14    30   ar
    32    30    31   ar
    33    11    31   ar
    34     6    32   am
    35    32    33    2
    36    32    34    1
    37     3    34   am
    38    34    35    2
    39     1    36    1
    40     1    37    1
    41     1    38    1
    42     2    39    1
    43     2    40    1
    44     4    41    1
    45     4    42    1
    46     5    43    1
    47     5    44    1
    48     9    45    1
    49    10    46    1
    50    10    47    1
    51    12    48    1
    52    13    49    1
    53    17    50    1
    54    19    51    1
    55    22    52    1
    56    23    53    1
    57    24    54    1
    58    26    55    1
    59    27    56    1
    60    29    57    1
    61    29    58    1
    62    30    59    1
    63    31    60    1
