REMARK  18 active torsions:
REMARK  status: ('A' for Active; 'I' for Inactive)
REMARK       I    between atoms: C1_2  and  N1_3 
REMARK    1  A    between atoms: C1_2  and  O6_32 
REMARK    2  A    between atoms: C2_4  and  N1_3 
REMARK    3  A    between atoms: C2_4  and  C3_5 
REMARK    4  A    between atoms: C2_4  and  C14_19 
REMARK    5  A    between atoms: C3_5  and  C4_6 
REMARK    6  A    between atoms: C4_6  and  C5_7 
REMARK    7  A    between atoms: C5_7  and  C6_8 
REMARK    8  A    between atoms: C6_8  and  C7_9 
REMARK    9  A    between atoms: C7_9  and  C8_10 
REMARK   10  A    between atoms: C8_10  and  S1_11 
REMARK   11  A    between atoms: S1_11  and  S2_12 
REMARK   12  A    between atoms: S2_12  and  C9_13 
REMARK   13  A    between atoms: C14_19  and  O3_21 
REMARK   14  A    between atoms: O3_21  and  C15_22 
REMARK   15  A    between atoms: C15_22  and  C16_23 
REMARK   16  A    between atoms: C19_26  and  N3_27 
REMARK   17  A    between atoms: O6_32  and  C22_33 
REMARK   18  A    between atoms: C22_33  and  C23_34 
ROOT
ATOM      1  C2  NON d   1      25.136  -3.578  -0.998  0.00  0.00     0.186 C 
ENDROOT
BRANCH   1   2
ATOM      2  N1  NON d   1      25.788  -4.886  -0.859  0.00  0.00    -0.323 N 
ATOM      3  C1  NON d   1      26.689  -5.239   0.093  0.00  0.00     0.361 C 
ATOM      4  O1  NON d   1      27.055  -4.548   1.030  0.00  0.00    -0.238 OA
ATOM      5  H1  NON d   1      25.562  -5.618  -1.518  0.00  0.00     0.165 HD
BRANCH   3   6
ATOM      6  O6  NON d   1      27.205  -6.449  -0.241  0.00  0.00    -0.299 OA
BRANCH   6   7
ATOM      7  C22 NON d   1      28.512  -6.683   0.299  0.00  0.00     0.219 C 
BRANCH   7   8
ATOM      8  C23 NON d   1      28.970  -8.114   0.132  0.00  0.00    -0.034 A 
ATOM      9  C24 NON d   1      30.349  -8.387   0.082  0.00  0.00     0.009 A 
ATOM     10  C25 NON d   1      30.816  -9.698  -0.009  0.00  0.00     0.001 A 
ATOM     11  C26 NON d   1      29.911 -10.755  -0.045  0.00  0.00     0.000 A 
ATOM     12  C27 NON d   1      28.541 -10.501   0.013  0.00  0.00     0.001 A 
ATOM     13  C28 NON d   1      28.072  -9.188   0.103  0.00  0.00     0.009 A 
ENDBRANCH   7   8
ENDBRANCH   6   7
ENDBRANCH   3   6
ENDBRANCH   1   2
BRANCH   1  14
ATOM     14  C3  NON d   1      23.957  -3.419  -0.011  0.00  0.00     0.035 C 
BRANCH  14  15
ATOM     15  C4  NON d   1      23.222  -2.069  -0.031  0.00  0.00     0.002 C 
BRANCH  15  16
ATOM     16  C5  NON d   1      23.332  -1.197   1.230  0.00  0.00     0.000 C 
BRANCH  16  17
ATOM     17  C6  NON d   1      24.723  -0.711   1.659  0.00  0.00     0.001 C 
BRANCH  17  18
ATOM     18  C7  NON d   1      25.538  -1.772   2.403  0.00  0.00     0.011 C 
BRANCH  18  19
ATOM     19  C8  NON d   1      26.919  -1.337   2.888  0.00  0.00     0.086 C 
BRANCH  19  20
ATOM     20  S1  NON d   1      26.813  -0.191   4.290  0.00  0.00    -0.091 SA
BRANCH  20  21
ATOM     21  S2  NON d   1      27.008   1.643   3.377  0.00  0.00    -0.038 SA
BRANCH  21  22
ATOM     22  C9  NON d   1      27.505   2.703   4.725  0.00  0.00     0.103 A 
ATOM     23  C10 NON d   1      26.945   3.973   4.812  0.00  0.00     0.040 A 
ATOM     24  C11 NON d   1      27.294   4.785   5.887  0.00  0.00     0.004 A 
ATOM     25  C12 NON d   1      28.188   4.306   6.837  0.00  0.00     0.019 A 
ATOM     26  C13 NON d   1      28.708   3.035   6.665  0.00  0.00     0.118 A 
ATOM     27  N2  NON d   1      28.396   2.232   5.628  0.00  0.00    -0.253 NA
ENDBRANCH  21  22
ENDBRANCH  20  21
ENDBRANCH  19  20
ENDBRANCH  18  19
ENDBRANCH  17  18
ENDBRANCH  16  17
ENDBRANCH  15  16
ENDBRANCH  14  15
ENDBRANCH   1  14
BRANCH   1  28
ATOM     28  C14 NON d   1      26.088  -2.360  -1.157  0.00  0.00     0.282 C 
ATOM     29  O2  NON d   1      25.702  -1.255  -1.528  0.00  0.00    -0.263 OA
BRANCH  28  30
ATOM     30  O3  NON d   1      27.392  -2.626  -0.874  0.00  0.00    -0.315 OA
BRANCH  30  31
ATOM     31  C15 NON d   1      28.240  -1.471  -0.955  0.00  0.00     0.217 C 
BRANCH  31  32
ATOM     32  C16 NON d   1      29.679  -1.771  -0.583  0.00  0.00    -0.034 A 
ATOM     33  C17 NON d   1      30.576  -0.702  -0.408  0.00  0.00     0.012 A 
ATOM     34  C18 NON d   1      31.930  -0.935  -0.143  0.00  0.00     0.037 A 
ATOM     35  C19 NON d   1      32.398  -2.251  -0.053  0.00  0.00     0.102 A 
ATOM     36  C20 NON d   1      31.516  -3.326  -0.200  0.00  0.00     0.037 A 
ATOM     37  C21 NON d   1      30.166  -3.079  -0.467  0.00  0.00     0.012 A 
BRANCH  35  38
ATOM     38  N3  NON d   1      33.828  -2.505   0.169  0.00  0.00    -0.116 N 
ATOM     39  O4  NON d   1      34.570  -1.526   0.336  0.00  0.00    -0.532 OA
ATOM     40  O5  NON d   1      34.212  -3.685   0.161  0.00  0.00    -0.532 OA
ENDBRANCH  35  38
ENDBRANCH  31  32
ENDBRANCH  30  31
ENDBRANCH  28  30
ENDBRANCH   1  28
TORSDOF 18
