@<TRIPOS>MOLECULE
*****
 44 44 0 0 0
SMALL
USER_CHARGES

@<TRIPOS>ATOM
      1 C1          1.2765    6.8013    1.5832 C.3     1  NONAME1    -0.0400
      2 C2          0.9941    6.9477    0.1028 C.2     1  NONAME1    -0.0535
      3 C3          1.3752    8.2053   -0.5353 C.2     1  NONAME1    -0.0541
      4 C4          2.1692    9.1393    0.0168 C.2     1  NONAME1     0.0024
      5 C5          2.4679   10.3983   -0.7007 C.2     1  NONAME1     0.2593
      6 O1          1.9092   10.7427   -1.7358 O.2     1  NONAME1    -0.2687
      7 N1          3.4315   11.1550   -0.0872 N.am    1  NONAME1    -0.1940
      8 O2          3.7808   12.3697   -0.7193 O.3     1  NONAME1    -0.2949
      9 C6          0.4277    5.9556   -0.6222 C.2     1  NONAME1    -0.0708
     10 C7          0.0000    4.6200    0.0000 C.3     1  NONAME1     0.0379
     11 C8         -1.3337    3.8500    0.0000 C.3     1  NONAME1    -0.0518
     12 C9          1.3337    3.8500    0.0000 C.2     1  NONAME1     0.1697
     13 O3          2.4639    4.3335   -0.0297 O.2     1  NONAME1    -0.2914
     14 C10         1.2852    2.1981    0.0307 C.ar    1  NONAME1     0.0181
     15 C11         2.1764    1.4354   -0.7433 C.ar    1  NONAME1    -0.0495
     16 C12         2.1794   -0.0321   -0.7671 C.ar    1  NONAME1    -0.0400
     17 C13         1.2896   -0.8631   -0.0355 C.ar    1  NONAME1     0.0292
     18 N2          1.3337   -2.3100    0.0000 N.pl3   1  NONAME1    -0.3360
     19 C14         2.4505   -2.9539   -0.6913 C.3     1  NONAME1     0.0004
     20 C15         0.0000   -3.0800    0.0000 C.3     1  NONAME1     0.0004
     21 C16         0.4190   -0.0914    0.7568 C.ar    1  NONAME1    -0.0400
     22 C17         0.4337    1.3792    0.8088 C.ar    1  NONAME1    -0.0495
     23 H1          0.8264    5.9051    2.0204 H       1  NONAME1     0.0277
     24 H2          2.3560    6.7412    1.7629 H       1  NONAME1     0.0277
     25 H3          0.8728    7.6518    2.1438 H       1  NONAME1     0.0277
     26 H4          0.9837    8.3771   -1.5383 H       1  NONAME1     0.0622
     27 H5          2.6121    9.0131    0.9958 H       1  NONAME1     0.0670
     28 H6          3.9798   10.8804    0.7183 H       1  NONAME1     0.1825
     29 H7          3.1770   12.3794   -1.4945 H       1  NONAME1     0.2414
     30 H8          0.2503    6.0721   -1.6880 H       1  NONAME1     0.0582
     31 H9         -1.3337    5.3900    0.0000 H       1  NONAME1     0.0421
     32 H10        -1.0393    3.0988   -0.7545 H       1  NONAME1     0.0239
     33 H11        -2.6674    3.0800    0.0000 H       1  NONAME1     0.0239
     34 H12        -1.2604    3.5145    1.0496 H       1  NONAME1     0.0239
     35 H13         2.9125    1.9542   -1.3584 H       1  NONAME1     0.0625
     36 H14         2.9320   -0.4861   -1.4101 H       1  NONAME1     0.0636
     37 H15         2.4854   -4.0223   -0.4510 H       1  NONAME1     0.0428
     38 H16         2.3560   -2.8547   -1.7775 H       1  NONAME1     0.0428
     39 H17         3.4096   -2.5355   -0.3660 H       1  NONAME1     0.0428
     40 H18        -0.0933   -3.1181   -1.1020 H       1  NONAME1     0.0428
     41 H19        -1.3337   -3.8500    0.0000 H       1  NONAME1     0.0428
     42 H20         0.4260   -4.0265    0.3790 H       1  NONAME1     0.0428
     43 H21        -0.2748   -0.6038    1.4225 H       1  NONAME1     0.0636
     44 H22        -0.2400    1.8266    1.5339 H       1  NONAME1     0.0625
@<TRIPOS>BOND
     1     1     2    1
     2     2     3    1
     3     3     4    2
     4     4     5    1
     5     5     6    2
     6     5     7   am
     7     7     8    1
     8     2     9    2
     9    10     9    1
    10    10    11    1
    11    10    12    1
    12    12    13    2
    13    12    14    1
    14    14    15   ar
    15    15    16   ar
    16    16    17   ar
    17    17    18    1
    18    18    19    1
    19    18    20    1
    20    17    21   ar
    21    21    22   ar
    22    14    22   ar
    23     1    23    1
    24     1    24    1
    25     1    25    1
    26     3    26    1
    27     4    27    1
    28     7    28    1
    29     8    29    1
    30     9    30    1
    31    10    31    1
    32    11    32    1
    33    11    33    1
    34    11    34    1
    35    15    35    1
    36    16    36    1
    37    19    37    1
    38    19    38    1
    39    19    39    1
    40    20    40    1
    41    20    41    1
    42    20    42    1
    43    21    43    1
    44    22    44    1
