@<TRIPOS>MOLECULE
*****
 37 39 0 0 0
SMALL
USER_CHARGES

@<TRIPOS>ATOM
      1 O1          0.2239   -2.9080   -0.7896 O.2     1  NONAME1    -0.2699
      2 C1          1.2757   -2.5440   -0.2706 C.2     1  NONAME1     0.2483
      3 N1          2.3106   -3.3685    0.1414 N.am    1  NONAME1    -0.2785
      4 C2          2.3365   -4.7858    0.1270 C.ar    1  NONAME1     0.0762
      5 C3          3.6134   -5.3853    0.0627 C.ar    1  NONAME1    -0.0292
      6 C4          3.8095   -6.7867   -0.0008 C.ar    1  NONAME1    -0.0159
      7 C5          5.1780   -7.4077   -0.0356 C.ar    1  NONAME1    -0.0178
      8 C6          6.3604   -6.6395   -0.0606 C.ar    1  NONAME1    -0.0540
      9 C7          7.6354   -7.2225   -0.0603 C.ar    1  NONAME1    -0.0612
     10 C8          7.7753   -8.6036   -0.0397 C.ar    1  NONAME1    -0.0617
     11 C9          6.6423   -9.3996   -0.0225 C.ar    1  NONAME1    -0.0612
     12 C10         5.3689   -8.8108   -0.0243 C.ar    1  NONAME1    -0.0540
     13 C11         2.6379   -7.5678   -0.0132 C.ar    1  NONAME1    -0.0505
     14 C12         1.3635   -6.9945    0.0962 C.ar    1  NONAME1    -0.0178
     15 C13         1.2234   -5.6177    0.1964 C.ar    1  NONAME1     0.1380
     16 O2         -0.0214   -5.1605    0.5128 O.3     1  NONAME1    -0.5049
     17 C14         1.5143   -1.0650   -0.1202 C.ar    1  NONAME1     0.0370
     18 C15         0.3939   -0.2228   -0.0437 C.ar    1  NONAME1    -0.0496
     19 C16         0.5456    1.1630    0.0685 C.ar    1  NONAME1    -0.0610
     20 C17         1.8206    1.7225    0.1038 C.ar    1  NONAME1    -0.0617
     21 C18         2.9418    0.9005    0.0252 C.ar    1  NONAME1    -0.0610
     22 C19         2.7941   -0.4867   -0.0941 C.ar    1  NONAME1    -0.0496
     23 H1          3.1875   -2.9318    0.3753 H       1  NONAME1     0.1552
     24 H2          4.4707   -4.7242    0.0446 H       1  NONAME1     0.0643
     25 H3          6.3336   -5.5550   -0.0797 H       1  NONAME1     0.0624
     26 H4          8.5207   -6.5907   -0.0698 H       1  NONAME1     0.0618
     27 H5          8.7613   -9.0586   -0.0352 H       1  NONAME1     0.0618
     28 H6          6.7336  -10.4824   -0.0100 H       1  NONAME1     0.0618
     29 H7          4.5262   -9.4927    0.0029 H       1  NONAME1     0.0624
     30 H8          2.6694   -8.6482   -0.0750 H       1  NONAME1     0.0625
     31 H9          0.4910   -7.6361    0.1558 H       1  NONAME1     0.0655
     32 H10        -0.5407   -5.1961   -0.3102 H       1  NONAME1     0.2922
     33 H11        -0.6086   -0.6459   -0.0788 H       1  NONAME1     0.0625
     34 H12        -0.3314    1.8026    0.1215 H       1  NONAME1     0.0618
     35 H13         1.9392    2.8020    0.1810 H       1  NONAME1     0.0618
     36 H14         3.9379    1.3421    0.0340 H       1  NONAME1     0.0618
     37 H15         3.6952   -1.0797   -0.1960 H       1  NONAME1     0.0625
@<TRIPOS>BOND
     1     1     2    2
     2     2     3   am
     3     3     4    1
     4     4     5   ar
     5     5     6   ar
     6     6     7    1
     7     7     8   ar
     8     8     9   ar
     9     9    10   ar
    10    10    11   ar
    11    11    12   ar
    12     7    12   ar
    13     6    13   ar
    14    13    14   ar
    15    14    15   ar
    16     4    15   ar
    17    15    16    1
    18     2    17    1
    19    17    18   ar
    20    18    19   ar
    21    19    20   ar
    22    20    21   ar
    23    21    22   ar
    24    17    22   ar
    25     3    23    1
    26     5    24    1
    27     8    25    1
    28     9    26    1
    29    10    27    1
    30    11    28    1
    31    12    29    1
    32    13    30    1
    33    14    31    1
    34    16    32    1
    35    18    33    1
    36    19    34    1
    37    20    35    1
    38    21    36    1
    39    22    37    1
