REMARK  6 active torsions:
REMARK  status: ('A' for Active; 'I' for Inactive)
REMARK       I    between atoms: C1_2  and  N1_3 
REMARK    1  A    between atoms: C1_2  and  C2_5 
REMARK    2  A    between atoms: N1_3  and  O2_4 
REMARK    3  A    between atoms: C5_8  and  C6_9 
REMARK       I    between atoms: C6_9  and  N2_11 
REMARK    4  A    between atoms: N2_11  and  C7_12 
REMARK    5  A    between atoms: C7_12  and  C8_13 
REMARK    6  A    between atoms: C8_13  and  C9_14 
ROOT
ATOM      1  C2  NON d   1      -2.377  -3.208  -0.018  0.00  0.00     0.034 A 
ATOM      2  C3  NON d   1      -1.163  -2.501   0.007  0.00  0.00     0.018 A 
ATOM      3  C4  NON d   1       0.069  -3.173   0.027  0.00  0.00     0.018 A 
ATOM      4  C5  NON d   1       0.105  -4.571   0.021  0.00  0.00     0.032 A 
ATOM      5  C14 NON d   1      -1.110  -5.275  -0.006  0.00  0.00     0.018 A 
ATOM      6  C15 NON d   1      -2.340  -4.605  -0.026  0.00  0.00     0.018 A 
ENDROOT
BRANCH   4   7
ATOM      7  C6  NON d   1       1.363  -5.378   0.049  0.00  0.00     0.251 C 
ATOM      8  O3  NON d   1       1.293  -6.603   0.105  0.00  0.00    -0.268 OA
ATOM      9  N2  NON d   1       2.578  -4.719   0.004  0.00  0.00    -0.357 N 
ATOM     10  H5  NON d   1       2.633  -3.718  -0.104  0.00  0.00     0.162 HD
BRANCH   9  11
ATOM     11  C7  NON d   1       3.805  -5.497  -0.000  0.00  0.00     0.127 C 
BRANCH  11  12
ATOM     12  C8  NON d   1       5.071  -4.638  -0.044  0.00  0.00     0.058 C 
BRANCH  12  13
ATOM     13  C9  NON d   1       6.388  -5.384  -0.031  0.00  0.00    -0.054 A 
ATOM     14  C10 NON d   1       7.577  -4.645  -0.013  0.00  0.00     0.026 A 
ATOM     15  C11 NON d   1       8.792  -5.317  -0.006  0.00  0.00     0.116 A 
ATOM     16  N3  NON d   1       8.906  -6.660  -0.016  0.00  0.00    -0.273 NA
ATOM     17  C12 NON d   1       7.753  -7.360  -0.035  0.00  0.00     0.116 A 
ATOM     18  C13 NON d   1       6.492  -6.779  -0.045  0.00  0.00     0.026 A 
ENDBRANCH  12  13
ENDBRANCH  11  12
ENDBRANCH   9  11
ENDBRANCH   4   7
BRANCH   1  19
ATOM     19  C1  NON d   1      -3.645  -2.420  -0.039  0.00  0.00     0.275 C 
ATOM     20  O1  NON d   1      -3.622  -1.191  -0.055  0.00  0.00    -0.265 OA
ATOM     21  N1  NON d   1      -4.837  -3.107  -0.030  0.00  0.00    -0.233 N 
ATOM     22  H1  NON d   1      -4.968  -4.105   0.066  0.00  0.00     0.197 HD
BRANCH  21  23
ATOM     23  O2  NON d   1      -6.006  -2.313   0.001  0.00  0.00    -0.287 OA
ATOM     24  H2  NON d   1      -5.634  -1.403  -0.003  0.00  0.00     0.244 HD
ENDBRANCH  21  23
ENDBRANCH   1  19
TORSDOF 6
