@<TRIPOS>MOLECULE
*****
 38 40 0 0 0
SMALL
USER_CHARGES

@<TRIPOS>ATOM
      1 N1          2.1170   -3.4108    0.1991 N.pl3   1  NONAME1    -0.3565
      2 C1          2.2351   -4.8204    0.1252 C.ar    1  NONAME1     0.0461
      3 C2          3.4454   -5.4337    0.4436 C.ar    1  NONAME1    -0.0387
      4 C3          3.5667   -6.8270    0.4009 C.ar    1  NONAME1    -0.0522
      5 C4          2.4841   -7.6522    0.0477 C.ar    1  NONAME1    -0.0160
      6 C5          2.6240   -9.1319   -0.0010 C.ar    1  NONAME1    -0.0177
      7 C6          3.8360   -9.7456   -0.3804 C.ar    1  NONAME1    -0.0513
      8 C7          3.9752  -11.1381   -0.4075 C.ar    1  NONAME1    -0.0259
      9 C8          2.8972  -11.9419   -0.0692 C.ar    1  NONAME1     0.1234
     10 F1          3.0283  -13.2747   -0.0986 F       1  NONAME1    -0.2055
     11 C9          1.6856  -11.3787    0.2998 C.ar    1  NONAME1    -0.0259
     12 C10         1.5541   -9.9859    0.3388 C.ar    1  NONAME1    -0.0513
     13 C11         1.2530   -7.0161   -0.2148 C.ar    1  NONAME1    -0.0310
     14 C12         1.1050   -5.6262   -0.1193 C.ar    1  NONAME1     0.0551
     15 N2         -0.1434   -4.9580   -0.1775 N.am    1  NONAME1    -0.2799
     16 C13        -1.3906   -5.5039   -0.4079 C.2     1  NONAME1     0.2483
     17 O1         -1.6181   -6.6671   -0.7228 O.2     1  NONAME1    -0.2699
     18 C14        -2.5559   -4.5786   -0.2284 C.ar    1  NONAME1     0.0370
     19 C15        -3.8182   -5.1505   -0.0065 C.ar    1  NONAME1    -0.0496
     20 C16        -4.9434   -4.3441    0.1774 C.ar    1  NONAME1    -0.0610
     21 C17        -4.8191   -2.9577    0.1382 C.ar    1  NONAME1    -0.0617
     22 C18        -3.5729   -2.3771   -0.0940 C.ar    1  NONAME1    -0.0610
     23 C19        -2.4446   -3.1817   -0.2843 C.ar    1  NONAME1    -0.0496
     24 H1          3.0257   -2.9526    0.2097 H       1  NONAME1     0.1424
     25 H2          1.5665   -3.0602   -0.5823 H       1  NONAME1     0.1424
     26 H3          4.3113   -4.8388    0.7194 H       1  NONAME1     0.0637
     27 H4          4.5279   -7.2608    0.6674 H       1  NONAME1     0.0624
     28 H5          4.6933   -9.1434   -0.6726 H       1  NONAME1     0.0624
     29 H6          4.9167  -11.5950   -0.6945 H       1  NONAME1     0.0646
     30 H7          0.8492  -12.0197    0.5589 H       1  NONAME1     0.0646
     31 H8          0.5955   -9.5757    0.6521 H       1  NONAME1     0.0624
     32 H9          0.3943   -7.6285   -0.4686 H       1  NONAME1     0.0643
     33 H10        -0.0826   -4.0073    0.1613 H       1  NONAME1     0.1552
     34 H11        -3.9290   -6.2333    0.0272 H       1  NONAME1     0.0625
     35 H12        -5.9148   -4.8006    0.3496 H       1  NONAME1     0.0618
     36 H13        -5.6945   -2.3291    0.2827 H       1  NONAME1     0.0618
     37 H14        -3.4815   -1.2941   -0.1345 H       1  NONAME1     0.0618
     38 H15        -1.5011   -2.6903   -0.4951 H       1  NONAME1     0.0625
@<TRIPOS>BOND
     1     1     2    1
     2     2     3   ar
     3     3     4   ar
     4     4     5   ar
     5     5     6    1
     6     6     7   ar
     7     7     8   ar
     8     8     9   ar
     9     9    10    1
    10     9    11   ar
    11    11    12   ar
    12     6    12   ar
    13     5    13   ar
    14    13    14   ar
    15     2    14   ar
    16    14    15    1
    17    15    16   am
    18    16    17    2
    19    16    18    1
    20    18    19   ar
    21    19    20   ar
    22    20    21   ar
    23    21    22   ar
    24    22    23   ar
    25    18    23   ar
    26     1    24    1
    27     1    25    1
    28     3    26    1
    29     4    27    1
    30     7    28    1
    31     8    29    1
    32    11    30    1
    33    12    31    1
    34    13    32    1
    35    15    33    1
    36    19    34    1
    37    20    35    1
    38    21    36    1
    39    22    37    1
    40    23    38    1
