@<TRIPOS>MOLECULE
*****
 57 60 0 0 0
SMALL
USER_CHARGES

@<TRIPOS>ATOM
      1 C1         10.6939   18.2304    0.8550 C.3     1  NONAME1     0.0790
      2 O1         10.1050   17.9779   -0.4217 O.3     1  NONAME1    -0.4915
      3 C2          8.9801   17.2096   -0.2820 C.ar    1  NONAME1     0.1616
      4 C3          9.1306   15.8246   -0.3665 C.ar    1  NONAME1    -0.0146
      5 C4          8.0199   14.9801   -0.2383 C.ar    1  NONAME1    -0.0372
      6 C5          6.7452   15.4978    0.0057 C.ar    1  NONAME1     0.0311
      7 N1          5.5822   14.7246    0.0804 N.pl3   1  NONAME1    -0.3396
      8 C6          5.6322   13.2666    0.1208 C.3     1  NONAME1     0.0344
      9 C7          4.2553   12.6192    0.0500 C.ar    1  NONAME1    -0.0304
     10 C8          4.1490   11.2191    0.1656 C.ar    1  NONAME1    -0.0564
     11 C9          2.9071   10.5599    0.0809 C.ar    1  NONAME1    -0.0493
     12 C10         1.7351   11.2944   -0.1205 C.ar    1  NONAME1     0.0370
     13 C11         0.3534   10.7151   -0.2244 C.2     1  NONAME1     0.2483
     14 O2         -0.5545   11.4871   -0.5192 O.2     1  NONAME1    -0.2699
     15 N2          0.1673    9.3609   -0.0041 N.am    1  NONAME1    -0.2785
     16 C12        -1.0718    8.6456    0.0417 C.ar    1  NONAME1     0.0762
     17 C13        -0.9752    7.2325    0.0135 C.ar    1  NONAME1    -0.0287
     18 C14        -2.1080    6.3836    0.0556 C.ar    1  NONAME1    -0.0093
     19 C15        -1.9671    4.9029   -0.0035 C.ar    1  NONAME1     0.0194
     20 C16        -0.8193    4.1221   -0.0080 C.ar    1  NONAME1    -0.0469
     21 C17        -1.0823    2.7195   -0.0740 C.ar    1  NONAME1    -0.0541
     22 C18        -2.4281    2.4506   -0.1191 C.ar    1  NONAME1    -0.0237
     23 S1         -3.3576    3.8761   -0.0912 S.2     1  NONAME1    -0.0967
     24 C19        -3.3635    6.9972    0.1546 C.ar    1  NONAME1    -0.0500
     25 C20        -3.4840    8.3830    0.2061 C.ar    1  NONAME1    -0.0177
     26 C21        -2.3568    9.1990    0.1464 C.ar    1  NONAME1     0.1380
     27 O3         -2.6569   10.5251    0.2470 O.3     1  NONAME1    -0.5049
     28 C22         1.8425   12.6910   -0.2406 C.ar    1  NONAME1    -0.0493
     29 C23         3.0788   13.3422   -0.1663 C.ar    1  NONAME1    -0.0564
     30 C24         6.6136   16.8980    0.0417 C.ar    1  NONAME1     0.0046
     31 C25         7.7088   17.7617   -0.1208 C.ar    1  NONAME1     0.1632
     32 O4          7.3895   19.0928   -0.0634 O.3     1  NONAME1    -0.4914
     33 C26         8.2084   19.9748   -0.8243 C.3     1  NONAME1     0.0790
     34 H1         11.2825   17.3656    1.1766 H       1  NONAME1     0.0660
     35 H2         11.3710   19.0831    0.7444 H       1  NONAME1     0.0660
     36 H3          9.9492   18.4897    1.6164 H       1  NONAME1     0.0660
     37 H4         10.1145   15.3971   -0.5394 H       1  NONAME1     0.0656
     38 H5          8.1861   13.9113   -0.3241 H       1  NONAME1     0.0637
     39 H6          4.9279   15.1195    0.7518 H       1  NONAME1     0.1464
     40 H7          6.1180   12.9483    1.0511 H       1  NONAME1     0.0511
     41 H8          6.2054   12.8874   -0.7333 H       1  NONAME1     0.0511
     42 H9          5.0486   10.6222    0.3127 H       1  NONAME1     0.0621
     43 H10         2.9030    9.4792    0.1665 H       1  NONAME1     0.0625
     44 H11         0.9911    8.7854    0.0768 H       1  NONAME1     0.1552
     45 H12         0.0107    6.7826   -0.0633 H       1  NONAME1     0.0643
     46 H13         0.1834    4.5256    0.0373 H       1  NONAME1     0.0629
     47 H14        -0.3219    1.9484   -0.0860 H       1  NONAME1     0.0623
     48 H15        -2.9129    1.4844   -0.1695 H       1  NONAME1     0.0693
     49 H16        -4.2837    6.4210    0.1997 H       1  NONAME1     0.0625
     50 H17        -4.4690    8.8363    0.2933 H       1  NONAME1     0.0655
     51 H18        -1.8913   11.0369   -0.0868 H       1  NONAME1     0.2922
     52 H19         0.9521   13.2982   -0.4028 H       1  NONAME1     0.0625
     53 H20         3.0964   14.4219   -0.2964 H       1  NONAME1     0.0621
     54 H21         5.6272   17.3401    0.1670 H       1  NONAME1     0.0674
     55 H22         8.5178   19.5440   -1.7827 H       1  NONAME1     0.0660
     56 H23         9.0711   20.2969   -0.2341 H       1  NONAME1     0.0660
     57 H24         7.6167   20.8690   -1.0444 H       1  NONAME1     0.0660
@<TRIPOS>BOND
     1     1     2    1
     2     2     3    1
     3     3     4   ar
     4     4     5   ar
     5     5     6   ar
     6     6     7    1
     7     7     8    1
     8     8     9    1
     9     9    10   ar
    10    10    11   ar
    11    11    12   ar
    12    12    13    1
    13    13    14    2
    14    13    15   am
    15    15    16    1
    16    16    17   ar
    17    17    18   ar
    18    18    19    1
    19    19    20   ar
    20    20    21   ar
    21    21    22   ar
    22    22    23   ar
    23    19    23   ar
    24    18    24   ar
    25    24    25   ar
    26    25    26   ar
    27    16    26   ar
    28    26    27    1
    29    12    28   ar
    30    28    29   ar
    31     9    29   ar
    32     6    30   ar
    33    30    31   ar
    34     3    31   ar
    35    31    32    1
    36    32    33    1
    37     1    34    1
    38     1    35    1
    39     1    36    1
    40     4    37    1
    41     5    38    1
    42     7    39    1
    43     8    40    1
    44     8    41    1
    45    10    42    1
    46    11    43    1
    47    15    44    1
    48    17    45    1
    49    20    46    1
    50    21    47    1
    51    22    48    1
    52    24    49    1
    53    25    50    1
    54    27    51    1
    55    28    52    1
    56    29    53    1
    57    30    54    1
    58    33    55    1
    59    33    56    1
    60    33    57    1
