REMARK  7 active torsions:
REMARK  status: ('A' for Active; 'I' for Inactive)
REMARK    1  A    between atoms: C2_2  and  C3_3 
REMARK       I    between atoms: C3_3  and  N1_5 
REMARK    2  A    between atoms: N1_5  and  C4_6 
REMARK    3  A    between atoms: C4_6  and  C5_7 
REMARK    4  A    between atoms: C8_10  and  C9_11 
REMARK       I    between atoms: C9_11  and  N2_13 
REMARK    5  A    between atoms: N2_13  and  C10_14 
REMARK    6  A    between atoms: C12_16  and  C13_17 
REMARK    7  A    between atoms: C19_24  and  N3_25 
ROOT
ATOM      1  C9  NON d   1      11.888 -14.694   0.390  0.00  0.00     0.256 C 
ATOM      2  O2  NON d   1      11.697 -15.813   0.865  0.00  0.00    -0.267 OA
ATOM      3  N2  NON d   1      13.123 -14.195   0.012  0.00  0.00    -0.321 N 
ATOM      4  H11 NON d   1      13.188 -13.208  -0.185  0.00  0.00     0.169 HD
ENDROOT
BRANCH   3   5
ATOM      5  C10 NON d   1      14.368 -14.898  -0.025  0.00  0.00     0.057 A 
ATOM      6  C11 NON d   1      15.530 -14.090   0.001  0.00  0.00     0.044 A 
ATOM      7  C12 NON d   1      16.834 -14.628  -0.033  0.00  0.00    -0.017 A 
ATOM      8  C17 NON d   1      16.944 -16.019  -0.134  0.00  0.00     0.014 A 
ATOM      9  C18 NON d   1      15.811 -16.831  -0.193  0.00  0.00     0.026 A 
ATOM     10  C19 NON d   1      14.518 -16.299  -0.102  0.00  0.00     0.033 A 
BRANCH   7  11
ATOM     11  C13 NON d   1      18.031 -13.748   0.021  0.00  0.00     0.015 A 
ATOM     12  C14 NON d   1      18.113 -12.363  -0.033  0.00  0.00     0.020 A 
ATOM     13  C15 NON d   1      19.449 -11.867   0.042  0.00  0.00     0.008 A 
ATOM     14  C16 NON d   1      20.368 -12.881   0.155  0.00  0.00     0.050 A 
ATOM     15  S1  NON d   1      19.621 -14.410   0.185  0.00  0.00    -0.101 SA
ENDBRANCH   7  11
BRANCH  10  16
ATOM     16  N3  NON d   1      13.460 -17.187  -0.387  0.00  0.00    -0.301 NA
ATOM     17  H18 NON d   1      12.594 -16.855   0.053  0.00  0.00     0.124 HD
ATOM     18  H19 NON d   1      13.642 -18.136  -0.080  0.00  0.00     0.124 HD
ENDBRANCH  10  16
ENDBRANCH   3   5
BRANCH   1  19
ATOM     19  C8  NON d   1      10.687 -13.810   0.238  0.00  0.00     0.032 A 
ATOM     20  C7  NON d   1      10.732 -12.421   0.098  0.00  0.00     0.017 A 
ATOM     21  C6  NON d   1       9.538 -11.685  -0.002  0.00  0.00     0.010 A 
ATOM     22  C5  NON d   1       8.279 -12.311   0.042  0.00  0.00    -0.040 A 
ATOM     23  C21 NON d   1       8.245 -13.701   0.194  0.00  0.00     0.010 A 
ATOM     24  C20 NON d   1       9.431 -14.437   0.280  0.00  0.00     0.017 A 
BRANCH  22  25
ATOM     25  C4  NON d   1       7.034 -11.451  -0.016  0.00  0.00     0.161 C 
BRANCH  25  26
ATOM     26  N1  NON d   1       5.793 -12.187  -0.138  0.00  0.00    -0.357 N 
ATOM     27  C3  NON d   1       4.586 -11.565   0.114  0.00  0.00     0.217 C 
ATOM     28  O1  NON d   1       4.494 -10.409   0.512  0.00  0.00    -0.274 OA
ATOM     29  H6  NON d   1       5.779 -12.996  -0.744  0.00  0.00     0.162 HD
BRANCH  27  30
ATOM     30  C2  NON d   1       3.393 -12.475  -0.114  0.00  0.00     0.098 C 
ATOM     31  C1  NON d   1       2.073 -11.727  -0.057  0.00  0.00     0.014 C 
ENDBRANCH  27  30
ENDBRANCH  25  26
ENDBRANCH  22  25
ENDBRANCH   1  19
TORSDOF 7
