REMARK  11 active torsions:
REMARK  status: ('A' for Active; 'I' for Inactive)
REMARK    1  A    between atoms: C2_2  and  C3_4 
REMARK    2  A    between atoms: C3_4  and  C4_5 
REMARK    3  A    between atoms: C4_5  and  C5_6 
REMARK    4  A    between atoms: C5_6  and  C6_7 
REMARK    5  A    between atoms: C6_7  and  C7_8 
REMARK    6  A    between atoms: C8_9  and  C7_8 
REMARK    7  A    between atoms: C8_9  and  N1_10 
REMARK    8  A    between atoms: C8_9  and  C15_18 
REMARK    9  A    between atoms: N1_10  and  C9_11 
REMARK       I    between atoms: C15_18  and  N3_20 
REMARK   10  A    between atoms: N3_20  and  C16_21 
REMARK   11  A    between atoms: C17_23  and  C18_24 
ROOT
ATOM      1  C8  NON d   1       7.061 -16.241   0.410  0.00  0.00     0.314 C 
ENDROOT
BRANCH   1   2
ATOM      2  C7  NON d   1       5.658 -16.777   0.025  0.00  0.00     0.045 C 
BRANCH   2   3
ATOM      3  C6  NON d   1       4.703 -16.912   1.238  0.00  0.00     0.003 C 
BRANCH   3   4
ATOM      4  C5  NON d   1       3.985 -15.593   1.546  0.00  0.00     0.000 C 
BRANCH   4   5
ATOM      5  C4  NON d   1       2.883 -15.685   2.613  0.00  0.00     0.007 C 
BRANCH   5   6
ATOM      6  C3  NON d   1       3.397 -15.833   4.046  0.00  0.00     0.077 C 
BRANCH   6   7
ATOM      7  C2  NON d   1       3.553 -17.268   4.516  0.00  0.00     0.123 C 
ATOM      8  C1  NON d   1       4.286 -17.476   5.817  0.00  0.00     0.091 C 
ATOM      9  O1  NON d   1       3.055 -18.221   3.919  0.00  0.00    -0.298 OA
ENDBRANCH   6   7
ENDBRANCH   5   6
ENDBRANCH   4   5
ENDBRANCH   3   4
ENDBRANCH   2   3
ENDBRANCH   1   2
BRANCH   1  10
ATOM     10  N1  NON d   1       7.599 -15.200  -0.524  0.00  0.00     0.119 N 
ATOM     11  H15 NON d   1       6.936 -15.100  -1.290  0.00  0.00     0.319 HD
BRANCH  10  12
ATOM     12  C9  NON d   1       7.740 -13.886   0.108  0.00  0.00     0.318 C 
ATOM     13  C10 NON d   1       8.727 -13.869   1.304  0.00  0.00     0.057 C 
ATOM     14  C11 NON d   1      10.144 -13.358   1.071  0.00  0.00     0.006 C 
ATOM     15  C12 NON d   1      10.495 -13.096  -0.375  0.00  0.00     0.020 C 
ATOM     16  C13 NON d   1       9.377 -12.428  -1.156  0.00  0.00     0.118 C 
ATOM     17  N2  NON d   1       8.025 -12.887  -0.897  0.00  0.00    -0.389 N 
ATOM     18  C14 NON d   1       7.136 -12.756  -2.036  0.00  0.00     0.145 C 
ENDBRANCH  10  12
ENDBRANCH   1  10
BRANCH   1  19
ATOM     19  C15 NON d   1       8.086 -17.414   0.466  0.00  0.00     0.257 C 
ATOM     20  O2  NON d   1       7.785 -18.492   0.969  0.00  0.00    -0.271 OA
ATOM     21  N3  NON d   1       9.327 -17.033  -0.006  0.00  0.00    -0.304 N 
ATOM     22  H28 NON d   1       9.394 -16.081  -0.350  0.00  0.00     0.171 HD
BRANCH  21  23
ATOM     23  C16 NON d   1      10.493 -17.744   0.022  0.00  0.00     0.173 A 
ATOM     24  N4  NON d   1      11.660 -17.185  -0.222  0.00  0.00    -0.223 NA
ATOM     25  C17 NON d   1      12.678 -18.128  -0.060  0.00  0.00     0.076 A 
ATOM     26  C24 NON d   1      12.215 -19.402   0.235  0.00  0.00     0.085 A 
ATOM     27  S1  NON d   1      10.518 -19.411   0.353  0.00  0.00    -0.061 SA
BRANCH  25  28
ATOM     28  C18 NON d   1      14.094 -17.761  -0.136  0.00  0.00    -0.007 A 
ATOM     29  C19 NON d   1      14.478 -16.412  -0.118  0.00  0.00     0.014 A 
ATOM     30  C20 NON d   1      15.829 -16.048  -0.122  0.00  0.00     0.001 A 
ATOM     31  C21 NON d   1      16.820 -17.028  -0.149  0.00  0.00     0.000 A 
ATOM     32  C22 NON d   1      16.461 -18.369  -0.186  0.00  0.00     0.001 A 
ATOM     33  C23 NON d   1      15.110 -18.734  -0.186  0.00  0.00     0.014 A 
ENDBRANCH  25  28
ENDBRANCH  21  23
ENDBRANCH   1  19
TORSDOF 11
