REMARK  11 active torsions:
REMARK  status: ('A' for Active; 'I' for Inactive)
REMARK    1  A    between atoms: O1_2  and  C2_3 
REMARK    2  A    between atoms: C10_12  and  C11_13 
REMARK    3  A    between atoms: C14_17  and  C13_16 
REMARK    4  A    between atoms: C14_17  and  C15_18 
REMARK    5  A    between atoms: C14_17  and  N3_26 
REMARK    6  A    between atoms: C15_18  and  C16_19 
REMARK    7  A    between atoms: C16_19  and  C17_20 
REMARK    8  A    between atoms: C17_20  and  C18_21 
REMARK    9  A    between atoms: C18_21  and  C19_22 
REMARK   10  A    between atoms: C19_22  and  C20_23 
REMARK       I    between atoms: N3_26  and  C22_27 
REMARK   11  A    between atoms: C22_27  and  C23_29 
ROOT
ATOM      1  C14 NON d   1      21.319 -13.511   0.764  0.00  0.00     0.154 C 
ENDROOT
BRANCH   1   2
ATOM      2  C13 NON d   1      22.423 -14.694   0.709  0.00  0.00     0.127 C 
ATOM      3  N2  NON d   1      22.225 -15.868  -0.006  0.00  0.00    -0.350 N 
ATOM      4  C12 NON d   1      23.423 -16.534  -0.140  0.00  0.00     0.122 C 
ATOM      5  H10 NON d   1      21.367 -16.148  -0.460  0.00  0.00     0.166 HD
ATOM      6  C11 NON d   1      24.354 -15.829   0.593  0.00  0.00     0.088 C 
ATOM      7  N5  NON d   1      23.656 -14.777   1.243  0.00  0.00    -0.231 NA
BRANCH   6   8
ATOM      8  C10 NON d   1      25.844 -16.111   0.542  0.00  0.00     0.048 A 
ATOM      9  C9  NON d   1      26.235 -17.471   0.590  0.00  0.00     0.032 A 
ATOM     10  C8  NON d   1      27.584 -17.878   0.421  0.00  0.00    -0.006 A 
ATOM     11  C7  NON d   1      27.995 -19.229   0.379  0.00  0.00     0.014 A 
ATOM     12  C3  NON d   1      28.553 -16.880   0.266  0.00  0.00     0.070 A 
ATOM     13  C6  NON d   1      29.342 -19.563   0.194  0.00  0.00     0.001 A 
ATOM     14  C5  NON d   1      30.294 -18.558   0.066  0.00  0.00     0.002 A 
ATOM     15  C4  NON d   1      29.888 -17.226   0.106  0.00  0.00     0.032 A 
ATOM     16  N1  NON d   1      28.232 -15.591   0.228  0.00  0.00    -0.223 NA
ATOM     17  C2  NON d   1      26.931 -15.207   0.310  0.00  0.00     0.177 A 
BRANCH  17  18
ATOM     18  O1  NON d   1      26.910 -13.864   0.000  0.00  0.00    -0.339 OA
ATOM     19  C1  NON d   1      25.410 -13.515   0.000  0.00  0.00     0.211 C 
ENDBRANCH  17  18
ENDBRANCH   6   8
ENDBRANCH   1   2
BRANCH   1  20
ATOM     20  C15 NON d   1      20.130 -13.892  -0.183  0.00  0.00     0.033 C 
BRANCH  20  21
ATOM     21  C16 NON d   1      18.981 -12.882  -0.333  0.00  0.00     0.002 C 
BRANCH  21  22
ATOM     22  C17 NON d   1      18.752 -12.322  -1.754  0.00  0.00     0.000 C 
BRANCH  22  23
ATOM     23  C18 NON d   1      19.991 -11.733  -2.438  0.00  0.00     0.007 C 
BRANCH  23  24
ATOM     24  C19 NON d   1      19.686 -10.734  -3.559  0.00  0.00     0.077 C 
BRANCH  24  25
ATOM     25  C20 NON d   1      19.229  -9.386  -3.031  0.00  0.00     0.123 C 
ATOM     26  C21 NON d   1      19.275  -8.222  -3.987  0.00  0.00     0.091 C 
ATOM     27  O2  NON d   1      18.881  -9.222  -1.860  0.00  0.00    -0.298 OA
ENDBRANCH  24  25
ENDBRANCH  23  24
ENDBRANCH  22  23
ENDBRANCH  21  22
ENDBRANCH  20  21
ENDBRANCH   1  20
BRANCH   1  28
ATOM     28  N3  NON d   1      21.840 -12.144   0.346  0.00  0.00    -0.349 N 
ATOM     29  C22 NON d   1      21.356 -10.897   0.825  0.00  0.00     0.225 C 
ATOM     30  O3  NON d   1      20.635 -10.838   1.821  0.00  0.00    -0.273 OA
ATOM     31  H25 NON d   1      22.354 -12.141  -0.523  0.00  0.00     0.163 HD
BRANCH  29  32
ATOM     32  C23 NON d   1      21.822  -9.589   0.044  0.00  0.00     0.129 C 
ATOM     33  C24 NON d   1      20.991  -8.201   0.000  0.00  0.00     0.250 C 
ATOM     34  N4  NON d   1      22.376  -7.529   0.000  0.00  0.00    -0.073 N 
ATOM     35  C25 NON d   1      22.014  -6.304   0.905  0.00  0.00     0.269 C 
ATOM     36  C26 NON d   1      22.787  -8.717   0.871  0.00  0.00     0.250 C 
ATOM     37  H29 NON d   1      23.762  -6.856   0.000  0.00  0.00     0.279 HD
ENDBRANCH  29  32
ENDBRANCH   1  28
TORSDOF 11
