REMARK  9 active torsions:
REMARK  status: ('A' for Active; 'I' for Inactive)
REMARK    1  A    between atoms: N1_1  and  C1_2 
REMARK    2  A    between atoms: C4_5  and  C5_6 
REMARK    3  A    between atoms: C10_12  and  N2_13 
REMARK       I    between atoms: N2_13  and  C11_14 
REMARK    4  A    between atoms: C11_14  and  C12_16 
REMARK    5  A    between atoms: C15_19  and  C16_20 
REMARK    6  A    between atoms: C16_20  and  N3_21 
REMARK       I    between atoms: N3_21  and  C17_22 
REMARK    7  A    between atoms: C17_22  and  O3_24 
REMARK    8  A    between atoms: O3_24  and  C18_25 
REMARK    9  A    between atoms: C18_25  and  C19_26 
ROOT
ATOM      1  C12 NON d   1       0.251  -9.273   0.023  0.00  0.00     0.032 A 
ATOM      2  C13 NON d   1       0.330  -7.874   0.007  0.00  0.00     0.017 A 
ATOM      3  C14 NON d   1       1.562  -7.222  -0.009  0.00  0.00     0.010 A 
ATOM      4  C15 NON d   1       2.767  -7.942  -0.014  0.00  0.00    -0.040 A 
ATOM      5  C24 NON d   1       2.695  -9.341  -0.022  0.00  0.00     0.010 A 
ATOM      6  C25 NON d   1       1.447 -10.003  -0.003  0.00  0.00     0.017 A 
ENDROOT
BRANCH   1   7
ATOM      7  C11 NON d   1      -1.128  -9.858   0.111  0.00  0.00     0.256 C 
ATOM      8  N2  NON d   1      -1.271 -11.225  -0.040  0.00  0.00    -0.321 N 
ATOM      9  H9  NON d   1      -0.463 -11.804  -0.225  0.00  0.00     0.169 HD
ATOM     10  O1  NON d   1      -2.053  -9.079   0.330  0.00  0.00    -0.267 OA
BRANCH   8  11
ATOM     11  C10 NON d   1      -2.487 -11.961  -0.041  0.00  0.00     0.057 A 
ATOM     12  C9  NON d   1      -3.762 -11.373  -0.004  0.00  0.00     0.044 A 
ATOM     13  C4  NON d   1      -4.944 -12.139  -0.058  0.00  0.00    -0.017 A 
ATOM     14  C3  NON d   1      -4.801 -13.532  -0.152  0.00  0.00     0.014 A 
ATOM     15  C2  NON d   1      -3.538 -14.137  -0.177  0.00  0.00     0.026 A 
ATOM     16  C1  NON d   1      -2.379 -13.362  -0.116  0.00  0.00     0.033 A 
BRANCH  13  17
ATOM     17  C5  NON d   1      -6.299 -11.524  -0.021  0.00  0.00     0.015 A 
ATOM     18  C6  NON d   1      -7.542 -12.142   0.024  0.00  0.00     0.020 A 
ATOM     19  C7  NON d   1      -8.636 -11.225   0.049  0.00  0.00     0.008 A 
ATOM     20  C8  NON d   1      -8.210  -9.920   0.025  0.00  0.00     0.050 A 
ATOM     21  S1  NON d   1      -6.511  -9.809  -0.032  0.00  0.00    -0.101 SA
ENDBRANCH  13  17
BRANCH  16  22
ATOM     22  N1  NON d   1      -1.109 -13.986  -0.053  0.00  0.00    -0.301 NA
ATOM     23  H1  NON d   1      -1.177 -14.996  -0.161  0.00  0.00     0.124 HD
ATOM     24  H2  NON d   1      -0.672 -13.772   0.843  0.00  0.00     0.124 HD
ENDBRANCH  16  22
ENDBRANCH   8  11
ENDBRANCH   1   7
BRANCH   4  25
ATOM     25  C16 NON d   1       4.030  -7.116   0.039  0.00  0.00     0.163 C 
BRANCH  25  26
ATOM     26  N3  NON d   1       5.297  -7.789  -0.093  0.00  0.00    -0.333 N 
ATOM     27  C17 NON d   1       6.416  -7.005  -0.202  0.00  0.00     0.361 C 
ATOM     28  O2  NON d   1       6.399  -5.795  -0.381  0.00  0.00    -0.239 OA
ATOM     29  H14 NON d   1       5.447  -8.701   0.310  0.00  0.00     0.165 HD
BRANCH  27  30
ATOM     30  O3  NON d   1       7.544  -7.744  -0.035  0.00  0.00    -0.299 OA
BRANCH  30  31
ATOM     31  C18 NON d   1       8.723  -6.927  -0.078  0.00  0.00     0.220 C 
BRANCH  31  32
ATOM     32  C19 NON d   1      10.004  -7.717  -0.036  0.00  0.00    -0.016 A 
ATOM     33  C20 NON d   1      11.231  -7.040  -0.028  0.00  0.00     0.012 A 
ATOM     34  C21 NON d   1      12.423  -7.755  -0.011  0.00  0.00     0.020 A 
ATOM     35  C22 NON d   1      12.355  -9.138  -0.002  0.00  0.00     0.116 A 
ATOM     36  N4  NON d   1      11.195  -9.831  -0.008  0.00  0.00    -0.272 NA
ATOM     37  C23 NON d   1      10.050  -9.105  -0.027  0.00  0.00     0.125 A 
ENDBRANCH  31  32
ENDBRANCH  30  31
ENDBRANCH  27  30
ENDBRANCH  25  26
ENDBRANCH   4  25
TORSDOF 9
