REMARK  10 active torsions:
REMARK  status: ('A' for Active; 'I' for Inactive)
REMARK    1  A    between atoms: N3_3  and  C1_4 
REMARK    2  A    between atoms: C5_8  and  C6_9 
REMARK    3  A    between atoms: C6_9  and  O1_10 
REMARK    4  A    between atoms: O1_10  and  C7_11 
REMARK       I    between atoms: C7_11  and  N4_13 
REMARK    5  A    between atoms: N4_13  and  C8_14 
REMARK    6  A    between atoms: C8_14  and  C9_15 
REMARK    7  A    between atoms: C12_18  and  C13_19 
REMARK       I    between atoms: C13_19  and  N5_21 
REMARK    8  A    between atoms: N5_21  and  C14_22 
REMARK    9  A    between atoms: C16_24  and  C17_25 
REMARK   10  A    between atoms: C25_33  and  N6_34 
ROOT
ATOM      1  N1  NON d   1     -13.409 -20.079  -0.144  0.00  0.00     0.068 N 
ATOM      2  N2  NON d   1     -12.405 -19.539  -0.074  0.00  0.00    -0.162 NA
ATOM      3  N3  NON d   1     -11.302 -18.962   0.006  0.00  0.00    -0.073 NA
ENDROOT
BRANCH   3   4
ATOM      4  C1  NON d   1     -11.325 -17.552  -0.010  0.00  0.00     0.093 A 
ATOM      5  C2  NON d   1     -12.494 -16.773  -0.017  0.00  0.00     0.034 A 
ATOM      6  C3  NON d   1     -12.424 -15.380  -0.025  0.00  0.00     0.003 A 
ATOM      7  C4  NON d   1     -11.184 -14.747  -0.026  0.00  0.00     0.009 A 
ATOM      8  C5  NON d   1      -9.992 -15.490  -0.017  0.00  0.00    -0.032 A 
ATOM      9  C28 NON d   1     -10.080 -16.889  -0.008  0.00  0.00     0.043 A 
BRANCH   8  10
ATOM     10  C6  NON d   1      -8.689 -14.712  -0.019  0.00  0.00     0.219 C 
BRANCH  10  11
ATOM     11  O1  NON d   1      -7.483 -15.492  -0.026  0.00  0.00    -0.299 OA
BRANCH  11  12
ATOM     12  C7  NON d   1      -6.380 -14.691  -0.117  0.00  0.00     0.361 C 
ATOM     13  O2  NON d   1      -6.412 -13.469  -0.188  0.00  0.00    -0.239 OA
ATOM     14  N4  NON d   1      -5.220 -15.422  -0.090  0.00  0.00    -0.333 N 
ATOM     15  H6  NON d   1      -5.319 -16.388   0.181  0.00  0.00     0.165 HD
BRANCH  14  16
ATOM     16  C8  NON d   1      -3.951 -14.723  -0.008  0.00  0.00     0.163 C 
BRANCH  16  17
ATOM     17  C9  NON d   1      -2.678 -15.547  -0.022  0.00  0.00    -0.040 A 
ATOM     18  C10 NON d   1      -1.439 -14.867   0.013  0.00  0.00     0.010 A 
ATOM     19  C11 NON d   1      -0.209 -15.550   0.084  0.00  0.00     0.017 A 
ATOM     20  C12 NON d   1      -0.193 -16.944   0.122  0.00  0.00     0.032 A 
ATOM     21  C26 NON d   1      -1.423 -17.625   0.055  0.00  0.00     0.017 A 
ATOM     22  C27 NON d   1      -2.645 -16.942  -0.019  0.00  0.00     0.010 A 
BRANCH  20  23
ATOM     23  C13 NON d   1       1.037 -17.780   0.311  0.00  0.00     0.256 C 
ATOM     24  O3  NON d   1       0.862 -18.887   0.820  0.00  0.00    -0.267 OA
ATOM     25  N5  NON d   1       2.273 -17.266  -0.061  0.00  0.00    -0.321 N 
ATOM     26  H11 NON d   1       2.322 -16.286  -0.294  0.00  0.00     0.169 HD
BRANCH  25  27
ATOM     27  C14 NON d   1       3.534 -17.960  -0.051  0.00  0.00     0.057 A 
ATOM     28  C15 NON d   1       4.706 -17.152  -0.039  0.00  0.00     0.043 A 
ATOM     29  C16 NON d   1       6.025 -17.682  -0.018  0.00  0.00    -0.024 A 
ATOM     30  C23 NON d   1       6.110 -19.083  -0.034  0.00  0.00     0.014 A 
ATOM     31  C24 NON d   1       4.979 -19.895  -0.089  0.00  0.00     0.026 A 
ATOM     32  C25 NON d   1       3.687 -19.362  -0.069  0.00  0.00     0.033 A 
BRANCH  29  33
ATOM     33  C17 NON d   1       7.272 -16.837   0.003  0.00  0.00    -0.026 A 
ATOM     34  C18 NON d   1       7.239 -15.429   0.028  0.00  0.00     0.012 A 
ATOM     35  C19 NON d   1       8.409 -14.652   0.034  0.00  0.00     0.001 A 
ATOM     36  C20 NON d   1       9.659 -15.257   0.018  0.00  0.00     0.000 A 
ATOM     37  C21 NON d   1       9.739 -16.640  -0.001  0.00  0.00     0.001 A 
ATOM     38  C22 NON d   1       8.567 -17.408  -0.008  0.00  0.00     0.012 A 
ENDBRANCH  29  33
BRANCH  32  39
ATOM     39  N6  NON d   1       2.646 -20.267  -0.362  0.00  0.00    -0.301 NA
ATOM     40  H20 NON d   1       1.766 -19.929   0.039  0.00  0.00     0.124 HD
ATOM     41  H21 NON d   1       2.826 -21.202  -0.016  0.00  0.00     0.124 HD
ENDBRANCH  32  39
ENDBRANCH  25  27
ENDBRANCH  20  23
ENDBRANCH  16  17
ENDBRANCH  14  16
ENDBRANCH  11  12
ENDBRANCH  10  11
ENDBRANCH   8  10
ENDBRANCH   3   4
TORSDOF 10
