@<TRIPOS>MOLECULE
*****
 40 42 0 0 0
SMALL
USER_CHARGES

@<TRIPOS>ATOM
      1 N1         -5.5885   -4.6187    0.2939 N.2     1  NONAME1     0.0682
      2 N2         -4.7055   -5.2716   -0.0165 N.2     1  NONAME1    -0.1616
      3 N3         -3.7363   -5.9706   -0.3676 N.2     1  NONAME1    -0.0720
      4 C1         -3.8787   -7.3584   -0.1798 C.ar    1  NONAME1     0.1002
      5 C2         -2.7054   -8.1197   -0.0699 C.ar    1  NONAME1    -0.0328
      6 C3         -2.7405   -9.5141    0.0947 C.ar    1  NONAME1    -0.0475
      7 C4         -3.9685  -10.1765    0.1441 C.ar    1  NONAME1     0.0372
      8 C5         -4.1232  -11.6486    0.3509 C.2     1  NONAME1     0.2483
      9 O1         -5.1764  -12.0264    0.8586 O.2     1  NONAME1    -0.2699
     10 N4         -3.0759  -12.4708   -0.0315 N.am    1  NONAME1    -0.2799
     11 C6         -3.0516  -13.9011   -0.0308 C.ar    1  NONAME1     0.0551
     12 C7         -1.7628  -14.4970   -0.0304 C.ar    1  NONAME1    -0.0310
     13 C8         -1.5479  -15.8972   -0.0271 C.ar    1  NONAME1    -0.0160
     14 C9         -0.1805  -16.5231   -0.0044 C.ar    1  NONAME1    -0.0178
     15 C10         1.0051  -15.7611    0.0097 C.ar    1  NONAME1    -0.0540
     16 C11         2.2778  -16.3544    0.0238 C.ar    1  NONAME1    -0.0612
     17 C12         2.4096  -17.7366    0.0248 C.ar    1  NONAME1    -0.0617
     18 C13         1.2694  -18.5245    0.0151 C.ar    1  NONAME1    -0.0612
     19 C14         0.0022  -17.9255    0.0023 C.ar    1  NONAME1    -0.0540
     20 C15        -2.7107  -16.6818   -0.0611 C.ar    1  NONAME1    -0.0522
     21 C16        -3.9887  -16.1182   -0.1013 C.ar    1  NONAME1    -0.0387
     22 C17        -4.1854  -14.7360   -0.0521 C.ar    1  NONAME1     0.0461
     23 N5         -5.4920  -14.2812   -0.3226 N.pl3   1  NONAME1    -0.3565
     24 C18        -5.1470   -9.4209    0.0300 C.ar    1  NONAME1    -0.0475
     25 C19        -5.1040   -8.0320   -0.1373 C.ar    1  NONAME1    -0.0328
     26 H1         -1.7431   -7.6113   -0.1055 H       1  NONAME1     0.0640
     27 H2         -1.7987  -10.0403    0.2086 H       1  NONAME1     0.0626
     28 H3         -2.2040  -12.0318   -0.2838 H       1  NONAME1     0.1552
     29 H4         -0.9074  -13.8297   -0.0134 H       1  NONAME1     0.0643
     30 H5          0.9804  -14.6763    0.0099 H       1  NONAME1     0.0624
     31 H6          3.1664  -15.7282    0.0334 H       1  NONAME1     0.0618
     32 H7          3.3931  -18.1976    0.0335 H       1  NONAME1     0.0618
     33 H8          1.3554  -19.6086    0.0167 H       1  NONAME1     0.0618
     34 H9         -0.8410  -18.6090   -0.0027 H       1  NONAME1     0.0624
     35 H10        -2.6726  -17.7656   -0.0841 H       1  NONAME1     0.0624
     36 H11        -4.8448  -16.7839   -0.1871 H       1  NONAME1     0.0637
     37 H12        -5.6359  -13.3524    0.0881 H       1  NONAME1     0.1424
     38 H13        -6.2088  -14.9121    0.0173 H       1  NONAME1     0.1424
     39 H14        -6.1177   -9.9147    0.0693 H       1  NONAME1     0.0626
     40 H15        -6.0472   -7.4998   -0.2350 H       1  NONAME1     0.0640
@<TRIPOS>BOND
     1     1     2    2
     2     2     3    2
     3     3     4    1
     4     4     5   ar
     5     5     6   ar
     6     6     7   ar
     7     7     8    1
     8     8     9    2
     9     8    10   am
    10    10    11    1
    11    11    12   ar
    12    12    13   ar
    13    13    14    1
    14    14    15   ar
    15    15    16   ar
    16    16    17   ar
    17    17    18   ar
    18    18    19   ar
    19    14    19   ar
    20    13    20   ar
    21    20    21   ar
    22    21    22   ar
    23    11    22   ar
    24    22    23    1
    25     7    24   ar
    26    24    25   ar
    27     4    25   ar
    28     5    26    1
    29     6    27    1
    30    10    28    1
    31    12    29    1
    32    15    30    1
    33    16    31    1
    34    17    32    1
    35    18    33    1
    36    19    34    1
    37    20    35    1
    38    21    36    1
    39    23    37    1
    40    23    38    1
    41    24    39    1
    42    25    40    1
