@<TRIPOS>MOLECULE
*****
 47 48 0 0 0
SMALL
USER_CHARGES

@<TRIPOS>ATOM
      1 O1          6.1587   -5.0457    0.9834 O.2     1  NONAME1    -0.2737
      2 C1          5.3838   -4.9103    0.0432 C.2     1  NONAME1     0.2354
      3 C2          3.9986   -5.5439   -0.0142 C.3     1  NONAME1     0.0259
      4 C3          3.6951   -6.4743    1.1555 C.3     1  NONAME1    -0.0447
      5 C4          2.4152   -7.3085    0.9801 C.3     1  NONAME1    -0.0526
      6 C5          1.0921   -6.5496    1.1622 C.3     1  NONAME1    -0.0526
      7 C6          0.5542   -5.9172   -0.1262 C.3     1  NONAME1    -0.0448
      8 C7         -0.8081   -5.2437    0.0671 C.3     1  NONAME1     0.0243
      9 C8         -1.9958   -6.2012    0.0496 C.2     1  NONAME1     0.2186
     10 O2         -1.8559   -7.4165   -0.0013 O.2     1  NONAME1    -0.2754
     11 N1         -3.1881   -5.5050    0.0915 N.am    1  NONAME1    -0.2647
     12 C9         -4.4119   -6.1143    0.0632 C.ar    1  NONAME1     0.1649
     13 N2         -4.7189   -7.3837    0.0434 N.ar    1  NONAME1    -0.2246
     14 C10        -6.1003   -7.5432    0.0151 C.ar    1  NONAME1     0.0803
     15 C11        -6.7040   -8.8807   -0.0009 C.ar    1  NONAME1     0.0031
     16 C12        -5.8655  -10.0093   -0.0071 C.ar    1  NONAME1    -0.0524
     17 C13        -6.3884  -11.3060   -0.0136 C.ar    1  NONAME1    -0.0590
     18 C14        -7.7675  -11.5034   -0.0156 C.ar    1  NONAME1    -0.0314
     19 C15        -8.6159  -10.3909   -0.0116 C.ar    1  NONAME1     0.1268
     20 N3        -10.0723  -10.5902   -0.0130 N.pl3   1  NONAME1     0.0564
     21 O3        -10.5013  -11.7534   -0.0152 O.2     1  NONAME1    -0.1261
     22 O4        -10.7897   -9.5794   -0.0077 O.2     1  NONAME1    -0.1261
     23 C16        -8.0929   -9.0852   -0.0050 C.ar    1  NONAME1    -0.0223
     24 C17        -6.8054   -6.3531    0.0109 C.ar    1  NONAME1     0.0049
     25 S1         -5.7219   -5.0218    0.0539 S.2     1  NONAME1    -0.0599
     26 N4          5.6180   -4.1210   -1.0715 N.am    1  NONAME1    -0.1975
     27 O5          6.9476   -3.6691   -1.2255 O.3     1  NONAME1    -0.2952
     28 H1          3.2772   -4.7221   -0.0345 H       1  NONAME1     0.0359
     29 H2          3.9240   -6.1017   -0.9555 H       1  NONAME1     0.0359
     30 H3          4.5327   -7.1744    1.2768 H       1  NONAME1     0.0270
     31 H4          3.6424   -5.9000    2.0887 H       1  NONAME1     0.0270
     32 H5          2.4434   -8.0912    1.7499 H       1  NONAME1     0.0265
     33 H6          2.4299   -7.8318    0.0165 H       1  NONAME1     0.0265
     34 H7          0.3474   -7.2675    1.5279 H       1  NONAME1     0.0265
     35 H8          1.1980   -5.7888    1.9443 H       1  NONAME1     0.0265
     36 H9          0.4941   -6.6723   -0.9187 H       1  NONAME1     0.0270
     37 H10         1.2519   -5.1507   -0.4724 H       1  NONAME1     0.0270
     38 H11        -0.8259   -4.6757    1.0046 H       1  NONAME1     0.0358
     39 H12        -0.9557   -4.5336   -0.7568 H       1  NONAME1     0.0358
     40 H13        -3.1922   -4.4965    0.1118 H       1  NONAME1     0.1567
     41 H14        -4.7810   -9.8820   -0.0016 H       1  NONAME1     0.0624
     42 H15        -5.7132  -12.1604   -0.0150 H       1  NONAME1     0.0618
     43 H16        -8.1604  -12.5176   -0.0187 H       1  NONAME1     0.0640
     44 H17        -8.7749   -8.2396   -0.0000 H       1  NONAME1     0.0647
     45 H18        -7.8722   -6.1780   -0.0134 H       1  NONAME1     0.0716
     46 H19         5.1473   -4.3499   -1.9412 H       1  NONAME1     0.1822
     47 H20         6.9093   -2.7763   -0.8349 H       1  NONAME1     0.2414
@<TRIPOS>BOND
     1     1     2    2
     2     2     3    1
     3     3     4    1
     4     4     5    1
     5     5     6    1
     6     6     7    1
     7     7     8    1
     8     8     9    1
     9     9    10    2
    10     9    11   am
    11    11    12    1
    12    12    13   ar
    13    13    14   ar
    14    14    15    1
    15    15    16   ar
    16    16    17   ar
    17    17    18   ar
    18    18    19   ar
    19    19    20    1
    20    20    21    2
    21    20    22    1
    22    19    23   ar
    23    15    23   ar
    24    14    24   ar
    25    24    25   ar
    26    12    25   ar
    27     2    26   am
    28    26    27    1
    29     3    28    1
    30     3    29    1
    31     4    30    1
    32     4    31    1
    33     5    32    1
    34     5    33    1
    35     6    34    1
    36     6    35    1
    37     7    36    1
    38     7    37    1
    39     8    38    1
    40     8    39    1
    41    11    40    1
    42    16    41    1
    43    17    42    1
    44    18    43    1
    45    23    44    1
    46    24    45    1
    47    26    46    1
    48    27    47    1
