@<TRIPOS>MOLECULE
*****
 66 69 0 0 0
SMALL
USER_CHARGES

@<TRIPOS>ATOM
      1 C1          3.8750   -8.6004   -0.0398 C.3     1  NONAME1     0.0788
      2 O1          4.3543   -7.3029   -0.3770 O.3     1  NONAME1    -0.4951
      3 C2          3.4608   -6.2700   -0.2738 C.ar    1  NONAME1     0.1208
      4 C3          2.0820   -6.4139   -0.1596 C.ar    1  NONAME1    -0.0180
      5 C4          1.2557   -5.2954   -0.0326 C.ar    1  NONAME1    -0.0343
      6 C5          1.8534   -4.0299   -0.0283 C.ar    1  NONAME1     0.0472
      7 N1          1.2564   -2.7991    0.0797 N.ar    1  NONAME1    -0.3579
      8 C6          2.1912   -1.8109    0.0000 C.ar    1  NONAME1     0.0175
      9 C7          1.8710   -0.3046    0.0000 C.3     1  NONAME1    -0.0242
     10 C8          3.4924   -2.4146   -0.1517 C.ar    1  NONAME1    -0.0106
     11 C9          4.9103   -1.7077   -0.4116 C.3     1  NONAME1     0.0513
     12 C10         6.2710   -2.2954    0.1876 C.2     1  NONAME1     0.2180
     13 O2          6.2875   -2.8771    1.2766 O.2     1  NONAME1    -0.2754
     14 N2          7.4993   -2.0811   -0.5301 N.am    1  NONAME1    -0.3052
     15 C11         8.9328   -2.4373    0.0000 C.3     1  NONAME1     0.0810
     16 C12        10.4293   -1.9053   -0.0054 C.3     1  NONAME1    -0.0275
     17 C13        10.8060   -1.0850    1.3005 C.3     1  NONAME1    -0.0510
     18 C14         9.9938    0.2085    1.5747 C.3     1  NONAME1    -0.0526
     19 C15        10.3808    1.0341    2.8095 C.3     1  NONAME1    -0.0464
     20 C16        11.5249    2.0200    2.5817 C.3     1  NONAME1     0.0055
     21 C17        12.8986    1.4332    2.7582 C.2     1  NONAME1     0.1303
     22 C18        14.0651    2.3017    2.3655 C.3     1  NONAME1    -0.0061
     23 O3         13.0971    0.3235    3.2550 O.2     1  NONAME1    -0.2977
     24 C19         8.9328   -3.9773    0.0000 C.ar    1  NONAME1     0.1286
     25 N3          9.9997   -4.6931   -0.3271 N.ar    1  NONAME1    -0.2305
     26 C20         9.6731   -6.0038   -0.1450 C.ar    1  NONAME1     0.0906
     27 C21        10.4713   -7.1460   -0.2798 C.ar    1  NONAME1    -0.0159
     28 C22         9.8643   -8.3890   -0.1016 C.ar    1  NONAME1     0.0431
     29 Cl1        10.8156   -9.8191   -0.2465 Cl      1  NONAME1    -0.0835
     30 C23         8.5024   -8.4963    0.1926 C.ar    1  NONAME1    -0.0413
     31 C24         7.7101   -7.3551    0.3785 C.ar    1  NONAME1    -0.0349
     32 C25         8.3410   -6.1210    0.2215 C.ar    1  NONAME1     0.0663
     33 N4          7.9215   -4.8224    0.3920 N.ar    1  NONAME1    -0.3403
     34 C26         3.2338   -3.8358   -0.1630 C.ar    1  NONAME1     0.0070
     35 C27         4.0354   -4.9885   -0.3068 C.ar    1  NONAME1    -0.0105
     36 H1          3.2922   -8.5997    0.8887 H       1  NONAME1     0.0660
     37 H2          3.2953   -9.0183   -0.8691 H       1  NONAME1     0.0660
     38 H3          4.7437   -9.2445    0.1246 H       1  NONAME1     0.0660
     39 H4          1.6096   -7.3907   -0.1732 H       1  NONAME1     0.0655
     40 H5          0.1798   -5.4117    0.0536 H       1  NONAME1     0.0639
     41 H6          0.2594   -2.6573    0.1693 H       1  NONAME1     0.1656
     42 H7          2.5821   -0.0668    0.8204 H       1  NONAME1     0.0292
     43 H8          1.5508    1.2017    0.0000 H       1  NONAME1     0.0292
     44 H9          0.8649   -0.4148    0.4590 H       1  NONAME1     0.0292
     45 H10         5.0263   -1.6190   -1.4989 H       1  NONAME1     0.0408
     46 H11         4.8330   -0.6924   -0.0002 H       1  NONAME1     0.0408
     47 H12         7.4544   -1.6963   -1.4624 H       1  NONAME1     0.1494
     48 H13         8.9328   -0.8973    0.0000 H       1  NONAME1     0.0579
     49 H14        11.1554   -2.7242   -0.0395 H       1  NONAME1     0.0287
     50 H15        10.6314   -1.3127   -0.9087 H       1  NONAME1     0.0287
     51 H16        11.8663   -0.8249    1.2236 H       1  NONAME1     0.0266
     52 H17        10.6988   -1.7496    2.1668 H       1  NONAME1     0.0266
     53 H18        10.0157    0.8516    0.6869 H       1  NONAME1     0.0265
     54 H19         8.9461   -0.0740    1.7480 H       1  NONAME1     0.0265
     55 H20        10.5662    0.3820    3.6681 H       1  NONAME1     0.0269
     56 H21         9.4966    1.6366    3.0683 H       1  NONAME1     0.0269
     57 H22        11.4468    2.4667    1.5760 H       1  NONAME1     0.0341
     58 H23        11.4336    2.8369    3.3100 H       1  NONAME1     0.0341
     59 H24        14.7193    1.7400    1.6972 H       1  NONAME1     0.0306
     60 H25        14.6053    2.6101    3.2617 H       1  NONAME1     0.0306
     61 H26        13.7157    3.1960    1.8380 H       1  NONAME1     0.0306
     62 H27        11.5258   -7.0487   -0.5102 H       1  NONAME1     0.0654
     63 H28         8.0468   -9.4783    0.2951 H       1  NONAME1     0.0633
     64 H29         6.6607   -7.4318    0.6334 H       1  NONAME1     0.0639
     65 H30         7.0302   -4.5245    0.7701 H       1  NONAME1     0.1671
     66 H31         5.1069   -4.8967   -0.4333 H       1  NONAME1     0.0661
@<TRIPOS>BOND
     1     1     2    1
     2     2     3    1
     3     3     4   ar
     4     4     5   ar
     5     5     6   ar
     6     6     7   ar
     7     7     8   ar
     8     8     9    1
     9     8    10   ar
    10    10    11    1
    11    11    12    1
    12    12    13    2
    13    12    14   am
    14    15    14    1
    15    15    16    1
    16    16    17    1
    17    17    18    1
    18    18    19    1
    19    19    20    1
    20    20    21    1
    21    21    22    1
    22    21    23    2
    23    15    24    1
    24    24    25   ar
    25    25    26   ar
    26    26    27   ar
    27    27    28   ar
    28    28    29    1
    29    28    30   ar
    30    30    31   ar
    31    31    32   ar
    32    26    32   ar
    33    32    33   ar
    34    24    33   ar
    35    10    34   ar
    36     6    34   ar
    37    34    35   ar
    38     3    35   ar
    39     1    36    1
    40     1    37    1
    41     1    38    1
    42     4    39    1
    43     5    40    1
    44     7    41    1
    45     9    42    1
    46     9    43    1
    47     9    44    1
    48    11    45    1
    49    11    46    1
    50    14    47    1
    51    15    48    1
    52    16    49    1
    53    16    50    1
    54    17    51    1
    55    17    52    1
    56    18    53    1
    57    18    54    1
    58    19    55    1
    59    19    56    1
    60    20    57    1
    61    20    58    1
    62    22    59    1
    63    22    60    1
    64    22    61    1
    65    27    62    1
    66    30    63    1
    67    31    64    1
    68    33    65    1
    69    35    66    1
