REMARK  7 active torsions:
REMARK  status: ('A' for Active; 'I' for Inactive)
REMARK    1  A    between atoms: O1_2  and  C2_3 
REMARK       I    between atoms: C2_3  and  N1_5 
REMARK    2  A    between atoms: N1_5  and  C3_6 
REMARK    3  A    between atoms: C3_6  and  C4_7 
REMARK    4  A    between atoms: C7_10  and  C8_11 
REMARK       I    between atoms: C8_11  and  N2_13 
REMARK    5  A    between atoms: N2_13  and  C9_14 
REMARK    6  A    between atoms: C11_16  and  C12_17 
REMARK    7  A    between atoms: C20_25  and  N3_26 
ROOT
ATOM      1  C8  NON d   1      -0.102 -15.454  -0.317  0.00  0.00     0.256 C 
ATOM      2  O3  NON d   1      -0.321 -16.560  -0.808  0.00  0.00    -0.267 OA
ATOM      3  N2  NON d   1       1.143 -14.977   0.059  0.00  0.00    -0.321 N 
ATOM      4  H9  NON d   1       1.212 -14.001   0.304  0.00  0.00     0.169 HD
ENDROOT
BRANCH   3   5
ATOM      5  C9  NON d   1       2.385 -15.691   0.060  0.00  0.00     0.057 A 
ATOM      6  C10 NON d   1       3.559 -14.893   0.057  0.00  0.00     0.043 A 
ATOM      7  C11 NON d   1       4.872 -15.429   0.051  0.00  0.00    -0.024 A 
ATOM      8  C18 NON d   1       4.947 -16.829   0.086  0.00  0.00     0.014 A 
ATOM      9  C19 NON d   1       3.807 -17.635   0.128  0.00  0.00     0.026 A 
ATOM     10  C20 NON d   1       2.520 -17.093   0.079  0.00  0.00     0.033 A 
BRANCH   7  11
ATOM     11  C12 NON d   1       6.113 -14.580   0.021  0.00  0.00    -0.026 A 
ATOM     12  C13 NON d   1       6.069 -13.172  -0.011  0.00  0.00     0.012 A 
ATOM     13  C14 NON d   1       7.233 -12.386  -0.035  0.00  0.00     0.001 A 
ATOM     14  C15 NON d   1       8.486 -12.984  -0.030  0.00  0.00     0.000 A 
ATOM     15  C16 NON d   1       8.575 -14.367  -0.003  0.00  0.00     0.001 A 
ATOM     16  C17 NON d   1       7.409 -15.145   0.020  0.00  0.00     0.012 A 
ENDBRANCH   7  11
BRANCH  10  17
ATOM     17  N3  NON d   1       1.462 -17.984   0.347  0.00  0.00    -0.301 NA
ATOM     18  H18 NON d   1       0.591 -17.629  -0.062  0.00  0.00     0.124 HD
ATOM     19  H19 NON d   1       1.632 -18.920  -0.001  0.00  0.00     0.124 HD
ENDBRANCH  10  17
ENDBRANCH   3   5
BRANCH   1  20
ATOM     20  C7  NON d   1      -1.284 -14.556  -0.138  0.00  0.00     0.032 A 
ATOM     21  C6  NON d   1      -1.222 -13.161  -0.155  0.00  0.00     0.017 A 
ATOM     22  C5  NON d   1      -2.404 -12.406  -0.064  0.00  0.00     0.010 A 
ATOM     23  C4  NON d   1      -3.667 -13.021   0.040  0.00  0.00    -0.040 A 
ATOM     24  C22 NON d   1      -3.712 -14.418   0.098  0.00  0.00     0.010 A 
ATOM     25  C21 NON d   1      -2.538 -15.172  -0.004  0.00  0.00     0.017 A 
BRANCH  23  26
ATOM     26  C3  NON d   1      -4.901 -12.145   0.096  0.00  0.00     0.163 C 
BRANCH  26  27
ATOM     27  N1  NON d   1      -6.157 -12.845  -0.018  0.00  0.00    -0.333 N 
ATOM     28  C2  NON d   1      -7.341 -12.208   0.203  0.00  0.00     0.360 C 
ATOM     29  O2  NON d   1      -7.459 -11.069   0.626  0.00  0.00    -0.239 OA
ATOM     30  H4  NON d   1      -6.234 -13.675  -0.586  0.00  0.00     0.165 HD
BRANCH  28  31
ATOM     31  O1  NON d   1      -8.354 -13.036  -0.146  0.00  0.00    -0.309 OA
ATOM     32  C1  NON d   1      -9.682 -12.527   0.016  0.00  0.00     0.215 C 
ENDBRANCH  28  31
ENDBRANCH  26  27
ENDBRANCH  23  26
ENDBRANCH   1  20
TORSDOF 7
