@<TRIPOS>MOLECULE
*****
 70 72 0 0 0
SMALL
USER_CHARGES

@<TRIPOS>ATOM
      1 O1         27.0553   -4.5475    1.0305 O.2     1  NONAME1    -0.2265
      2 C1         26.6893   -5.2393    0.0935 C.2     1  NONAME1     0.4012
      3 N1         25.7878   -4.8859   -0.8585 N.am    1  NONAME1    -0.2679
      4 C2         25.1362   -3.5779   -0.9977 C.3     1  NONAME1     0.1232
      5 C3         23.9575   -3.4187   -0.0107 C.3     1  NONAME1    -0.0240
      6 C4         23.2218   -2.0693   -0.0309 C.3     1  NONAME1    -0.0509
      7 C5         23.3322   -1.1974    1.2298 C.3     1  NONAME1    -0.0530
      8 C6         24.7232   -0.7111    1.6587 C.3     1  NONAME1    -0.0523
      9 C7         25.5377   -1.7717    2.4030 C.3     1  NONAME1    -0.0432
     10 C8         26.9193   -1.3375    2.8878 C.3     1  NONAME1     0.0043
     11 S1         26.8133   -0.1906    4.2904 S.3     1  NONAME1    -0.0866
     12 S2         27.0076    1.6433    3.3770 S.3     1  NONAME1    -0.0372
     13 C9         27.5047    2.7027    4.7252 C.ar    1  NONAME1     0.1072
     14 C10        26.9453    3.9726    4.8125 C.ar    1  NONAME1    -0.0290
     15 C11        27.2939    4.7848    5.8872 C.ar    1  NONAME1    -0.0578
     16 C12        28.1877    4.3063    6.8370 C.ar    1  NONAME1    -0.0435
     17 C13        28.7084    3.0352    6.6649 C.ar    1  NONAME1     0.0289
     18 N2         28.3959    2.2317    5.6280 N.ar    1  NONAME1    -0.2480
     19 C14        26.0884   -2.3601   -1.1575 C.2     1  NONAME1     0.3280
     20 O2         25.7019   -1.2553   -1.5283 O.2     1  NONAME1    -0.2487
     21 O3         27.3924   -2.6259   -0.8738 O.3     1  NONAME1    -0.4586
     22 C15        28.2403   -1.4712   -0.9550 C.3     1  NONAME1     0.1176
     23 C16        29.6792   -1.7708   -0.5828 C.ar    1  NONAME1    -0.0102
     24 C17        30.5755   -0.7022   -0.4078 C.ar    1  NONAME1    -0.0532
     25 C18        31.9296   -0.9349   -0.1434 C.ar    1  NONAME1    -0.0311
     26 C19        32.3980   -2.2505   -0.0527 C.ar    1  NONAME1     0.1262
     27 N3         33.8277   -2.5054    0.1688 N.pl3   1  NONAME1     0.0564
     28 O4         34.5701   -1.5265    0.3355 O.2     1  NONAME1    -0.1261
     29 O5         34.2123   -3.6847    0.1612 O.2     1  NONAME1    -0.1261
     30 C20        31.5160   -3.3265   -0.2001 C.ar    1  NONAME1    -0.0311
     31 C21        30.1657   -3.0789   -0.4673 C.ar    1  NONAME1    -0.0532
     32 O6         27.2050   -6.4492   -0.2407 O.3     1  NONAME1    -0.4456
     33 C22        28.5119   -6.6829    0.2990 C.3     1  NONAME1     0.1191
     34 C23        28.9697   -8.1139    0.1315 C.ar    1  NONAME1    -0.0103
     35 C24        30.3487   -8.3867    0.0818 C.ar    1  NONAME1    -0.0554
     36 C25        30.8163   -9.6984   -0.0093 C.ar    1  NONAME1    -0.0614
     37 C26        29.9113  -10.7552   -0.0450 C.ar    1  NONAME1    -0.0617
     38 C27        28.5414  -10.5008    0.0132 C.ar    1  NONAME1    -0.0614
     39 C28        28.0721   -9.1877    0.1033 C.ar    1  NONAME1    -0.0554
     40 H1         25.5623   -5.6183   -1.5178 H       1  NONAME1     0.1528
     41 H2         24.6842   -3.6519   -1.9981 H       1  NONAME1     0.0615
     42 H3         24.2208   -3.7142    1.0079 H       1  NONAME1     0.0288
     43 H4         23.2177   -4.1800   -0.3036 H       1  NONAME1     0.0288
     44 H5         23.4678   -1.4799   -0.9179 H       1  NONAME1     0.0266
     45 H6         22.1503   -2.2871   -0.1477 H       1  NONAME1     0.0266
     46 H7         22.8482   -1.7104    2.0696 H       1  NONAME1     0.0265
     47 H8         22.7241   -0.3011    1.0412 H       1  NONAME1     0.0265
     48 H9         24.5617    0.1415    2.3278 H       1  NONAME1     0.0266
     49 H10        25.2792   -0.3244    0.8000 H       1  NONAME1     0.0266
     50 H11        24.9517   -2.1697    3.2412 H       1  NONAME1     0.0273
     51 H12        25.7195   -2.6049    1.7311 H       1  NONAME1     0.0273
     52 H13        27.4532   -2.2268    3.2414 H       1  NONAME1     0.0385
     53 H14        27.5162   -0.9182    2.0726 H       1  NONAME1     0.0385
     54 H15        26.2371    4.3220    4.0685 H       1  NONAME1     0.0644
     55 H16        26.8627    5.7764    5.9859 H       1  NONAME1     0.0619
     56 H17        28.4706    4.9081    7.6933 H       1  NONAME1     0.0633
     57 H18        29.4070    2.6117    7.3806 H       1  NONAME1     0.0830
     58 H19        27.8586   -0.6979   -0.2776 H       1  NONAME1     0.0749
     59 H20        28.2327   -1.0996   -1.9867 H       1  NONAME1     0.0749
     60 H21        30.2230    0.3254   -0.4893 H       1  NONAME1     0.0622
     61 H22        32.5993   -0.0855   -0.0238 H       1  NONAME1     0.0640
     62 H23        31.8619   -4.3548   -0.1229 H       1  NONAME1     0.0640
     63 H24        29.4893   -3.9171   -0.5962 H       1  NONAME1     0.0622
     64 H25        28.5721   -6.4171    1.3601 H       1  NONAME1     0.0749
     65 H26        29.1988   -6.0544   -0.2777 H       1  NONAME1     0.0749
     66 H27        31.0728   -7.5750    0.1210 H       1  NONAME1     0.0621
     67 H28        31.8851   -9.8955   -0.0439 H       1  NONAME1     0.0618
     68 H29        30.2717  -11.7785   -0.1093 H       1  NONAME1     0.0618
     69 H30        27.8381  -11.3283   -0.0093 H       1  NONAME1     0.0618
     70 H31        27.0003   -9.0119    0.1585 H       1  NONAME1     0.0621
@<TRIPOS>BOND
     1     1     2    2
     2     2     3   am
     3     4     3    1
     4     4     5    1
     5     5     6    1
     6     6     7    1
     7     7     8    1
     8     8     9    1
     9     9    10    1
    10    10    11    1
    11    11    12    1
    12    12    13    1
    13    13    14   ar
    14    14    15   ar
    15    15    16   ar
    16    16    17   ar
    17    17    18   ar
    18    13    18   ar
    19     4    19    1
    20    19    20    2
    21    19    21    1
    22    21    22    1
    23    22    23    1
    24    23    24   ar
    25    24    25   ar
    26    25    26   ar
    27    26    27    1
    28    27    28    2
    29    27    29    1
    30    26    30   ar
    31    30    31   ar
    32    23    31   ar
    33     2    32    1
    34    32    33    1
    35    33    34    1
    36    34    35   ar
    37    35    36   ar
    38    36    37   ar
    39    37    38   ar
    40    38    39   ar
    41    34    39   ar
    42     3    40    1
    43     4    41    1
    44     5    42    1
    45     5    43    1
    46     6    44    1
    47     6    45    1
    48     7    46    1
    49     7    47    1
    50     8    48    1
    51     8    49    1
    52     9    50    1
    53     9    51    1
    54    10    52    1
    55    10    53    1
    56    14    54    1
    57    15    55    1
    58    16    56    1
    59    17    57    1
    60    22    58    1
    61    22    59    1
    62    24    60    1
    63    25    61    1
    64    30    62    1
    65    31    63    1
    66    33    64    1
    67    33    65    1
    68    35    66    1
    69    36    67    1
    70    37    68    1
    71    38    69    1
    72    39    70    1
