REMARK  5 active torsions:
REMARK  status: ('A' for Active; 'I' for Inactive)
REMARK       I    between atoms: C1_2  and  N1_3 
REMARK    1  A    between atoms: C1_2  and  C2_5 
REMARK    2  A    between atoms: N1_3  and  O2_4 
REMARK    3  A    between atoms: C4_8  and  N3_9 
REMARK    4  A    between atoms: N4_12  and  S1_13 
REMARK    5  A    between atoms: S1_13  and  C7_16 
ROOT
ATOM      1  N3  NON d   1      -3.814  -5.319  -0.354  0.00  0.00    -0.248 NA
ATOM      2  C5  NON d   1      -3.886  -3.960   0.188  0.00  0.00     0.119 C 
ATOM      3  C6  NON d   1      -2.645  -3.137  -0.185  0.00  0.00     0.150 C 
ATOM      4  N4  NON d   1      -1.334  -3.850   0.000  0.00  0.00    -0.304 N 
ATOM      5  C17 NON d   1      -1.335  -5.305  -0.293  0.00  0.00     0.150 C 
ATOM      6  C18 NON d   1      -2.629  -6.043   0.104  0.00  0.00     0.119 C 
ENDROOT
BRANCH   4   7
ATOM      7  S1  NON d   1       0.000  -3.080   0.000  0.00  0.00     0.260 S 
ATOM      8  O3  NON d   1      -0.511  -2.141   1.008  0.00  0.00    -0.200 OA
ATOM      9  O4  NON d   1      -0.166  -2.864  -1.446  0.00  0.00    -0.200 OA
BRANCH   7  10
ATOM     10  C7  NON d   1       1.334  -2.310   0.000  0.00  0.00     0.080 A 
ATOM     11  C8  NON d   1       1.581  -1.126  -0.732  0.00  0.00     0.026 A 
ATOM     12  C9  NON d   1       2.821  -0.478  -0.722  0.00  0.00     0.014 A 
ATOM     13  C10 NON d   1       3.855  -0.947   0.090  0.00  0.00    -0.026 A 
ATOM     14  C11 NON d   1       5.093  -0.288   0.144  0.00  0.00     0.012 A 
ATOM     15  C15 NON d   1       3.637  -2.103   0.878  0.00  0.00    -0.025 A 
ATOM     16  C12 NON d   1       6.096  -0.725   1.011  0.00  0.00     0.001 A 
ATOM     17  C13 NON d   1       5.875  -1.834   1.815  0.00  0.00     0.001 A 
ATOM     18  C14 NON d   1       4.660  -2.522   1.744  0.00  0.00     0.012 A 
ATOM     19  C16 NON d   1       2.402  -2.782   0.793  0.00  0.00     0.037 A 
ENDBRANCH   7  10
ENDBRANCH   4   7
BRANCH   1  20
ATOM     20  C4  NON d   1      -5.013  -6.020  -0.256  0.00  0.00     0.203 A 
ATOM     21  N2  NON d   1      -6.168  -5.332  -0.222  0.00  0.00    -0.230 NA
ATOM     22  C3  NON d   1      -7.328  -6.023  -0.153  0.00  0.00     0.138 A 
ATOM     23  C2  NON d   1      -7.397  -7.394  -0.120  0.00  0.00     0.069 A 
ATOM     24  C19 NON d   1      -6.176  -8.020  -0.166  0.00  0.00     0.138 A 
ATOM     25  N5  NON d   1      -4.992  -7.365  -0.234  0.00  0.00    -0.230 NA
BRANCH  23  26
ATOM     26  C1  NON d   1      -8.705  -8.067  -0.025  0.00  0.00     0.277 C 
ATOM     27  O1  NON d   1      -9.739  -7.399   0.050  0.00  0.00    -0.265 OA
ATOM     28  N1  NON d   1      -8.738  -9.438  -0.028  0.00  0.00    -0.233 N 
ATOM     29  H1  NON d   1      -7.972 -10.076  -0.165  0.00  0.00     0.197 HD
BRANCH  28  30
ATOM     30  O2  NON d   1     -10.031 -10.012   0.027  0.00  0.00    -0.287 OA
ATOM     31  H2  NON d   1     -10.617  -9.222   0.053  0.00  0.00     0.244 HD
ENDBRANCH  28  30
ENDBRANCH  23  26
ENDBRANCH   1  20
TORSDOF 5
