@<TRIPOS>MOLECULE
*****
 60 62 0 0 0
SMALL
USER_CHARGES

@<TRIPOS>ATOM
      1 C1         10.1709   17.7672   -2.3398 C.3     1  NONAME1    -0.0411
      2 C2         10.1590   16.2279   -2.3857 C.3     1  NONAME1     0.0542
      3 O1          8.8917   15.4871   -2.4604 O.3     1  NONAME1    -0.3073
      4 P1          7.8437   15.6463   -1.1959 P.3     1  NONAME1     0.3464
      5 O2          9.0308   15.9165   -0.2528 O.2     1  NONAME1    -0.2571
      6 C3          7.4989   14.0191   -0.2602 C.3     1  NONAME1     0.0994
      7 N1          6.0287   13.8370   -0.0736 N.3     1  NONAME1    -0.3019
      8 C4          5.7192   12.4428   -0.3662 C.3     1  NONAME1     0.0218
      9 C5          4.2921   11.9996   -0.1502 C.ar    1  NONAME1    -0.0335
     10 C6          4.0605   10.6137   -0.1086 C.ar    1  NONAME1    -0.0566
     11 C7          2.7744   10.0865    0.0360 C.ar    1  NONAME1    -0.0493
     12 C8          1.6756   10.9413    0.1260 C.ar    1  NONAME1     0.0370
     13 C9          0.2633   10.4593    0.2820 C.2     1  NONAME1     0.2483
     14 O3         -0.5568   11.2667    0.7126 O.2     1  NONAME1    -0.2699
     15 N2         -0.0027    9.1384   -0.0510 N.am    1  NONAME1    -0.2799
     16 C10        -1.2574    8.4635   -0.0699 C.ar    1  NONAME1     0.0551
     17 C11        -1.1829    7.0466   -0.0463 C.ar    1  NONAME1    -0.0305
     18 C12        -2.3260    6.2247   -0.0625 C.ar    1  NONAME1    -0.0094
     19 C13        -2.2052    4.7410   -0.0167 C.ar    1  NONAME1     0.0194
     20 C14        -1.0684    3.9431   -0.0506 C.ar    1  NONAME1    -0.0469
     21 C15        -1.3527    2.5438    0.0118 C.ar    1  NONAME1    -0.0541
     22 C16        -2.6996    2.2952    0.0896 C.ar    1  NONAME1    -0.0237
     23 S1         -3.6080    3.7365    0.1079 S.2     1  NONAME1    -0.0967
     24 C17        -3.5591    6.8719   -0.1427 C.ar    1  NONAME1    -0.0517
     25 C18        -3.6473    8.2598   -0.2032 C.ar    1  NONAME1    -0.0386
     26 C19        -2.5202    9.0816   -0.1293 C.ar    1  NONAME1     0.0461
     27 N3         -2.7172   10.4476   -0.4094 N.pl3   1  NONAME1    -0.3565
     28 C20         1.8998   12.3300    0.0875 C.ar    1  NONAME1    -0.0493
     29 C21         3.1923   12.8570   -0.0562 C.ar    1  NONAME1    -0.0566
     30 O4          6.6566   15.3761   -2.1390 O.3     1  NONAME1    -0.3073
     31 C22         5.5244   16.2201   -2.0899 C.3     1  NONAME1     0.0542
     32 C23         4.4149   15.5897   -2.9071 C.3     1  NONAME1    -0.0411
     33 H1         11.2124   17.8730   -2.7054 H       1  NONAME1     0.0252
     34 H2         10.1828   19.3065   -2.2939 H       1  NONAME1     0.0252
     35 H3          9.4541   17.8955   -3.1754 H       1  NONAME1     0.0252
     36 H4         10.6545   15.9332   -3.3216 H       1  NONAME1     0.0562
     37 H5         10.7970   15.7998   -1.6031 H       1  NONAME1     0.0562
     38 H6          8.0290   13.1926   -0.7364 H       1  NONAME1     0.0550
     39 H7          7.9048   14.1611    0.7518 H       1  NONAME1     0.0550
     40 H8          5.7814   14.0391    0.8966 H       1  NONAME1     0.1228
     41 H9          5.9662   12.2423   -1.4154 H       1  NONAME1     0.0474
     42 H10         6.3540   11.8153    0.2725 H       1  NONAME1     0.0474
     43 H11         4.9020    9.9271   -0.1934 H       1  NONAME1     0.0621
     44 H12         2.6824    9.0092    0.0888 H       1  NONAME1     0.0625
     45 H13         0.7907    8.5441   -0.2590 H       1  NONAME1     0.1552
     46 H14        -0.2009    6.5846    0.0104 H       1  NONAME1     0.0643
     47 H15        -0.0596    4.3308   -0.1156 H       1  NONAME1     0.0629
     48 H16        -0.6055    1.7599   -0.0026 H       1  NONAME1     0.0623
     49 H17        -3.2009    1.3364    0.1405 H       1  NONAME1     0.0693
     50 H18        -4.4902    6.3120   -0.1935 H       1  NONAME1     0.0624
     51 H19        -4.6256    8.7144   -0.3157 H       1  NONAME1     0.0637
     52 H20        -1.9557   11.0102   -0.0148 H       1  NONAME1     0.1424
     53 H21        -3.6151   10.7998   -0.0801 H       1  NONAME1     0.1424
     54 H22         1.0568   13.0191    0.1615 H       1  NONAME1     0.0625
     55 H23         3.3193   13.9357   -0.1028 H       1  NONAME1     0.0621
     56 H24         5.7907   17.1975   -2.5049 H       1  NONAME1     0.0562
     57 H25         5.2019   16.3593   -1.0531 H       1  NONAME1     0.0562
     58 H26         4.7056   15.5219   -3.9607 H       1  NONAME1     0.0252
     59 H27         4.2145   14.5677   -2.5703 H       1  NONAME1     0.0252
     60 H28         3.4937   16.1741   -2.8341 H       1  NONAME1     0.0252
@<TRIPOS>BOND
     1     1     2    1
     2     2     3    1
     3     3     4    1
     4     4     5    2
     5     4     6    1
     6     6     7    1
     7     7     8    1
     8     8     9    1
     9     9    10   ar
    10    10    11   ar
    11    11    12   ar
    12    12    13    1
    13    13    14    2
    14    13    15   am
    15    15    16    1
    16    16    17   ar
    17    17    18   ar
    18    18    19    1
    19    19    20   ar
    20    20    21   ar
    21    21    22   ar
    22    22    23   ar
    23    19    23   ar
    24    18    24   ar
    25    24    25   ar
    26    25    26   ar
    27    16    26   ar
    28    26    27    1
    29    12    28   ar
    30    28    29   ar
    31     9    29   ar
    32     4    30    1
    33    30    31    1
    34    31    32    1
    35     1    33    1
    36     1    34    1
    37     1    35    1
    38     2    36    1
    39     2    37    1
    40     6    38    1
    41     6    39    1
    42     7    40    1
    43     8    41    1
    44     8    42    1
    45    10    43    1
    46    11    44    1
    47    15    45    1
    48    17    46    1
    49    20    47    1
    50    21    48    1
    51    22    49    1
    52    24    50    1
    53    25    51    1
    54    27    52    1
    55    27    53    1
    56    28    54    1
    57    29    55    1
    58    31    56    1
    59    31    57    1
    60    32    58    1
    61    32    59    1
    62    32    60    1
