@<TRIPOS>MOLECULE
*****
 39 39 0 0 0
SMALL
USER_CHARGES

@<TRIPOS>ATOM
      1 O1          1.2359    1.9891   -1.9662 O.2     1  NONAME1    -0.2737
      2 C1          0.9573    0.8437   -2.3030 C.2     1  NONAME1     0.2354
      3 C2          1.9774   -0.2810   -2.3740 C.3     1  NONAME1     0.0259
      4 C3          3.1525   -0.0485   -1.4248 C.3     1  NONAME1    -0.0447
      5 C4          3.9986   -1.3035   -1.1923 C.3     1  NONAME1    -0.0526
      6 C5          3.6529   -2.0905    0.0808 C.3     1  NONAME1    -0.0526
      7 C6          2.4265   -2.9990   -0.0228 C.3     1  NONAME1    -0.0448
      8 C7          1.1374   -2.3849    0.5307 C.3     1  NONAME1     0.0243
      9 C8         -0.0367   -3.3420    0.3521 C.2     1  NONAME1     0.2172
     10 O2          0.1397   -4.5423    0.1757 O.2     1  NONAME1    -0.2755
     11 N1         -1.2598   -2.6965    0.4220 N.am    1  NONAME1    -0.2855
     12 C9         -2.5404   -3.2845    0.2938 C.ar    1  NONAME1     0.0334
     13 C10        -2.7637   -4.6558    0.1574 C.ar    1  NONAME1    -0.0405
     14 C11        -4.0638   -5.1617    0.0375 C.ar    1  NONAME1    -0.0600
     15 C12        -5.1521   -4.2976    0.0472 C.ar    1  NONAME1    -0.0616
     16 C13        -4.9453   -2.9269    0.1792 C.ar    1  NONAME1    -0.0600
     17 C14        -3.6458   -2.4234    0.3048 C.ar    1  NONAME1    -0.0405
     18 N2         -0.2971    0.4348   -2.7222 N.am    1  NONAME1    -0.1975
     19 O3         -1.3481    1.3362   -2.4350 O.3     1  NONAME1    -0.2952
     20 H1          1.4791   -1.2257   -2.1406 H       1  NONAME1     0.0359
     21 H2          2.3368   -0.3476   -3.4075 H       1  NONAME1     0.0359
     22 H3          2.8127    0.3617   -0.4666 H       1  NONAME1     0.0270
     23 H4          3.7948    0.7218   -1.8727 H       1  NONAME1     0.0270
     24 H5          3.9794   -1.9610   -2.0698 H       1  NONAME1     0.0265
     25 H6          5.0414   -0.9767   -1.0833 H       1  NONAME1     0.0265
     26 H7          4.5140   -2.7417    0.2844 H       1  NONAME1     0.0265
     27 H8          3.5738   -1.4186    0.9431 H       1  NONAME1     0.0265
     28 H9          2.6365   -3.9092    0.5554 H       1  NONAME1     0.0270
     29 H10         2.2797   -3.3309   -1.0578 H       1  NONAME1     0.0270
     30 H11         1.2462   -2.1849    1.6029 H       1  NONAME1     0.0358
     31 H12         0.9153   -1.4377    0.0329 H       1  NONAME1     0.0358
     32 H13        -1.2482   -1.6953    0.5699 H       1  NONAME1     0.1548
     33 H14        -1.9470   -5.3720    0.1528 H       1  NONAME1     0.0636
     34 H15        -4.2174   -6.2332   -0.0589 H       1  NONAME1     0.0618
     35 H16        -6.1625   -4.6905   -0.0464 H       1  NONAME1     0.0618
     36 H17        -5.7932   -2.2468    0.1838 H       1  NONAME1     0.0618
     37 H18        -3.5151   -1.3488    0.4032 H       1  NONAME1     0.0636
     38 H19        -0.5531   -0.5460   -2.6672 H       1  NONAME1     0.1822
     39 H20        -1.3999    1.8576   -3.2587 H       1  NONAME1     0.2414
@<TRIPOS>BOND
     1     1     2    2
     2     2     3    1
     3     3     4    1
     4     4     5    1
     5     5     6    1
     6     6     7    1
     7     7     8    1
     8     8     9    1
     9     9    10    2
    10     9    11   am
    11    11    12    1
    12    12    13   ar
    13    13    14   ar
    14    14    15   ar
    15    15    16   ar
    16    16    17   ar
    17    12    17   ar
    18     2    18   am
    19    18    19    1
    20     3    20    1
    21     3    21    1
    22     4    22    1
    23     4    23    1
    24     5    24    1
    25     5    25    1
    26     6    26    1
    27     6    27    1
    28     7    28    1
    29     7    29    1
    30     8    30    1
    31     8    31    1
    32    11    32    1
    33    13    33    1
    34    14    34    1
    35    15    35    1
    36    16    36    1
    37    17    37    1
    38    18    38    1
    39    19    39    1
