REMARK  16 active torsions:
REMARK  status: ('A' for Active; 'I' for Inactive)
REMARK    1  A    between atoms: O1_2  and  C2_3 
REMARK    2  A    between atoms: C6_7  and  C7_8 
REMARK    3  A    between atoms: C7_8  and  O2_9 
REMARK    4  A    between atoms: O2_9  and  C8_10 
REMARK    5  A    between atoms: C8_10  and  C9_11 
REMARK    6  A    between atoms: C8_10  and  C15_20 
REMARK    7  A    between atoms: C9_11  and  C10_12 
REMARK    8  A    between atoms: C10_12  and  C11_13 
REMARK    9  A    between atoms: C11_13  and  C12_14 
REMARK   10  A    between atoms: C12_14  and  C13_15 
REMARK   11  A    between atoms: C13_15  and  C14_16 
REMARK       I    between atoms: C14_16  and  N1_18 
REMARK   12  A    between atoms: N1_18  and  O4_19 
REMARK       I    between atoms: C15_20  and  N2_22 
REMARK   13  A    between atoms: N2_22  and  C16_23 
REMARK   14  A    between atoms: N2_22  and  C24_32 
REMARK   15  A    between atoms: C16_23  and  C17_24 
REMARK   16  A    between atoms: C21_28  and  O6_29 
ROOT
ATOM      1  C8  NON d   1      -1.334  -2.310   0.000  0.00  0.00     0.214 C 
ENDROOT
BRANCH   1   2
ATOM      2  O2  NON d   1      -0.793  -1.221  -1.045  0.00  0.00    -0.372 OA
BRANCH   2   3
ATOM      3  C7  NON d   1      -0.238   0.323  -0.369  0.00  0.00     0.207 C 
BRANCH   3   4
ATOM      4  C6  NON d   1       1.079   0.699   1.291  0.00  0.00    -0.032 C 
ATOM      5  C5  NON d   1       1.028  -0.041   2.748  0.00  0.00     0.009 C 
ATOM      6  C4  NON d   1       1.955  -0.210   3.785  0.00  0.00     0.003 C 
ATOM      7  C3  NON d   1       3.171   0.310   3.586  0.00  0.00     0.037 C 
ATOM      8  C2  NON d   1       3.362   1.039   2.425  0.00  0.00     0.068 C 
ATOM      9  C30 NON d   1       2.374   1.376   1.413  0.00  0.00     0.046 C 
BRANCH   8  10
ATOM     10  O1  NON d   1       4.708   1.127   2.226  0.00  0.00    -0.356 OA
ATOM     11  C1  NON d   1       5.021   2.104   1.077  0.00  0.00     0.210 C 
ENDBRANCH   8  10
ENDBRANCH   3   4
ENDBRANCH   2   3
ENDBRANCH   1   2
BRANCH   1  12
ATOM     12  C9  NON d   1      -2.294  -3.464  -0.665  0.00  0.00     0.041 C 
BRANCH  12  13
ATOM     13  C10 NON d   1      -3.562  -3.038  -1.452  0.00  0.00     0.003 C 
BRANCH  13  14
ATOM     14  C11 NON d   1      -4.806  -3.900  -1.150  0.00  0.00     0.001 C 
BRANCH  14  15
ATOM     15  C12 NON d   1      -5.738  -3.380  -0.039  0.00  0.00     0.009 C 
BRANCH  15  16
ATOM     16  C13 NON d   1      -5.308  -3.723   1.389  0.00  0.00     0.105 C 
BRANCH  16  17
ATOM     17  C14 NON d   1      -6.421  -3.480   2.406  0.00  0.00     0.240 C 
ATOM     18  O3  NON d   1      -7.488  -2.944   2.121  0.00  0.00    -0.271 OA
ATOM     19  N1  NON d   1      -6.085  -3.938   3.664  0.00  0.00    -0.237 N 
ATOM     20  H20 NON d   1      -5.136  -4.179   3.925  0.00  0.00     0.197 HD
BRANCH  19  21
ATOM     21  O4  NON d   1      -7.037  -3.739   4.686  0.00  0.00    -0.287 OA
ATOM     22  H21 NON d   1      -6.505  -3.582   5.484  0.00  0.00     0.244 HD
ENDBRANCH  19  21
ENDBRANCH  16  17
ENDBRANCH  15  16
ENDBRANCH  14  15
ENDBRANCH  13  14
ENDBRANCH  12  13
ENDBRANCH   1  12
BRANCH   1  23
ATOM     23  C15 NON d   1       0.000  -3.080   0.000  0.00  0.00     0.253 C 
ATOM     24  O5  NON d   1       0.043  -4.319  -0.084  0.00  0.00    -0.270 OA
ATOM     25  N2  NON d   1       1.182  -2.445   0.270  0.00  0.00    -0.312 N 
BRANCH  25  26
ATOM     26  C16 NON d   1       2.504  -3.157   0.114  0.00  0.00     0.171 C 
BRANCH  26  27
ATOM     27  C17 NON d   1       3.947  -2.597   0.089  0.00  0.00    -0.037 C 
ATOM     28  C18 NON d   1       4.278  -1.257   0.072  0.00  0.00     0.009 C 
ATOM     29  C19 NON d   1       5.531  -0.760  -0.294  0.00  0.00     0.003 C 
ATOM     30  C20 NON d   1       6.601  -1.609  -0.418  0.00  0.00     0.037 C 
ATOM     31  C21 NON d   1       6.401  -2.958  -0.170  0.00  0.00     0.068 C 
ATOM     32  C23 NON d   1       5.077  -3.453   0.005  0.00  0.00     0.045 C 
BRANCH  31  33
ATOM     33  O6  NON d   1       7.443  -3.850  -0.090  0.00  0.00    -0.356 OA
ATOM     34  C22 NON d   1       8.736  -3.257   0.102  0.00  0.00     0.210 C 
ENDBRANCH  31  33
ENDBRANCH  26  27
ENDBRANCH  25  26
BRANCH  25  35
ATOM     35  C24 NON d   1       0.923  -1.109   0.388  0.00  0.00     0.037 C 
ATOM     36  C25 NON d   1      -0.612  -0.525   1.325  0.00  0.00     0.030 C 
ATOM     37  C26 NON d   1      -0.986   1.254   1.345  0.00  0.00     0.002 C 
ATOM     38  C27 NON d   1      -0.034   2.346   0.286  0.00  0.00     0.000 C 
ATOM     39  C28 NON d   1       1.288   1.756  -0.749  0.00  0.00     0.002 C 
ATOM     40  C29 NON d   1       1.772   0.033  -0.712  0.00  0.00     0.030 C 
ENDBRANCH  25  35
ENDBRANCH   1  23
TORSDOF 16
