@<TRIPOS>MOLECULE
*****
 60 63 0 0 0
SMALL
USER_CHARGES

@<TRIPOS>ATOM
      1 C1          5.3347   -3.0800    0.0000 C.3     1  NONAME1    -0.0448
      2 C2          5.3347   -4.6200    0.0000 C.3     1  NONAME1     0.0420
      3 C3          6.6382   -5.1698    0.6606 C.3     1  NONAME1     0.0320
      4 N1          6.7185   -6.6354    0.6387 N.pl3   1  NONAME1    -0.3119
      5 C4          7.9279   -7.2898    0.4752 C.ar    1  NONAME1     0.1213
      6 C5          9.1407   -6.6743    0.7918 C.ar    1  NONAME1    -0.0210
      7 C6         10.3502   -7.3499    0.6161 C.ar    1  NONAME1    -0.0449
      8 C7         10.3479   -8.6589    0.1482 C.ar    1  NONAME1     0.0552
      9 C8         11.6462   -9.3587   -0.0330 C.2     1  NONAME1     0.2498
     10 O1         12.6380   -8.6660   -0.2389 O.2     1  NONAME1    -0.2698
     11 N2         11.6233  -10.7317    0.0801 N.am    1  NONAME1    -0.2799
     12 C9         12.7270  -11.6156    0.0527 C.ar    1  NONAME1     0.0545
     13 C10        14.0564  -11.2158   -0.0853 C.ar    1  NONAME1    -0.0387
     14 C11        15.0784  -12.1675   -0.0828 C.ar    1  NONAME1    -0.0599
     15 C12        14.7764  -13.5220    0.0406 C.ar    1  NONAME1    -0.0599
     16 C13        13.4490  -13.9323    0.1694 C.ar    1  NONAME1    -0.0392
     17 C14        12.4217  -12.9838    0.2199 C.ar    1  NONAME1     0.0461
     18 N3         11.0613  -13.4028    0.1805 N.pl3   1  NONAME1    -0.3565
     19 C15         9.1137   -9.2142   -0.1388 C.ar    1  NONAME1     0.0418
     20 N4          7.9257   -8.5647    0.0192 N.ar    1  NONAME1    -0.2396
     21 C16         5.4835   -7.3729    0.3587 C.3     1  NONAME1     0.0295
     22 C17         4.2686   -6.6557    0.9777 C.3     1  NONAME1     0.0339
     23 N5          4.1183   -5.2504    0.5622 N.am    1  NONAME1    -0.2617
     24 C18         2.8216   -4.7498    0.5221 C.2     1  NONAME1     0.4035
     25 O2          1.8476   -5.4116    0.8706 O.2     1  NONAME1    -0.2262
     26 O3          2.7193   -3.4629    0.0820 O.3     1  NONAME1    -0.4455
     27 C19         1.3669   -2.9710    0.0959 C.3     1  NONAME1     0.1191
     28 C20         1.2567   -1.4623   -0.0124 C.ar    1  NONAME1    -0.0103
     29 C21        -0.0088   -0.8663    0.1262 C.ar    1  NONAME1    -0.0554
     30 C22        -0.1613    0.5212    0.0547 C.ar    1  NONAME1    -0.0614
     31 C23         0.9488    1.3347   -0.1548 C.ar    1  NONAME1    -0.0617
     32 C24         2.2073    0.7586   -0.3055 C.ar    1  NONAME1    -0.0614
     33 C25         2.3557   -0.6301   -0.2437 C.ar    1  NONAME1    -0.0554
     34 H1          6.3195   -2.9609   -0.4946 H       1  NONAME1     0.0248
     35 H2          5.3347   -1.5400    0.0000 H       1  NONAME1     0.0248
     36 H3          5.4381   -2.9654    1.0986 H       1  NONAME1     0.0248
     37 H4          5.3301   -4.9310   -1.0546 H       1  NONAME1     0.0514
     38 H5          6.6861   -4.8444    1.7074 H       1  NONAME1     0.0482
     39 H6          7.4878   -4.7241    0.1303 H       1  NONAME1     0.0482
     40 H7          9.1747   -5.6681    1.1933 H       1  NONAME1     0.0652
     41 H8         11.2862   -6.8507    0.8555 H       1  NONAME1     0.0627
     42 H9         10.7595  -11.2180    0.3016 H       1  NONAME1     0.1552
     43 H10        14.3306  -10.1712   -0.1927 H       1  NONAME1     0.0637
     44 H11        16.1125  -11.8463   -0.1860 H       1  NONAME1     0.0618
     45 H12        15.5762  -14.2579    0.0247 H       1  NONAME1     0.0618
     46 H13        13.2292  -14.9939    0.2323 H       1  NONAME1     0.0636
     47 H14        10.7887  -13.5015   -0.7989 H       1  NONAME1     0.1424
     48 H15        10.9572  -14.3126    0.6268 H       1  NONAME1     0.1424
     49 H16         9.0101  -10.2185   -0.5366 H       1  NONAME1     0.0838
     50 H17         5.3477   -7.4621   -0.7266 H       1  NONAME1     0.0480
     51 H18         5.5220   -8.3846    0.7808 H       1  NONAME1     0.0480
     52 H19         3.3631   -7.2227    0.7330 H       1  NONAME1     0.0481
     53 H20         4.3626   -6.6422    2.0702 H       1  NONAME1     0.0481
     54 H21         0.8337   -3.4177   -0.7516 H       1  NONAME1     0.0749
     55 H22         0.8779   -3.2576    1.0359 H       1  NONAME1     0.0749
     56 H23        -0.8880   -1.4836    0.2963 H       1  NONAME1     0.0621
     57 H24        -1.1470    0.9670    0.1666 H       1  NONAME1     0.0618
     58 H25         0.8337    2.4144   -0.2029 H       1  NONAME1     0.0618
     59 H26         3.0762    1.3905   -0.4714 H       1  NONAME1     0.0618
     60 H27         3.3415   -1.0555   -0.3774 H       1  NONAME1     0.0621
@<TRIPOS>BOND
     1     2     1    1
     2     2     3    1
     3     3     4    1
     4     4     5    1
     5     5     6   ar
     6     6     7   ar
     7     7     8   ar
     8     8     9    1
     9     9    10    2
    10     9    11   am
    11    11    12    1
    12    12    13   ar
    13    13    14   ar
    14    14    15   ar
    15    15    16   ar
    16    16    17   ar
    17    12    17   ar
    18    17    18    1
    19     8    19   ar
    20    19    20   ar
    21     5    20   ar
    22     4    21    1
    23    21    22    1
    24    22    23    1
    25     2    23    1
    26    23    24   am
    27    24    25    2
    28    24    26    1
    29    26    27    1
    30    27    28    1
    31    28    29   ar
    32    29    30   ar
    33    30    31   ar
    34    31    32   ar
    35    32    33   ar
    36    28    33   ar
    37     1    34    1
    38     1    35    1
    39     1    36    1
    40     2    37    1
    41     3    38    1
    42     3    39    1
    43     6    40    1
    44     7    41    1
    45    11    42    1
    46    13    43    1
    47    14    44    1
    48    15    45    1
    49    16    46    1
    50    18    47    1
    51    18    48    1
    52    19    49    1
    53    21    50    1
    54    21    51    1
    55    22    52    1
    56    22    53    1
    57    27    54    1
    58    27    55    1
    59    29    56    1
    60    30    57    1
    61    31    58    1
    62    32    59    1
    63    33    60    1
