@<TRIPOS>MOLECULE
*****
 50 53 0 0 0
SMALL
USER_CHARGES

@<TRIPOS>ATOM
      1 O1          8.7582    4.3845    0.3444 O.2     1  NONAME1    -0.2681
      2 C1          7.6624    4.9102    0.1966 C.2     1  NONAME1     0.2665
      3 N1          7.4745    6.2646    0.0109 N.am    1  NONAME1    -0.1935
      4 O2          8.6105    7.0196   -0.3504 O.3     1  NONAME1    -0.2949
      5 C2          6.4212    4.0766    0.2184 C.ar    1  NONAME1     0.0387
      6 C3          6.4171    2.8800    0.9471 C.ar    1  NONAME1    -0.0493
      7 C4          5.2775    2.0604    0.9713 C.ar    1  NONAME1    -0.0564
      8 C5          4.1572    2.3666    0.1862 C.ar    1  NONAME1    -0.0301
      9 C6          2.8979    1.5214    0.1561 C.3     1  NONAME1     0.0381
     10 N2          2.8456    0.0649   -0.1808 N.pl3   1  NONAME1    -0.3122
     11 C7          3.9701   -0.7687   -0.3224 C.ar    1  NONAME1     0.0521
     12 C8          5.1911   -0.3354   -0.8532 C.ar    1  NONAME1    -0.0388
     13 C9          6.3428   -1.1409   -0.8552 C.ar    1  NONAME1    -0.0599
     14 C10         6.2838   -2.4551   -0.4143 C.ar    1  NONAME1    -0.0599
     15 C11         5.0559   -2.9809   -0.0499 C.ar    1  NONAME1    -0.0387
     16 C12         3.9218   -2.1571   -0.0355 C.ar    1  NONAME1     0.0547
     17 N3          2.6996   -2.7985    0.1675 N.am    1  NONAME1    -0.2824
     18 C13         1.5257   -2.1096    0.1385 C.2     1  NONAME1     0.2380
     19 O3          0.4697   -2.7197   -0.0188 O.2     1  NONAME1    -0.2734
     20 C14         1.6527   -0.6154    0.4887 C.3     1  NONAME1     0.1043
     21 C15         0.2892    0.0715    0.2072 C.3     1  NONAME1    -0.0005
     22 C16        -0.8000   -0.0987    1.2619 C.ar    1  NONAME1    -0.0451
     23 C17        -1.9805    0.6514    1.1245 C.ar    1  NONAME1    -0.0585
     24 C18        -3.0215    0.5339    2.0502 C.ar    1  NONAME1    -0.0615
     25 C19        -2.9027   -0.3391    3.1275 C.ar    1  NONAME1    -0.0617
     26 C20        -1.7460   -1.0959    3.2762 C.ar    1  NONAME1    -0.0615
     27 C21        -0.7056   -0.9779    2.3514 C.ar    1  NONAME1    -0.0585
     28 C22         4.1607    3.5917   -0.5083 C.ar    1  NONAME1    -0.0564
     29 C23         5.2748    4.4381   -0.4947 C.ar    1  NONAME1    -0.0493
     30 H1          6.5836    6.6852   -0.2151 H       1  NONAME1     0.1825
     31 H2          9.1058    7.0587    0.4895 H       1  NONAME1     0.2414
     32 H3          7.3057    2.5739    1.4968 H       1  NONAME1     0.0625
     33 H4          5.2964    1.1469    1.5639 H       1  NONAME1     0.0621
     34 H5          2.2263    1.9961   -0.5708 H       1  NONAME1     0.0513
     35 H6          2.4363    1.6744    1.1414 H       1  NONAME1     0.0513
     36 H7          5.2884    0.6549   -1.2862 H       1  NONAME1     0.0637
     37 H8          7.2859   -0.7309   -1.2090 H       1  NONAME1     0.0618
     38 H9          7.1739   -3.0773   -0.4024 H       1  NONAME1     0.0618
     39 H10         4.9833   -4.0323    0.2163 H       1  NONAME1     0.0637
     40 H11         2.6316   -3.8021    0.0710 H       1  NONAME1     0.1549
     41 H12         1.8678   -0.5717    1.5647 H       1  NONAME1     0.0599
     42 H13        -0.1087   -0.2764   -0.7559 H       1  NONAME1     0.0336
     43 H14         0.4179    1.1529    0.1030 H       1  NONAME1     0.0336
     44 H15        -2.1012    1.3316    0.2839 H       1  NONAME1     0.0620
     45 H16        -3.9290    1.1184    1.9249 H       1  NONAME1     0.0618
     46 H17        -3.7126   -0.4391    3.8443 H       1  NONAME1     0.0618
     47 H18        -1.6515   -1.7918    4.1058 H       1  NONAME1     0.0618
     48 H19         0.1617   -1.6128    2.5044 H       1  NONAME1     0.0620
     49 H20         3.2834    3.9036   -1.0744 H       1  NONAME1     0.0621
     50 H21         5.2282    5.3503   -1.0813 H       1  NONAME1     0.0625
@<TRIPOS>BOND
     1     1     2    2
     2     2     3   am
     3     3     4    1
     4     2     5    1
     5     5     6   ar
     6     6     7   ar
     7     7     8   ar
     8     8     9    1
     9     9    10    1
    10    10    11    1
    11    11    12   ar
    12    12    13   ar
    13    13    14   ar
    14    14    15   ar
    15    15    16   ar
    16    11    16   ar
    17    16    17    1
    18    17    18   am
    19    18    19    2
    20    20    18    1
    21    20    10    1
    22    20    21    1
    23    21    22    1
    24    22    23   ar
    25    23    24   ar
    26    24    25   ar
    27    25    26   ar
    28    26    27   ar
    29    22    27   ar
    30     8    28   ar
    31    28    29   ar
    32     5    29   ar
    33     3    30    1
    34     4    31    1
    35     6    32    1
    36     7    33    1
    37     9    34    1
    38     9    35    1
    39    12    36    1
    40    13    37    1
    41    14    38    1
    42    15    39    1
    43    17    40    1
    44    20    41    1
    45    21    42    1
    46    21    43    1
    47    23    44    1
    48    24    45    1
    49    25    46    1
    50    26    47    1
    51    27    48    1
    52    28    49    1
    53    29    50    1
