@<TRIPOS>MOLECULE
*****
 72 75 0 0 0
SMALL
USER_CHARGES

@<TRIPOS>ATOM
      1 O1          2.6994  -10.0355   -1.9704 O.2     1  NONAME1    -0.2265
      2 C1          3.4025  -10.0778   -0.9723 C.2     1  NONAME1     0.4012
      3 N1          3.6389  -11.2294   -0.2456 N.am    1  NONAME1    -0.2698
      4 C2          2.5716  -12.2647    0.0000 C.3     1  NONAME1     0.1028
      5 C3          1.0281  -12.5337   -0.2555 C.3     1  NONAME1    -0.0259
      6 C4          0.1117  -12.1105    0.9717 C.3     1  NONAME1    -0.0509
      7 C5          0.2135  -10.6318    1.4418 C.3     1  NONAME1    -0.0530
      8 C6         -0.8124  -10.1338    2.4681 C.3     1  NONAME1    -0.0523
      9 C7         -0.3481  -10.2049    3.9286 C.3     1  NONAME1    -0.0432
     10 C8         -0.4254  -11.6076    4.5159 C.3     1  NONAME1     0.0043
     11 S1          0.3993  -11.7260    6.1409 S.3     1  NONAME1    -0.0866
     12 S2         -0.9754  -10.9291    7.4443 S.3     1  NONAME1    -0.0372
     13 C9         -0.6749   -9.1741    7.5614 C.ar    1  NONAME1     0.1072
     14 C10         0.4156   -8.5195    6.9979 C.ar    1  NONAME1    -0.0290
     15 C11         0.5286   -7.1361    7.1375 C.ar    1  NONAME1    -0.0578
     16 C12        -0.4310   -6.4430    7.8606 C.ar    1  NONAME1    -0.0435
     17 C13        -1.4716   -7.1655    8.4110 C.ar    1  NONAME1     0.0289
     18 N2         -1.6155   -8.5002    8.2659 N.ar    1  NONAME1    -0.2480
     19 C14         3.3416  -13.5984    0.0000 C.2     1  NONAME1     0.2391
     20 O2          2.6872  -14.5575    0.4380 O.2     1  NONAME1    -0.2734
     21 N3          4.6752  -13.7037   -0.3161 N.am    1  NONAME1    -0.2631
     22 C15         5.3737  -14.9110   -0.2768 C.ar    1  NONAME1     0.1650
     23 N4          6.6893  -15.0300   -0.2440 N.ar    1  NONAME1    -0.2246
     24 C16         7.0525  -16.3913   -0.1621 C.ar    1  NONAME1     0.0802
     25 C17         8.4429  -16.8693   -0.0920 C.ar    1  NONAME1     0.0009
     26 C18         9.5131  -15.9641   -0.1046 C.ar    1  NONAME1    -0.0525
     27 C19        10.8376  -16.4210   -0.0629 C.ar    1  NONAME1    -0.0611
     28 C20        11.1168  -17.7881   -0.0085 C.ar    1  NONAME1    -0.0617
     29 C21        10.0711  -18.7017    0.0105 C.ar    1  NONAME1    -0.0611
     30 C22         8.7498  -18.2445   -0.0296 C.ar    1  NONAME1    -0.0525
     31 C23         5.9783  -17.2587   -0.1671 C.ar    1  NONAME1     0.0049
     32 S3          4.5292  -16.4055   -0.3593 S.2     1  NONAME1    -0.0599
     33 O3          3.8355   -8.9894   -0.2660 O.3     1  NONAME1    -0.4456
     34 C24         2.9672   -7.8376   -0.3795 C.3     1  NONAME1     0.1191
     35 C25         3.6171   -6.4765   -0.2020 C.ar    1  NONAME1    -0.0103
     36 C26         2.7966   -5.3340   -0.1800 C.ar    1  NONAME1    -0.0554
     37 C27         3.3370   -4.0472   -0.0765 C.ar    1  NONAME1    -0.0614
     38 C28         4.7152   -3.8828    0.0110 C.ar    1  NONAME1    -0.0617
     39 C29         5.5459   -5.0037    0.0046 C.ar    1  NONAME1    -0.0614
     40 C30         5.0031   -6.2938   -0.1017 C.ar    1  NONAME1    -0.0554
     41 H1          4.1305  -10.9808    0.6048 H       1  NONAME1     0.1528
     42 H2          1.8016  -10.9310    0.0000 H       1  NONAME1     0.0596
     43 H3          0.8214  -13.5929   -0.4436 H       1  NONAME1     0.0288
     44 H4          0.6934  -12.0286   -1.1733 H       1  NONAME1     0.0288
     45 H5          0.3521  -12.7727    1.8079 H       1  NONAME1     0.0266
     46 H6         -0.9293  -12.3106    0.6920 H       1  NONAME1     0.0266
     47 H7          1.2171  -10.4343    1.8416 H       1  NONAME1     0.0265
     48 H8          0.0851   -9.9946    0.5555 H       1  NONAME1     0.0265
     49 H9         -1.7836  -10.6179    2.3319 H       1  NONAME1     0.0266
     50 H10        -0.9681   -9.0646    2.2583 H       1  NONAME1     0.0266
     51 H11         0.6720   -9.8058    4.0019 H       1  NONAME1     0.0273
     52 H12        -0.9896   -9.5338    4.5131 H       1  NONAME1     0.0273
     53 H13        -1.4643  -11.9449    4.5927 H       1  NONAME1     0.0385
     54 H14         0.0978  -12.3147    3.8718 H       1  NONAME1     0.0385
     55 H15         1.1809   -9.0522    6.4482 H       1  NONAME1     0.0644
     56 H16         1.3641   -6.6067    6.6882 H       1  NONAME1     0.0619
     57 H17        -0.3666   -5.3694    7.9949 H       1  NONAME1     0.0633
     58 H18        -2.2432   -6.6794    9.0011 H       1  NONAME1     0.0830
     59 H19         5.2296  -12.8660   -0.4183 H       1  NONAME1     0.1568
     60 H20         9.3229  -14.8946   -0.1580 H       1  NONAME1     0.0624
     61 H21        11.6564  -15.7081   -0.0786 H       1  NONAME1     0.0618
     62 H22        12.1459  -18.1396    0.0171 H       1  NONAME1     0.0618
     63 H23        10.2760  -19.7692    0.0524 H       1  NONAME1     0.0618
     64 H24         7.9716  -19.0022   -0.0200 H       1  NONAME1     0.0624
     65 H25         5.9510  -18.3349   -0.1030 H       1  NONAME1     0.0716
     66 H26         2.4398   -7.8204   -1.3384 H       1  NONAME1     0.0749
     67 H27         2.2233   -7.9374    0.4225 H       1  NONAME1     0.0749
     68 H28         1.7146   -5.4340   -0.2597 H       1  NONAME1     0.0621
     69 H29         2.6839   -3.1770   -0.0781 H       1  NONAME1     0.0618
     70 H30         5.1420   -2.8844    0.0787 H       1  NONAME1     0.0618
     71 H31         6.6232   -4.8681    0.0721 H       1  NONAME1     0.0618
     72 H32         5.6771   -7.1453   -0.1188 H       1  NONAME1     0.0621
@<TRIPOS>BOND
     1     1     2    2
     2     2     3   am
     3     4     3    1
     4     4     5    1
     5     5     6    1
     6     6     7    1
     7     7     8    1
     8     8     9    1
     9     9    10    1
    10    10    11    1
    11    11    12    1
    12    12    13    1
    13    13    14   ar
    14    14    15   ar
    15    15    16   ar
    16    16    17   ar
    17    17    18   ar
    18    13    18   ar
    19     4    19    1
    20    19    20    2
    21    19    21   am
    22    21    22    1
    23    22    23   ar
    24    23    24   ar
    25    24    25    1
    26    25    26   ar
    27    26    27   ar
    28    27    28   ar
    29    28    29   ar
    30    29    30   ar
    31    25    30   ar
    32    24    31   ar
    33    31    32   ar
    34    22    32   ar
    35     2    33    1
    36    33    34    1
    37    34    35    1
    38    35    36   ar
    39    36    37   ar
    40    37    38   ar
    41    38    39   ar
    42    39    40   ar
    43    35    40   ar
    44     3    41    1
    45     4    42    1
    46     5    43    1
    47     5    44    1
    48     6    45    1
    49     6    46    1
    50     7    47    1
    51     7    48    1
    52     8    49    1
    53     8    50    1
    54     9    51    1
    55     9    52    1
    56    10    53    1
    57    10    54    1
    58    14    55    1
    59    15    56    1
    60    16    57    1
    61    17    58    1
    62    21    59    1
    63    26    60    1
    64    27    61    1
    65    28    62    1
    66    29    63    1
    67    30    64    1
    68    31    65    1
    69    34    66    1
    70    34    67    1
    71    36    68    1
    72    37    69    1
    73    38    70    1
    74    39    71    1
    75    40    72    1
