REMARK  5 active torsions:
REMARK  status: ('A' for Active; 'I' for Inactive)
REMARK    1  A    between atoms: C4_4  and  C2_2 
REMARK    2  A    between atoms: C14_24  and  C15_25 
REMARK    3  A    between atoms: C16_26  and  C17_27 
REMARK    4  A    between atoms: C17_27  and  C18_28 
REMARK    5  A    between atoms: C18_28  and  S2_29 
ROOT
ATOM      1  C4  NON d   1      15.162   5.553   0.000  0.00  0.00     0.187 C 
ATOM      2  N1  NON d   1      15.741   4.291   0.513  0.00  0.00    -0.345 N 
ATOM      3  C5  NON d   1      15.568   3.131  -0.240  0.00  0.00     0.239 C 
ATOM      4  O1  NON d   1      15.437   3.156  -1.462  0.00  0.00    -0.272 OA
ATOM      5  C6  NON d   1      15.561   1.835   0.534  0.00  0.00     0.272 C 
ATOM      6  N2  NON d   1      14.341   1.101   0.280  0.00  0.00    -0.182 N 
ATOM      7  N3  NON d   1      14.351  -0.174  -0.162  0.00  0.00     0.025 NA
ATOM      8  N4  NON d   1      13.072  -0.522  -0.223  0.00  0.00    -0.134 NA
ATOM      9  C7  NON d   1      12.356   0.549   0.248  0.00  0.00     0.216 C 
ATOM     10  N5  NON d   1      13.132   1.569   0.650  0.00  0.00    -0.134 NA
ATOM     11  C8  NON d   1      10.889   0.564   0.193  0.00  0.00     0.115 C 
ATOM     12  C9  NON d   1      10.063  -0.458  -0.232  0.00  0.00     0.087 C 
ATOM     13  S1  NON d   1       8.441   0.107  -0.333  0.00  0.00    -0.083 SA
ATOM     14  C10 NON d   1       8.968   1.665   0.162  0.00  0.00     0.093 C 
ATOM     15  N6  NON d   1      10.236   1.734   0.526  0.00  0.00    -0.240 NA
ATOM     16  C11 NON d   1       8.045   2.850   0.136  0.00  0.00     0.189 C 
ATOM     17  N7  NON d   1       8.707   3.968   0.790  0.00  0.00    -0.355 N 
ATOM     18  C12 NON d   1       9.766   4.611   0.148  0.00  0.00     0.220 C 
ATOM     19  O2  NON d   1       9.956   4.561  -1.059  0.00  0.00    -0.274 OA
ATOM     20  C13 NON d   1      10.651   5.342   1.139  0.00  0.00     0.139 C 
ATOM     21  C14 NON d   1      11.553   6.474   0.625  0.00  0.00     0.163 C 
ATOM     22  O3  NON d   1      12.757   6.064  -0.062  0.00  0.00    -0.310 OA
ATOM     23  C19 NON d   1      13.794   5.709   0.754  0.00  0.00     0.282 C 
ATOM     24  O4  NON d   1      13.683   5.530   1.966  0.00  0.00    -0.263 OA
ATOM     25  H9  NON d   1      15.674   4.191   1.522  0.00  0.00     0.163 HD
ATOM     26  H15 NON d   1       8.793   3.879   1.794  0.00  0.00     0.162 HD
ENDROOT
BRANCH  21  27
ATOM     27  C15 NON d   1      10.921   7.623  -0.128  0.00  0.00     0.002 C 
ATOM     28  C16 NON d   1       9.633   7.772  -0.484  0.00  0.00    -0.027 C 
BRANCH  28  29
ATOM     29  C17 NON d   1       8.976   9.056  -0.930  0.00  0.00     0.037 C 
BRANCH  29  30
ATOM     30  C18 NON d   1       9.716  10.317  -0.482  0.00  0.00     0.074 C 
BRANCH  30  31
ATOM     31  S2  NON d   1       8.660  11.788  -0.582  0.00  0.00    -0.182 SA
ATOM     32  H25 NON d   1       9.517  12.620   0.029  0.00  0.00     0.101 HD
ENDBRANCH  30  31
ENDBRANCH  29  30
ENDBRANCH  28  29
ENDBRANCH  21  27
BRANCH   1  33
ATOM     33  C2  NON d   1      16.114   6.763   0.000  0.00  0.00     0.010 C 
ATOM     34  C1  NON d   1      16.273   7.035   1.560  0.00  0.00     0.012 C 
ATOM     35  C3  NON d   1      15.229   7.784  -0.844  0.00  0.00     0.012 C 
ENDBRANCH   1  33
TORSDOF 5
