@<TRIPOS>MOLECULE
*****
 48 50 0 0 0
SMALL
USER_CHARGES

@<TRIPOS>ATOM
      1 O1          5.9803    0.1655   -1.3259 O.2     1  NONAME1    -0.2708
      2 C1          6.1348    1.0878   -0.5310 C.2     1  NONAME1     0.2375
      3 C2          4.9846    1.9808   -0.2422 C.2     1  NONAME1     0.0084
      4 C3          4.8936    3.3158   -0.1011 C.2     1  NONAME1    -0.0047
      5 C4          3.5559    3.9758    0.0365 C.ar    1  NONAME1    -0.0094
      6 C5          2.2569    3.4861    0.0399 C.ar    1  NONAME1    -0.0534
      7 C6          1.1994    4.4002    0.1045 C.ar    1  NONAME1    -0.0611
      8 C7          1.4442    5.7801    0.1680 C.ar    1  NONAME1    -0.0611
      9 C8          2.7515    6.2709    0.1757 C.ar    1  NONAME1    -0.0534
     10 C9          3.8021    5.3652    0.1108 C.ar    1  NONAME1    -0.0096
     11 C10         5.2340    5.6121    0.0493 C.ar    1  NONAME1    -0.0096
     12 C11         5.9157    6.8230    0.1074 C.ar    1  NONAME1    -0.0534
     13 C12         7.3053    6.8165   -0.0077 C.ar    1  NONAME1    -0.0611
     14 C13         7.9921    5.6130   -0.1969 C.ar    1  NONAME1    -0.0611
     15 C14         7.3014    4.3988   -0.2610 C.ar    1  NONAME1    -0.0534
     16 C15         5.9274    4.3885   -0.1136 C.ar    1  NONAME1    -0.0094
     17 N1          7.2745    1.2822    0.1971 N.am    1  NONAME1    -0.3118
     18 C16         8.4224    0.3980    0.0669 C.3     1  NONAME1     0.0119
     19 C17         9.7562    1.1491    0.1255 C.3     1  NONAME1    -0.0374
     20 C18        10.1120    1.8447   -1.1948 C.3     1  NONAME1    -0.0512
     21 C19        11.2562    2.8618   -1.0608 C.3     1  NONAME1    -0.0447
     22 C20        12.6506    2.2725   -1.2684 C.3     1  NONAME1     0.0259
     23 C21        13.2177    1.4971   -0.0904 C.2     1  NONAME1     0.2354
     24 O2         12.7969    1.6029    1.0536 O.2     1  NONAME1    -0.2737
     25 N2         14.3225    0.7506   -0.4658 N.am    1  NONAME1    -0.1975
     26 O3         14.7802   -0.1742    0.4999 O.3     1  NONAME1    -0.2952
     27 H1          4.0697    1.3924   -0.2614 H       1  NONAME1     0.0676
     28 H2          2.0433    2.4254   -0.0283 H       1  NONAME1     0.0624
     29 H3          0.1730    4.0396    0.0895 H       1  NONAME1     0.0618
     30 H4          0.6079    6.4750    0.1986 H       1  NONAME1     0.0618
     31 H5          2.9305    7.3403    0.2085 H       1  NONAME1     0.0624
     32 H6          5.3877    7.7609    0.2380 H       1  NONAME1     0.0624
     33 H7          7.8585    7.7512    0.0389 H       1  NONAME1     0.0618
     34 H8          9.0749    5.6195   -0.2992 H       1  NONAME1     0.0618
     35 H9          7.8616    3.4984   -0.4378 H       1  NONAME1     0.0624
     36 H10         7.2285    1.9011    0.9974 H       1  NONAME1     0.1490
     37 H11         8.3541   -0.1852   -0.8581 H       1  NONAME1     0.0462
     38 H12         8.3622   -0.3039    0.9056 H       1  NONAME1     0.0462
     39 H13        10.5437    0.4229    0.3538 H       1  NONAME1     0.0280
     40 H14         9.7316    1.8769    0.9449 H       1  NONAME1     0.0280
     41 H15         9.2352    2.3777   -1.5745 H       1  NONAME1     0.0266
     42 H16        10.3525    1.0956   -1.9588 H       1  NONAME1     0.0266
     43 H17        11.1130    3.6134   -1.8487 H       1  NONAME1     0.0270
     44 H18        11.1900    3.4010   -0.1088 H       1  NONAME1     0.0270
     45 H19        13.3503    3.0978   -1.4524 H       1  NONAME1     0.0359
     46 H20        12.6560    1.6367   -2.1605 H       1  NONAME1     0.0359
     47 H21        14.4054    0.4340   -1.4262 H       1  NONAME1     0.1822
     48 H22        15.4854    0.3265    0.9506 H       1  NONAME1     0.2414
@<TRIPOS>BOND
     1     1     2    2
     2     2     3    1
     3     3     4    2
     4     4     5    1
     5     5     6   ar
     6     6     7   ar
     7     7     8   ar
     8     8     9   ar
     9     9    10   ar
    10     5    10   ar
    11    10    11    1
    12    11    12   ar
    13    12    13   ar
    14    13    14   ar
    15    14    15   ar
    16    15    16   ar
    17    11    16   ar
    18     4    16    1
    19     2    17   am
    20    17    18    1
    21    18    19    1
    22    19    20    1
    23    20    21    1
    24    21    22    1
    25    22    23    1
    26    23    24    2
    27    23    25   am
    28    25    26    1
    29     3    27    1
    30     6    28    1
    31     7    29    1
    32     8    30    1
    33     9    31    1
    34    12    32    1
    35    13    33    1
    36    14    34    1
    37    15    35    1
    38    17    36    1
    39    18    37    1
    40    18    38    1
    41    19    39    1
    42    19    40    1
    43    20    41    1
    44    20    42    1
    45    21    43    1
    46    21    44    1
    47    22    45    1
    48    22    46    1
    49    25    47    1
    50    26    48    1
