@<TRIPOS>MOLECULE
*****
 49 53 0 0 0
SMALL
USER_CHARGES

@<TRIPOS>ATOM
      1 O1        -10.3824   -9.0395    0.0795 O.2     1  NONAME1    -0.2680
      2 C1         -9.3752   -9.7352   -0.0356 C.2     1  NONAME1     0.2694
      3 N1         -9.4547  -11.1083   -0.0568 N.am    1  NONAME1    -0.1934
      4 O2        -10.7592  -11.6479    0.0255 O.3     1  NONAME1    -0.2949
      5 C2         -8.0506   -9.1046   -0.1589 C.ar    1  NONAME1     0.0749
      6 C3         -7.9365   -7.7330   -0.1629 C.ar    1  NONAME1     0.0448
      7 N2         -6.7565   -7.0724   -0.2569 N.ar    1  NONAME1    -0.2220
      8 C4         -5.6372   -7.8069   -0.3500 C.ar    1  NONAME1     0.2178
      9 N3         -4.4160   -7.1600   -0.4156 N.pl3   1  NONAME1    -0.2987
     10 C5         -4.3708   -5.7957    0.0922 C.3     1  NONAME1     0.0233
     11 C6         -2.9295   -5.6104    0.4809 C.3     1  NONAME1     0.0274
     12 C7         -2.2490   -6.9346    0.3846 C.3     1  NONAME1     0.0274
     13 C8         -3.2428   -7.9544   -0.0805 C.3     1  NONAME1     0.0233
     14 C9         -1.8108   -5.8083   -0.5108 C.3     1  NONAME1    -0.0126
     15 N4         -0.5175   -5.1770   -0.1551 N.4     1  NONAME1     0.2340
     16 C10         0.4965   -5.0827   -1.2561 C.3     1  NONAME1     0.0099
     17 C11         1.1999   -6.3917   -1.5377 C.ar    1  NONAME1     0.0863
     18 C12         2.1151   -6.4777   -2.5788 C.ar    1  NONAME1    -0.0346
     19 C13         2.7491   -7.6936   -2.8032 C.ar    1  NONAME1    -0.0506
     20 C14         2.4561   -8.7948   -1.9926 C.ar    1  NONAME1     0.0031
     21 C15         3.0655  -10.0411   -2.2088 C.ar    1  NONAME1    -0.0173
     22 C16         2.7466  -11.1157   -1.3916 C.ar    1  NONAME1     0.1241
     23 F1          3.3269  -12.3031   -1.6034 F       1  NONAME1    -0.2055
     24 C17         1.8330  -10.9687   -0.3598 C.ar    1  NONAME1    -0.0244
     25 C18         1.2337   -9.7224   -0.1429 C.ar    1  NONAME1    -0.0330
     26 C19         1.5234   -8.6223   -0.9440 C.ar    1  NONAME1     0.0717
     27 N5          0.9162   -7.4372   -0.7112 N.ar    1  NONAME1    -0.2463
     28 N6         -5.6561   -9.1513   -0.3692 N.ar    1  NONAME1    -0.2220
     29 C20        -6.8559   -9.7710   -0.2679 C.ar    1  NONAME1     0.0448
     30 H1         -8.7100  -11.7766   -0.2089 H       1  NONAME1     0.1825
     31 H2        -11.3182  -10.8410    0.0800 H       1  NONAME1     0.2414
     32 H3         -8.8116   -7.0912   -0.0837 H       1  NONAME1     0.0839
     33 H4         -4.9961   -5.6554    0.9821 H       1  NONAME1     0.0469
     34 H5         -4.6648   -5.0761   -0.6795 H       1  NONAME1     0.0469
     35 H6         -2.7953   -5.0016    1.3618 H       1  NONAME1     0.0376
     36 H7         -1.6247   -7.2823    1.1932 H       1  NONAME1     0.0376
     37 H8         -2.8697   -8.4969   -0.9557 H       1  NONAME1     0.0469
     38 H9         -3.4281   -8.6601    0.7381 H       1  NONAME1     0.0469
     39 H10        -2.0821   -5.8484   -1.5645 H       1  NONAME1     0.0857
     40 H11        -0.0631   -5.7641    0.5621 H       1  NONAME1     0.2020
     41 H12        -0.6775   -4.2508    0.2543 H       1  NONAME1     0.2020
     42 H13        -0.0111   -4.6933   -2.1441 H       1  NONAME1     0.0882
     43 H14         1.2367   -4.3519   -0.9123 H       1  NONAME1     0.0882
     44 H15         2.3447   -5.6259   -3.2123 H       1  NONAME1     0.0638
     45 H16         3.4707   -7.7809   -3.6145 H       1  NONAME1     0.0625
     46 H17         3.7823  -10.1919   -3.0111 H       1  NONAME1     0.0653
     47 H18         1.5907  -11.8213    0.2684 H       1  NONAME1     0.0647
     48 H19         0.5225   -9.6191    0.6723 H       1  NONAME1     0.0640
     49 H20        -6.7852  -10.8529   -0.2737 H       1  NONAME1     0.0839
@<TRIPOS>BOND
     1     1     2    2
     2     2     3   am
     3     3     4    1
     4     2     5    1
     5     5     6   ar
     6     6     7   ar
     7     7     8   ar
     8     8     9    1
     9     9    10    1
    10    11    10    1
    11    11    12    1
    12    12    13    1
    13     9    13    1
    14    12    14    1
    15    11    14    1
    16    14    15    1
    17    15    16    1
    18    16    17    1
    19    17    18   ar
    20    18    19   ar
    21    19    20   ar
    22    20    21   ar
    23    21    22   ar
    24    22    23    1
    25    22    24   ar
    26    24    25   ar
    27    25    26   ar
    28    20    26   ar
    29    26    27   ar
    30    17    27   ar
    31     8    28   ar
    32    28    29   ar
    33     5    29   ar
    34     3    30    1
    35     4    31    1
    36     6    32    1
    37    10    33    1
    38    10    34    1
    39    11    35    1
    40    12    36    1
    41    13    37    1
    42    13    38    1
    43    14    39    1
    44    15    40    1
    45    15    41    1
    46    16    42    1
    47    16    43    1
    48    18    44    1
    49    19    45    1
    50    21    46    1
    51    24    47    1
    52    25    48    1
    53    29    49    1
