REMARK  5 active torsions:
REMARK  status: ('A' for Active; 'I' for Inactive)
REMARK    1  A    between atoms: N1_1  and  C1_2 
REMARK    2  A    between atoms: C4_5  and  C5_6 
REMARK    3  A    between atoms: C10_12  and  N2_13 
REMARK       I    between atoms: N2_13  and  C11_14 
REMARK    4  A    between atoms: C11_14  and  C12_16 
REMARK    5  A    between atoms: C15_19  and  N3_20 
ROOT
ATOM      1  C12 NON d   1       9.818   0.612   0.173  0.00  0.00     0.050 A 
ATOM      2  C13 NON d   1       9.111  -0.555   0.449  0.00  0.00     0.022 A 
ATOM      3  C14 NON d   1       7.721  -0.522   0.548  0.00  0.00     0.051 A 
ATOM      4  C15 NON d   1       7.030   0.674   0.345  0.00  0.00     0.125 A 
ATOM      5  N5  NON d   1       7.709   1.823   0.120  0.00  0.00    -0.242 NA
ATOM      6  C24 NON d   1       9.072   1.769   0.032  0.00  0.00     0.136 A 
ENDROOT
BRANCH   1   7
ATOM      7  C11 NON d   1      11.290   0.511  -0.016  0.00  0.00     0.257 C 
ATOM      8  N2  NON d   1      12.042   1.663   0.132  0.00  0.00    -0.321 N 
ATOM      9  H9  NON d   1      11.596   2.531   0.400  0.00  0.00     0.169 HD
ATOM     10  O1  NON d   1      11.732  -0.597  -0.303  0.00  0.00    -0.267 OA
BRANCH   8  11
ATOM     11  C10 NON d   1      13.460   1.761   0.092  0.00  0.00     0.057 A 
ATOM     12  C9  NON d   1      14.315   0.649   0.051  0.00  0.00     0.044 A 
ATOM     13  C4  NON d   1      15.716   0.776   0.129  0.00  0.00    -0.017 A 
ATOM     14  C3  NON d   1      16.232   2.074   0.261  0.00  0.00     0.014 A 
ATOM     15  C2  NON d   1      15.395   3.196   0.286  0.00  0.00     0.026 A 
ATOM     16  C1  NON d   1      14.013   3.054   0.152  0.00  0.00     0.033 A 
BRANCH  13  17
ATOM     17  C5  NON d   1      16.628  -0.398   0.097  0.00  0.00     0.015 A 
ATOM     18  C6  NON d   1      18.016  -0.429   0.057  0.00  0.00     0.020 A 
ATOM     19  C7  NON d   1      18.558  -1.750   0.037  0.00  0.00     0.008 A 
ATOM     20  C8  NON d   1      17.573  -2.706   0.061  0.00  0.00     0.050 A 
ATOM     21  S1  NON d   1      16.018  -2.014   0.114  0.00  0.00    -0.101 SA
ENDBRANCH  13  17
BRANCH  16  22
ATOM     22  N1  NON d   1      13.179   4.197   0.179  0.00  0.00    -0.301 NA
ATOM     23  H1  NON d   1      13.709   5.061   0.101  0.00  0.00     0.124 HD
ATOM     24  H2  NON d   1      12.489   4.150  -0.568  0.00  0.00     0.124 HD
ENDBRANCH  16  22
ENDBRANCH   8  11
ENDBRANCH   1   7
BRANCH   4  25
ATOM     25  N3  NON d   1       5.623   0.681   0.367  0.00  0.00    -0.366 N 
ATOM     26  C16 NON d   1       4.995  -0.414  -0.379  0.00  0.00     0.125 C 
ATOM     27  C17 NON d   1       3.773   0.069  -1.157  0.00  0.00     0.031 C 
ATOM     28  C18 NON d   1       2.777   0.827  -0.268  0.00  0.00    -0.012 C 
ATOM     29  C19 NON d   1       1.931  -0.138   0.586  0.00  0.00     0.039 C 
ATOM     30  C21 NON d   1       1.690   1.477  -1.128  0.00  0.00     0.241 C 
ATOM     31  C22 NON d   1       3.508   1.873   0.623  0.00  0.00     0.031 C 
ATOM     32  C20 NON d   1       0.621   0.586   0.860  0.00  0.00     0.233 C 
ATOM     33  N4  NON d   1       0.543   1.656  -0.185  0.00  0.00    -0.074 N 
ATOM     34  H20 NON d   1      -0.357   1.632  -0.685  0.00  0.00     0.277 HD
ATOM     35  H21 NON d   1       0.598   2.581   0.265  0.00  0.00     0.277 HD
ATOM     36  C23 NON d   1       5.006   2.003   0.299  0.00  0.00     0.125 C 
ENDBRANCH   4  25
TORSDOF 5
