@<TRIPOS>MOLECULE
*****
 63 64 0 0 0
SMALL
USER_CHARGES

@<TRIPOS>ATOM
      1 C1          5.3347   -4.6200    0.0000 C.3     1  NONAME1    -0.0572
      2 C2          4.0010   -5.3900    0.0000 C.3     1  NONAME1    -0.0035
      3 C3          4.0010   -6.9300    0.0000 C.3     1  NONAME1    -0.0572
      4 C4          2.5157   -4.6802   -0.1731 C.ar    1  NONAME1     0.0566
      5 N1          1.2793   -5.3818    0.0395 N.ar    1  NONAME1    -0.2172
      6 C5          0.0792   -4.7013   -0.0890 C.ar    1  NONAME1     0.2377
      7 N2         -1.3337   -5.3900    0.0000 N.pl3   1  NONAME1    -0.1777
      8 C6         -1.3337   -6.9300    0.0000 C.3     1  NONAME1     0.0261
      9 S1         -2.4305   -4.6547    1.0447 S.O2    1  NONAME1     0.0446
     10 C7         -3.3884   -3.7243   -0.1228 C.3     1  NONAME1     0.0739
     11 O1         -3.3073   -5.6885    1.5651 O.2     1  NONAME1    -0.1552
     12 O2         -1.7626   -3.7462    1.9530 O.2     1  NONAME1    -0.1552
     13 N3          0.0803   -3.3959   -0.4145 N.ar    1  NONAME1    -0.2125
     14 C8          1.2980   -2.7080   -0.5911 C.ar    1  NONAME1     0.0835
     15 C9          1.1161   -1.1989   -0.5545 C.ar    1  NONAME1     0.0013
     16 C10        -0.1318   -0.6399   -0.1900 C.ar    1  NONAME1    -0.0498
     17 C11        -0.3226    0.7404   -0.0173 C.ar    1  NONAME1    -0.0258
     18 C12         0.7422    1.6065   -0.1892 C.ar    1  NONAME1     0.1234
     19 F1          0.5798    2.9196    0.0160 F       1  NONAME1    -0.2055
     20 C13         1.9769    1.1186   -0.5729 C.ar    1  NONAME1    -0.0258
     21 C14         2.1468   -0.2594   -0.7820 C.ar    1  NONAME1    -0.0498
     22 C15         2.5696   -3.3427   -0.6077 C.ar    1  NONAME1     0.0224
     23 C16         3.9311   -2.6866   -0.5285 C.2     1  NONAME1    -0.0523
     24 C17         5.2335   -2.6600   -1.1159 C.2     1  NONAME1    -0.0551
     25 C18         6.6684   -2.3100    0.0000 C.3     1  NONAME1     0.0760
     26 O3          7.2379   -1.0676   -0.6542 O.3     1  NONAME1    -0.3877
     27 C19         8.0021   -3.0800    0.0000 C.3     1  NONAME1     0.0033
     28 C20         8.5675   -3.5505    1.3807 C.3     1  NONAME1     0.0662
     29 O4          9.3260   -4.7459    1.1940 O.3     1  NONAME1    -0.3912
     30 C21         7.6584   -3.6356    2.6158 C.3     1  NONAME1     0.0520
     31 C22         6.8468   -4.9096    2.7709 C.2     1  NONAME1     0.2379
     32 O5          7.1319   -5.9524    2.1847 O.2     1  NONAME1    -0.2736
     33 N4          5.7457   -4.7301    3.5867 N.am    1  NONAME1    -0.1974
     34 O6          4.9476   -5.8575    3.8555 O.3     1  NONAME1    -0.2952
     35 H1          5.9928   -5.5000   -0.1492 H       1  NONAME1     0.0236
     36 H2          6.6684   -3.8500    0.0000 H       1  NONAME1     0.0236
     37 H3          5.2592   -4.3798    1.0714 H       1  NONAME1     0.0236
     38 H4          4.0326   -5.4221   -1.1157 H       1  NONAME1     0.0359
     39 H5          3.0865   -7.0455    0.6155 H       1  NONAME1     0.0236
     40 H6          4.0010   -8.4700    0.0000 H       1  NONAME1     0.0236
     41 H7          4.8513   -7.0422    0.7041 H       1  NONAME1     0.0236
     42 H8         -2.2943   -7.0111   -0.5543 H       1  NONAME1     0.0447
     43 H9         -1.3337   -8.4700    0.0000 H       1  NONAME1     0.0447
     44 H10        -0.5383   -7.0336   -0.7680 H       1  NONAME1     0.0447
     45 H11        -2.8910   -2.7788   -0.3380 H       1  NONAME1     0.0482
     46 H12        -3.5110   -4.3122   -1.0362 H       1  NONAME1     0.0482
     47 H13        -4.3746   -3.5435    0.3118 H       1  NONAME1     0.0482
     48 H14        -0.9879   -1.2858   -0.0040 H       1  NONAME1     0.0625
     49 H15        -1.2927    1.1337    0.2696 H       1  NONAME1     0.0646
     50 H16         2.8090    1.8038   -0.7070 H       1  NONAME1     0.0646
     51 H17         3.1320   -0.5546   -1.1225 H       1  NONAME1     0.0625
     52 H18         3.8757   -2.3040    0.5088 H       1  NONAME1     0.0622
     53 H19         5.4913   -3.0814   -2.0841 H       1  NONAME1     0.0598
     54 H20         5.3347   -1.5400    0.0000 H       1  NONAME1     0.0638
     55 H21         7.5144   -0.4833    0.0720 H       1  NONAME1     0.2102
     56 H22         8.8079   -2.4030   -0.3400 H       1  NONAME1     0.0318
     57 H23         8.1442   -3.8416   -0.8006 H       1  NONAME1     0.0318
     58 H24         9.3184   -2.7959    1.6492 H       1  NONAME1     0.0599
     59 H25         8.7104   -5.5103    1.2304 H       1  NONAME1     0.2098
     60 H26         7.0047   -2.7575    2.6690 H       1  NONAME1     0.0384
     61 H27         8.3022   -3.6161    3.5066 H       1  NONAME1     0.0384
     62 H28         5.6215   -3.9285    4.1959 H       1  NONAME1     0.1822
     63 H29         4.0727   -5.5936    3.5132 H       1  NONAME1     0.2414
@<TRIPOS>BOND
     1     1     2    1
     2     2     3    1
     3     2     4    1
     4     4     5   ar
     5     5     6   ar
     6     6     7    1
     7     7     8    1
     8     7     9    1
     9     9    10    1
    10     9    11    2
    11     9    12    2
    12     6    13   ar
    13    13    14   ar
    14    14    15    1
    15    15    16   ar
    16    16    17   ar
    17    17    18   ar
    18    18    19    1
    19    18    20   ar
    20    20    21   ar
    21    15    21   ar
    22    14    22   ar
    23     4    22   ar
    24    22    23    1
    25    23    24    2
    26    25    24    1
    27    25    26    1
    28    25    27    1
    29    28    27    1
    30    28    29    1
    31    28    30    1
    32    30    31    1
    33    31    32    2
    34    31    33   am
    35    33    34    1
    36     1    35    1
    37     1    36    1
    38     1    37    1
    39     2    38    1
    40     3    39    1
    41     3    40    1
    42     3    41    1
    43     8    42    1
    44     8    43    1
    45     8    44    1
    46    10    45    1
    47    10    46    1
    48    10    47    1
    49    16    48    1
    50    17    49    1
    51    20    50    1
    52    21    51    1
    53    23    52    1
    54    24    53    1
    55    25    54    1
    56    26    55    1
    57    27    56    1
    58    27    57    1
    59    28    58    1
    60    29    59    1
    61    30    60    1
    62    30    61    1
    63    33    62    1
    64    34    63    1
