@<TRIPOS>MOLECULE
*****
 48 51 0 0 0
SMALL
USER_CHARGES

@<TRIPOS>ATOM
      1 O1         -9.7387   -7.3987    0.0496 O.2     1  NONAME1    -0.2680
      2 C1         -8.7047   -8.0672   -0.0255 C.2     1  NONAME1     0.2694
      3 N1         -8.7376   -9.4375   -0.0279 N.am    1  NONAME1    -0.1934
      4 O2        -10.0310  -10.0124    0.0270 O.3     1  NONAME1    -0.2949
      5 C2         -7.3975   -7.3937   -0.1196 C.ar    1  NONAME1     0.0749
      6 C3         -7.3283   -6.0228   -0.1529 C.ar    1  NONAME1     0.0448
      7 N2         -6.1678   -5.3319   -0.2217 N.ar    1  NONAME1    -0.2220
      8 C4         -5.0132   -6.0200   -0.2563 C.ar    1  NONAME1     0.2178
      9 N3         -3.8143   -5.3190   -0.3545 N.pl3   1  NONAME1    -0.2971
     10 C5         -3.8860   -3.9598    0.1883 C.3     1  NONAME1     0.0293
     11 C6         -2.6447   -3.1374   -0.1850 C.3     1  NONAME1     0.0363
     12 N4         -1.3337   -3.8500    0.0000 N.3     1  NONAME1    -0.1736
     13 S1          0.0000   -3.0800    0.0000 S.O2    1  NONAME1     0.0610
     14 O3         -0.5107   -2.1411    1.0084 O.2     1  NONAME1    -0.1528
     15 O4         -0.1663   -2.8643   -1.4458 O.2     1  NONAME1    -0.1528
     16 C7          1.3337   -2.3100    0.0000 C.ar    1  NONAME1     0.1061
     17 C8          1.5812   -1.1260   -0.7318 C.ar    1  NONAME1    -0.0348
     18 C9          2.8208   -0.4782   -0.7220 C.ar    1  NONAME1    -0.0522
     19 C10         3.8547   -0.9474    0.0905 C.ar    1  NONAME1    -0.0178
     20 C11         5.0928   -0.2879    0.1438 C.ar    1  NONAME1    -0.0540
     21 C12         6.0959   -0.7251    1.0106 C.ar    1  NONAME1    -0.0612
     22 C13         5.8748   -1.8343    1.8148 C.ar    1  NONAME1    -0.0612
     23 C14         4.6596   -2.5220    1.7443 C.ar    1  NONAME1    -0.0540
     24 C15         3.6367   -2.1027    0.8783 C.ar    1  NONAME1    -0.0160
     25 C16         2.4017   -2.7822    0.7930 C.ar    1  NONAME1    -0.0276
     26 C17        -1.3353   -5.3052   -0.2926 C.3     1  NONAME1     0.0363
     27 C18        -2.6288   -6.0434    0.1037 C.3     1  NONAME1     0.0293
     28 N5         -4.9924   -7.3652   -0.2337 N.ar    1  NONAME1    -0.2220
     29 C19        -6.1762   -8.0204   -0.1655 C.ar    1  NONAME1     0.0448
     30 H1         -7.9717  -10.0765   -0.1652 H       1  NONAME1     0.1825
     31 H2        -10.6165   -9.2223    0.0529 H       1  NONAME1     0.2414
     32 H3         -8.2225   -5.4045   -0.1239 H       1  NONAME1     0.0839
     33 H4         -3.9865   -4.0058    1.2830 H       1  NONAME1     0.0478
     34 H5         -4.7516   -3.4077   -0.1969 H       1  NONAME1     0.0478
     35 H6         -2.7306   -2.7987   -1.2228 H       1  NONAME1     0.0459
     36 H7         -2.6929   -2.2483    0.4543 H       1  NONAME1     0.0459
     37 H8          0.7907   -0.6998   -1.3516 H       1  NONAME1     0.0637
     38 H9          2.9535    0.4097   -1.3331 H       1  NONAME1     0.0624
     39 H10         5.2749    0.5952   -0.4687 H       1  NONAME1     0.0624
     40 H11         7.0365   -0.1941    1.0544 H       1  NONAME1     0.0618
     41 H12         6.6470   -2.1650    2.5056 H       1  NONAME1     0.0618
     42 H13         4.5101   -3.3840    2.3927 H       1  NONAME1     0.0624
     43 H14         2.2481   -3.6704    1.4096 H       1  NONAME1     0.0643
     44 H15        -1.1307   -5.4631   -1.3570 H       1  NONAME1     0.0459
     45 H16        -0.5206   -5.7698    0.2793 H       1  NONAME1     0.0459
     46 H17        -2.5703   -7.0499   -0.3296 H       1  NONAME1     0.0478
     47 H18        -2.6689   -6.1572    1.1961 H       1  NONAME1     0.0478
     48 H19        -6.0688   -9.0989   -0.1469 H       1  NONAME1     0.0839
@<TRIPOS>BOND
     1     1     2    2
     2     2     3   am
     3     3     4    1
     4     2     5    1
     5     5     6   ar
     6     6     7   ar
     7     7     8   ar
     8     8     9    1
     9     9    10    1
    10    10    11    1
    11    11    12    1
    12    12    13    1
    13    13    14    2
    14    13    15    2
    15    13    16    1
    16    16    17   ar
    17    17    18   ar
    18    18    19   ar
    19    19    20   ar
    20    20    21   ar
    21    21    22   ar
    22    22    23   ar
    23    23    24   ar
    24    19    24   ar
    25    24    25   ar
    26    16    25   ar
    27    12    26    1
    28    26    27    1
    29     9    27    1
    30     8    28   ar
    31    28    29   ar
    32     5    29   ar
    33     3    30    1
    34     4    31    1
    35     6    32    1
    36    10    33    1
    37    10    34    1
    38    11    35    1
    39    11    36    1
    40    17    37    1
    41    18    38    1
    42    20    39    1
    43    21    40    1
    44    22    41    1
    45    23    42    1
    46    25    43    1
    47    26    44    1
    48    26    45    1
    49    27    46    1
    50    27    47    1
    51    29    48    1
