@<TRIPOS>MOLECULE
*****
 55 58 0 0 0
SMALL
USER_CHARGES

@<TRIPOS>ATOM
      1 N1         -1.1088  -13.9859   -0.0527 N.pl3   1  NONAME1    -0.3565
      2 C1         -2.3794  -13.3616   -0.1163 C.ar    1  NONAME1     0.0461
      3 C2         -3.5385  -14.1372   -0.1769 C.ar    1  NONAME1    -0.0386
      4 C3         -4.8010  -13.5318   -0.1519 C.ar    1  NONAME1    -0.0517
      5 C4         -4.9438  -12.1386   -0.0576 C.ar    1  NONAME1    -0.0094
      6 C5         -6.2986  -11.5241   -0.0208 C.ar    1  NONAME1     0.0194
      7 C6         -7.5420  -12.1415    0.0241 C.ar    1  NONAME1    -0.0469
      8 C7         -8.6355  -11.2251    0.0486 C.ar    1  NONAME1    -0.0541
      9 C8         -8.2101   -9.9197    0.0245 C.ar    1  NONAME1    -0.0237
     10 S1         -6.5111   -9.8091   -0.0321 S.2     1  NONAME1    -0.0967
     11 C9         -3.7616  -11.3732   -0.0044 C.ar    1  NONAME1    -0.0305
     12 C10        -2.4875  -11.9606   -0.0414 C.ar    1  NONAME1     0.0551
     13 N2         -1.2706  -11.2246   -0.0404 N.am    1  NONAME1    -0.2799
     14 C11        -1.1281   -9.8583    0.1106 C.2     1  NONAME1     0.2483
     15 O1         -2.0526   -9.0789    0.3299 O.2     1  NONAME1    -0.2699
     16 C12         0.2513   -9.2729    0.0229 C.ar    1  NONAME1     0.0370
     17 C13         0.3300   -7.8740    0.0068 C.ar    1  NONAME1    -0.0493
     18 C14         1.5619   -7.2224   -0.0092 C.ar    1  NONAME1    -0.0564
     19 C15         2.7671   -7.9422   -0.0144 C.ar    1  NONAME1    -0.0302
     20 C16         4.0299   -7.1164    0.0388 C.3     1  NONAME1     0.0400
     21 N3          5.2968   -7.7893   -0.0935 N.am    1  NONAME1    -0.2770
     22 C17         6.4164   -7.0052   -0.2022 C.2     1  NONAME1     0.4008
     23 O2          6.3988   -5.7950   -0.3813 O.2     1  NONAME1    -0.2265
     24 O3          7.5444   -7.7440   -0.0354 O.3     1  NONAME1    -0.4456
     25 C18         8.7234   -6.9271   -0.0782 C.3     1  NONAME1     0.1205
     26 C19        10.0036   -7.7173   -0.0365 C.ar    1  NONAME1     0.0078
     27 C20        11.2311   -7.0403   -0.0276 C.ar    1  NONAME1    -0.0525
     28 C21        12.4232   -7.7555   -0.0109 C.ar    1  NONAME1    -0.0432
     29 C22        12.3549   -9.1376   -0.0021 C.ar    1  NONAME1     0.0276
     30 N4         11.1947   -9.8305   -0.0077 N.ar    1  NONAME1    -0.2629
     31 C23        10.0498   -9.1052   -0.0274 C.ar    1  NONAME1     0.0339
     32 C24         2.6948   -9.3410   -0.0219 C.ar    1  NONAME1    -0.0564
     33 C25         1.4472  -10.0034   -0.0026 C.ar    1  NONAME1    -0.0493
     34 H1         -1.1774  -14.9956   -0.1610 H       1  NONAME1     0.1424
     35 H2         -0.6721  -13.7720    0.8427 H       1  NONAME1     0.1424
     36 H3         -3.4798  -15.2202   -0.2360 H       1  NONAME1     0.0637
     37 H4         -5.6715  -14.1797   -0.2051 H       1  NONAME1     0.0624
     38 H5         -7.6814  -13.2143    0.0419 H       1  NONAME1     0.0629
     39 H6         -9.6792  -11.5113    0.0828 H       1  NONAME1     0.0623
     40 H7         -8.8136   -9.0232    0.0370 H       1  NONAME1     0.0693
     41 H8         -3.8433  -10.2950    0.0522 H       1  NONAME1     0.0643
     42 H9         -0.4627  -11.8043   -0.2254 H       1  NONAME1     0.1552
     43 H10        -0.5775   -7.2711    0.0216 H       1  NONAME1     0.0625
     44 H11         1.5707   -6.1329   -0.0041 H       1  NONAME1     0.0621
     45 H12         3.9764   -6.3568   -0.7520 H       1  NONAME1     0.0513
     46 H13         4.0540   -6.5904    1.0020 H       1  NONAME1     0.0513
     47 H14         5.4475   -8.7011    0.3098 H       1  NONAME1     0.1523
     48 H15         8.7268   -6.3386   -1.0049 H       1  NONAME1     0.0750
     49 H16         8.7089   -6.2543    0.7890 H       1  NONAME1     0.0750
     50 H17        11.2604   -5.9524   -0.0394 H       1  NONAME1     0.0622
     51 H18        13.3821   -7.2484   -0.0085 H       1  NONAME1     0.0633
     52 H19        13.2565   -9.7424    0.0073 H       1  NONAME1     0.0829
     53 H20         9.1427   -9.7040   -0.0381 H       1  NONAME1     0.0833
     54 H21         3.5993   -9.9438   -0.0339 H       1  NONAME1     0.0621
     55 H22         1.4506  -11.0882    0.0130 H       1  NONAME1     0.0625
@<TRIPOS>BOND
     1     1     2    1
     2     2     3   ar
     3     3     4   ar
     4     4     5   ar
     5     5     6    1
     6     6     7   ar
     7     7     8   ar
     8     8     9   ar
     9     9    10   ar
    10     6    10   ar
    11     5    11   ar
    12    11    12   ar
    13     2    12   ar
    14    12    13    1
    15    13    14   am
    16    14    15    2
    17    14    16    1
    18    16    17   ar
    19    17    18   ar
    20    18    19   ar
    21    19    20    1
    22    20    21    1
    23    21    22   am
    24    22    23    2
    25    22    24    1
    26    24    25    1
    27    25    26    1
    28    26    27   ar
    29    27    28   ar
    30    28    29   ar
    31    29    30   ar
    32    30    31   ar
    33    26    31   ar
    34    19    32   ar
    35    32    33   ar
    36    16    33   ar
    37     1    34    1
    38     1    35    1
    39     3    36    1
    40     4    37    1
    41     7    38    1
    42     8    39    1
    43     9    40    1
    44    11    41    1
    45    13    42    1
    46    17    43    1
    47    18    44    1
    48    20    45    1
    49    20    46    1
    50    21    47    1
    51    25    48    1
    52    25    49    1
    53    27    50    1
    54    28    51    1
    55    29    52    1
    56    31    53    1
    57    32    54    1
    58    33    55    1
