@<TRIPOS>MOLECULE
*****
 55 57 0 0 0
SMALL
USER_CHARGES

@<TRIPOS>ATOM
      1 O1          4.8832   -6.6677    1.7617 O.2     1  NONAME1    -0.2737
      2 C1          4.1259   -6.6700    2.7232 C.2     1  NONAME1     0.2354
      3 C2          2.7992   -7.4072    2.7739 C.3     1  NONAME1     0.0259
      4 C3          2.3761   -8.0748    1.4667 C.3     1  NONAME1    -0.0447
      5 C4          3.0578   -9.4235    1.2378 C.3     1  NONAME1    -0.0526
      6 C5          2.5732  -10.1380   -0.0299 C.3     1  NONAME1    -0.0526
      7 C6          1.3180  -11.0011    0.1415 C.3     1  NONAME1    -0.0448
      8 C7         -0.0356  -10.2766    0.0530 C.3     1  NONAME1     0.0243
      9 C8         -1.1792  -11.2890    0.0392 C.2     1  NONAME1     0.2172
     10 O2         -0.9418  -12.4937    0.0720 O.2     1  NONAME1    -0.2755
     11 N1         -2.4461  -10.7125   -0.0018 N.am    1  NONAME1    -0.2855
     12 C9         -3.6857  -11.4134   -0.0099 C.ar    1  NONAME1     0.0340
     13 C10        -3.7555  -12.8101   -0.0054 C.ar    1  NONAME1    -0.0404
     14 C11        -4.9783  -13.4720   -0.0045 C.ar    1  NONAME1    -0.0594
     15 C12        -6.1607  -12.7436   -0.0089 C.ar    1  NONAME1    -0.0523
     16 C13        -6.1434  -11.3399   -0.0158 C.ar    1  NONAME1     0.0054
     17 C14        -7.4056  -10.6049   -0.0182 C.ar    1  NONAME1     0.1130
     18 C15        -8.6605  -11.1709   -0.0182 C.ar    1  NONAME1     0.0591
     19 N2         -9.5430  -10.1188   -0.0156 N.ar    1  NONAME1    -0.2195
     20 C16       -10.9657  -10.1749   -0.0146 C.ar    1  NONAME1     0.0671
     21 C17       -11.6353  -11.4110   -0.0165 C.ar    1  NONAME1    -0.0352
     22 C18       -13.0333  -11.4611   -0.0148 C.ar    1  NONAME1    -0.0466
     23 C19       -13.7691  -10.2793   -0.0113 C.ar    1  NONAME1     0.0135
     24 I1        -15.8460  -10.3622   -0.0090 I       1  NONAME1    -0.0438
     25 C20       -13.1183   -9.0460   -0.0094 C.ar    1  NONAME1    -0.0466
     26 C21       -11.7175   -8.9915   -0.0109 C.ar    1  NONAME1    -0.0352
     27 N3         -8.8436   -8.9558   -0.0144 N.ar    1  NONAME1    -0.0602
     28 N4         -7.5433   -9.2438   -0.0157 N.ar    1  NONAME1    -0.1292
     29 C22        -4.8935  -10.6823   -0.0189 C.ar    1  NONAME1    -0.0312
     30 N5          4.3372   -5.9694    3.9064 N.am    1  NONAME1    -0.1975
     31 O3          5.6324   -5.4331    4.0759 O.3     1  NONAME1    -0.2952
     32 H1          2.0323   -6.6672    3.0385 H       1  NONAME1     0.0359
     33 H2          2.8376   -8.1455    3.5841 H       1  NONAME1     0.0359
     34 H3          1.2955   -8.2241    1.5146 H       1  NONAME1     0.0270
     35 H4          2.5706   -7.4114    0.6159 H       1  NONAME1     0.0270
     36 H5          4.1376   -9.2545    1.1397 H       1  NONAME1     0.0265
     37 H6          2.9257  -10.0759    2.1093 H       1  NONAME1     0.0265
     38 H7          3.3798  -10.8232   -0.3266 H       1  NONAME1     0.0265
     39 H8          2.4521   -9.4339   -0.8603 H       1  NONAME1     0.0265
     40 H9          1.3762  -11.5603    1.0844 H       1  NONAME1     0.0270
     41 H10         1.3475  -11.7585   -0.6543 H       1  NONAME1     0.0270
     42 H11        -0.0867   -9.6812   -0.8645 H       1  NONAME1     0.0358
     43 H12        -0.1816   -9.6219    0.9155 H       1  NONAME1     0.0358
     44 H13        -2.5004   -9.7010   -0.0180 H       1  NONAME1     0.1548
     45 H14        -2.8712  -13.4372   -0.0022 H       1  NONAME1     0.0636
     46 H15        -5.0032  -14.5586    0.0013 H       1  NONAME1     0.0618
     47 H16        -7.0879  -13.3064   -0.0053 H       1  NONAME1     0.0624
     48 H17        -8.9891  -12.1952   -0.0210 H       1  NONAME1     0.0853
     49 H18       -11.1075  -12.3599   -0.0195 H       1  NONAME1     0.0639
     50 H19       -13.5300  -12.4291   -0.0163 H       1  NONAME1     0.0629
     51 H20       -13.6850   -8.1183   -0.0067 H       1  NONAME1     0.0629
     52 H21       -11.2336   -8.0163   -0.0090 H       1  NONAME1     0.0639
     53 H22        -4.8722   -9.5942   -0.0246 H       1  NONAME1     0.0643
     54 H23         3.8959   -6.2955    4.7612 H       1  NONAME1     0.1822
     55 H24         5.5170   -4.5143    3.7712 H       1  NONAME1     0.2414
@<TRIPOS>BOND
     1     1     2    2
     2     2     3    1
     3     3     4    1
     4     4     5    1
     5     5     6    1
     6     6     7    1
     7     7     8    1
     8     8     9    1
     9     9    10    2
    10     9    11   am
    11    11    12    1
    12    12    13   ar
    13    13    14   ar
    14    14    15   ar
    15    15    16   ar
    16    16    17    1
    17    17    18   ar
    18    18    19   ar
    19    19    20    1
    20    20    21   ar
    21    21    22   ar
    22    22    23   ar
    23    23    24    1
    24    23    25   ar
    25    25    26   ar
    26    20    26   ar
    27    19    27   ar
    28    27    28   ar
    29    17    28   ar
    30    16    29   ar
    31    12    29   ar
    32     2    30   am
    33    30    31    1
    34     3    32    1
    35     3    33    1
    36     4    34    1
    37     4    35    1
    38     5    36    1
    39     5    37    1
    40     6    38    1
    41     6    39    1
    42     7    40    1
    43     7    41    1
    44     8    42    1
    45     8    43    1
    46    11    44    1
    47    13    45    1
    48    14    46    1
    49    15    47    1
    50    18    48    1
    51    21    49    1
    52    22    50    1
    53    25    51    1
    54    26    52    1
    55    29    53    1
    56    30    54    1
    57    31    55    1
