@<TRIPOS>MOLECULE
*****
 46 48 0 0 0
SMALL
USER_CHARGES

@<TRIPOS>ATOM
      1 N1          9.3304   17.3073   -0.1991 N.2     1  NONAME1     0.0678
      2 N2          8.3610   16.8513    0.1937 N.2     1  NONAME1    -0.1670
      3 N3          7.2990   16.3523    0.6202 N.2     1  NONAME1    -0.1067
      4 C1          7.1230   14.9142    0.3652 C.3     1  NONAME1     0.1080
      5 C2          5.6518   14.5249    0.5707 C.3     1  NONAME1     0.1118
      6 O1          5.4218   13.2626   -0.0733 O.3     1  NONAME1    -0.4878
      7 C3          4.1728   12.7002    0.0270 C.ar    1  NONAME1     0.1487
      8 C4          4.1760   11.2939    0.1027 C.ar    1  NONAME1    -0.0170
      9 C5          2.9837   10.5499    0.1869 C.ar    1  NONAME1    -0.0460
     10 C6          1.7596   11.2142    0.1937 C.ar    1  NONAME1     0.0393
     11 C7          0.4262   10.5613    0.3833 C.2     1  NONAME1     0.2484
     12 O2         -0.4387   11.2626    0.9088 O.2     1  NONAME1    -0.2699
     13 N4          0.2401    9.2430   -0.0146 N.am    1  NONAME1    -0.2799
     14 C8         -1.0130    8.5297   -0.0276 C.ar    1  NONAME1     0.0551
     15 C9         -0.9506    7.1093   -0.0124 C.ar    1  NONAME1    -0.0305
     16 C10        -2.1110    6.2938   -0.0043 C.ar    1  NONAME1    -0.0094
     17 C11        -2.0412    4.8035    0.0193 C.ar    1  NONAME1     0.0194
     18 C12        -0.9405    3.9581    0.0166 C.ar    1  NONAME1    -0.0469
     19 C13        -1.2859    2.5716    0.0238 C.ar    1  NONAME1    -0.0541
     20 C14        -2.6447    2.3729    0.0396 C.ar    1  NONAME1    -0.0237
     21 S1         -3.4894    3.8473    0.0494 S.2     1  NONAME1    -0.0967
     22 C15        -3.3474    6.9488   -0.0389 C.ar    1  NONAME1    -0.0517
     23 C16        -3.4311    8.3362   -0.1036 C.ar    1  NONAME1    -0.0386
     24 C17        -2.2880    9.1437   -0.0728 C.ar    1  NONAME1     0.0461
     25 N5         -2.4961   10.5057   -0.3839 N.pl3   1  NONAME1    -0.3565
     26 C18         1.7592   12.6187    0.0817 C.ar    1  NONAME1    -0.0178
     27 C19         2.9414   13.3712   -0.0258 C.ar    1  NONAME1     0.1423
     28 N6          2.8006   14.7613   -0.1735 N.2     1  NONAME1    -0.0683
     29 N7          2.9576   15.1324   -1.3546 N.2     1  NONAME1    -0.1615
     30 N8          3.1157   15.4919   -2.4253 N.2     1  NONAME1     0.0682
     31 H1          7.7601   14.3345    1.0416 H       1  NONAME1     0.0571
     32 H2          7.4256   14.6681   -0.6605 H       1  NONAME1     0.0571
     33 H3          5.4232   14.4578    1.6413 H       1  NONAME1     0.0716
     34 H4          5.0501   15.3159    0.1248 H       1  NONAME1     0.0716
     35 H5          5.1316   10.7707    0.1168 H       1  NONAME1     0.0655
     36 H6          3.0478    9.4711    0.2868 H       1  NONAME1     0.0626
     37 H7          1.0571    8.6949   -0.2417 H       1  NONAME1     0.1552
     38 H8          0.0249    6.6318    0.0125 H       1  NONAME1     0.0643
     39 H9          0.0839    4.3045    0.0028 H       1  NONAME1     0.0629
     40 H10        -0.5715    1.7555    0.0155 H       1  NONAME1     0.0623
     41 H11        -3.1816    1.4326    0.0417 H       1  NONAME1     0.0693
     42 H12        -4.2877    6.4044   -0.0480 H       1  NONAME1     0.0624
     43 H13        -4.4160    8.7890   -0.1935 H       1  NONAME1     0.0637
     44 H14        -1.7603   11.0771    0.0422 H       1  NONAME1     0.1424
     45 H15        -3.3964   10.8472   -0.0658 H       1  NONAME1     0.1424
     46 H16         0.8084   13.1531    0.0754 H       1  NONAME1     0.0648
@<TRIPOS>BOND
     1     1     2    2
     2     2     3    2
     3     3     4    1
     4     4     5    1
     5     5     6    1
     6     6     7    1
     7     7     8   ar
     8     8     9   ar
     9     9    10   ar
    10    10    11    1
    11    11    12    2
    12    11    13   am
    13    13    14    1
    14    14    15   ar
    15    15    16   ar
    16    16    17    1
    17    17    18   ar
    18    18    19   ar
    19    19    20   ar
    20    20    21   ar
    21    17    21   ar
    22    16    22   ar
    23    22    23   ar
    24    23    24   ar
    25    14    24   ar
    26    24    25    1
    27    10    26   ar
    28    26    27   ar
    29     7    27   ar
    30    27    28    1
    31    28    29    2
    32    29    30    2
    33     4    31    1
    34     4    32    1
    35     5    33    1
    36     5    34    1
    37     8    35    1
    38     9    36    1
    39    13    37    1
    40    15    38    1
    41    18    39    1
    42    19    40    1
    43    20    41    1
    44    22    42    1
    45    23    43    1
    46    25    44    1
    47    25    45    1
    48    26    46    1
