@<TRIPOS>MOLECULE
*****
 63 66 0 0 0
SMALL
USER_CHARGES

@<TRIPOS>ATOM
      1 O1          4.2455  -14.6303    2.4718 O.2     1  NONAME1    -0.2772
      2 C1          5.2138  -15.3072    2.1434 C.2     1  NONAME1     0.2250
      3 N1          6.5284  -14.9113    2.3348 N.am    1  NONAME1    -0.1864
      4 O2          6.6134  -13.8183    3.2467 O.3     1  NONAME1    -0.2927
      5 C2          7.5374  -15.9119    2.6207 C.3     1  NONAME1     0.0414
      6 C3          8.9575  -15.3690    2.7530 C.3     1  NONAME1    -0.0348
      7 C4          9.5612  -14.7724    1.4773 C.3     1  NONAME1    -0.0515
      8 C5          9.3042  -13.2612    1.2365 C.3     1  NONAME1    -0.0519
      9 C6          9.9638  -12.6049   -0.0448 C.3     1  NONAME1    -0.0335
     10 C7         11.5623  -12.6293    0.0000 C.3     1  NONAME1     0.1122
     11 C8         12.5920  -13.4109   -0.8840 C.2     1  NONAME1     0.2291
     12 O3         12.2737  -13.9983   -1.9141 O.2     1  NONAME1    -0.2746
     13 N2         13.8347  -13.4857   -0.2675 N.am    1  NONAME1    -0.2849
     14 C9         14.7549  -14.5502   -0.2869 C.ar    1  NONAME1     0.0341
     15 C10        16.0925  -14.2622   -0.0119 C.ar    1  NONAME1    -0.0384
     16 C11        17.0415  -15.2923    0.0752 C.ar    1  NONAME1    -0.0340
     17 C12        16.6850  -16.6262   -0.0412 C.ar    1  NONAME1     0.0711
     18 N3         17.6336  -17.5678    0.1016 N.ar    1  NONAME1    -0.2550
     19 C13        17.2524  -18.8624    0.0419 C.ar    1  NONAME1     0.0283
     20 C14        15.9457  -19.2691   -0.1408 C.ar    1  NONAME1    -0.0430
     21 C15        14.9709  -18.2872   -0.3007 C.ar    1  NONAME1    -0.0511
     22 C16        15.3229  -16.9276   -0.2683 C.ar    1  NONAME1     0.0021
     23 C17        14.3736  -15.8869   -0.4260 C.ar    1  NONAME1    -0.0313
     24 C18        12.0664  -11.1741    0.0000 C.2     1  NONAME1     0.2291
     25 O4         13.2329  -11.0491    0.4173 O.2     1  NONAME1    -0.2746
     26 N4         11.3172  -10.0651   -0.3140 N.am    1  NONAME1    -0.2849
     27 C19        11.7681   -8.7153   -0.2335 C.ar    1  NONAME1     0.0341
     28 C20        10.8046   -7.7052   -0.1866 C.ar    1  NONAME1    -0.0384
     29 C21        11.1861   -6.3572   -0.0946 C.ar    1  NONAME1    -0.0340
     30 C22        12.5193   -5.9709   -0.0662 C.ar    1  NONAME1     0.0711
     31 N5         12.8383   -4.6648    0.0090 N.ar    1  NONAME1    -0.2550
     32 C23        14.1485   -4.3296    0.0214 C.ar    1  NONAME1     0.0283
     33 C24        15.1789   -5.2485   -0.0318 C.ar    1  NONAME1    -0.0430
     34 C25        14.8445   -6.5942   -0.1051 C.ar    1  NONAME1    -0.0511
     35 C26        13.4960   -6.9825   -0.1257 C.ar    1  NONAME1     0.0021
     36 C27        13.1142   -8.3380   -0.2070 C.ar    1  NONAME1    -0.0313
     37 H1          5.1244  -16.3012    1.6745 H       1  NONAME1     0.1274
     38 H2          5.6774  -13.5351    3.3245 H       1  NONAME1     0.2416
     39 H3          7.2518  -16.4134    3.5545 H       1  NONAME1     0.0489
     40 H4          7.4919  -16.6761    1.8337 H       1  NONAME1     0.0489
     41 H5          9.5857  -16.2255    3.0376 H       1  NONAME1     0.0281
     42 H6          9.0335  -14.6531    3.5780 H       1  NONAME1     0.0281
     43 H7         10.6395  -14.9314    1.6037 H       1  NONAME1     0.0266
     44 H8          9.2443  -15.3517    0.6011 H       1  NONAME1     0.0266
     45 H9          9.6426  -12.7019    2.1169 H       1  NONAME1     0.0266
     46 H10         8.2238  -13.1034    1.1527 H       1  NONAME1     0.0266
     47 H11         9.6087  -13.1148   -0.9526 H       1  NONAME1     0.0277
     48 H12         9.5110  -11.6203   -0.0943 H       1  NONAME1     0.0277
     49 H13        11.0582  -14.0845    0.0000 H       1  NONAME1     0.0489
     50 H14        14.1421  -12.6204    0.1821 H       1  NONAME1     0.1548
     51 H15        16.4252  -13.2355    0.1204 H       1  NONAME1     0.0637
     52 H16        18.0838  -15.0438    0.2619 H       1  NONAME1     0.0639
     53 H17        18.0556  -19.5854    0.1570 H       1  NONAME1     0.0830
     54 H18        15.6934  -20.3232   -0.1582 H       1  NONAME1     0.0633
     55 H19        13.9358  -18.5855   -0.4365 H       1  NONAME1     0.0625
     56 H20        13.3283  -16.1390   -0.5842 H       1  NONAME1     0.0643
     57 H21        10.3273  -10.1445   -0.4821 H       1  NONAME1     0.1548
     58 H22         9.7433   -7.9389   -0.1878 H       1  NONAME1     0.0637
     59 H23        10.4212   -5.5852   -0.0409 H       1  NONAME1     0.0639
     60 H24        14.3522   -3.2633    0.0769 H       1  NONAME1     0.0830
     61 H25        16.2140   -4.9256   -0.0175 H       1  NONAME1     0.0633
     62 H26        15.6351   -7.3394   -0.1435 H       1  NONAME1     0.0625
     63 H27        13.9054   -9.0782   -0.2734 H       1  NONAME1     0.0643
@<TRIPOS>BOND
     1     1     2    2
     2     2     3   am
     3     3     4    1
     4     3     5    1
     5     5     6    1
     6     6     7    1
     7     7     8    1
     8     8     9    1
     9     9    10    1
    10    10    11    1
    11    11    12    2
    12    11    13   am
    13    13    14    1
    14    14    15   ar
    15    15    16   ar
    16    16    17   ar
    17    17    18   ar
    18    18    19   ar
    19    19    20   ar
    20    20    21   ar
    21    21    22   ar
    22    17    22   ar
    23    22    23   ar
    24    14    23   ar
    25    10    24    1
    26    24    25    2
    27    24    26   am
    28    26    27    1
    29    27    28   ar
    30    28    29   ar
    31    29    30   ar
    32    30    31   ar
    33    31    32   ar
    34    32    33   ar
    35    33    34   ar
    36    34    35   ar
    37    30    35   ar
    38    35    36   ar
    39    27    36   ar
    40     2    37    1
    41     4    38    1
    42     5    39    1
    43     5    40    1
    44     6    41    1
    45     6    42    1
    46     7    43    1
    47     7    44    1
    48     8    45    1
    49     8    46    1
    50     9    47    1
    51     9    48    1
    52    10    49    1
    53    13    50    1
    54    15    51    1
    55    16    52    1
    56    19    53    1
    57    20    54    1
    58    21    55    1
    59    23    56    1
    60    26    57    1
    61    28    58    1
    62    29    59    1
    63    32    60    1
    64    33    61    1
    65    34    62    1
    66    36    63    1
