MODEL 1
REMARK VINA RESULT:   -16.835      0.000      0.000
REMARK INTER + INTRA:         -21.254
REMARK INTER:                 -19.818
REMARK INTRA:                  -1.437
REMARK CONF_INDEPENDENT:        2.983
REMARK UNBOUND:                -1.437
REMARK  10 active torsions:
REMARK  status: ('A' for Active; 'I' for Inactive)
REMARK    1  A    between atoms: C1_2  and  C2_3 
REMARK       I    between atoms: C1_2  and  N5_28 
REMARK    2  A    between atoms: C2_3  and  C3_4 
REMARK    3  A    between atoms: C3_4  and  C4_5 
REMARK    4  A    between atoms: C4_5  and  C5_6 
REMARK    5  A    between atoms: C5_6  and  C6_7 
REMARK    6  A    between atoms: C6_7  and  N1_8 
REMARK       I    between atoms: N1_8  and  C7_9 
REMARK       I    between atoms: C7_9  and  N2_11 
REMARK       I    between atoms: N2_11  and  C8_12 
REMARK    7  A    between atoms: C8_12  and  C9_14 
REMARK    8  A    between atoms: C12_17  and  N3_18 
REMARK    9  A    between atoms: C17_23  and  N4_24 
REMARK   10  A    between atoms: N5_28  and  O6_29 
ROOT
ATOM      1  N1  NON d   1     -48.130  15.185  -3.579  0.00  0.00    -0.343 N 
ATOM      2  C7  NON d   1     -47.420  15.710  -4.652  0.00  0.00     0.323 C 
ATOM      3  O2  NON d   1     -47.781  15.542  -5.811  0.00  0.00    -0.247 OA
ATOM      4  N2  NON d   1     -46.285  16.381  -4.245  0.00  0.00    -0.275 N 
ATOM      5  C8  NON d   1     -45.578  17.198  -5.114  0.00  0.00     0.259 C 
ATOM      6  O3  NON d   1     -46.021  17.629  -6.177  0.00  0.00    -0.267 OA
ATOM      7  H11 NON d   1     -48.056  15.712  -2.719  0.00  0.00     0.164 HD
ATOM      8  H12 NON d   1     -45.859  16.043  -3.404  0.00  0.00     0.173 HD
ENDROOT
BRANCH   5   9
ATOM      9  C9  NON d   1     -44.216  17.670  -4.711  0.00  0.00     0.035 A 
ATOM     10  C10 NON d   1     -43.523  16.893  -3.783  0.00  0.00     0.019 A 
ATOM     11  C11 NON d   1     -42.209  17.204  -3.398  0.00  0.00     0.033 A 
ATOM     12  C12 NON d   1     -41.481  18.299  -3.910  0.00  0.00     0.063 A 
ATOM     13  C17 NON d   1     -42.227  19.073  -4.832  0.00  0.00     0.130 A 
ATOM     14  C18 NON d   1     -43.564  18.780  -5.233  0.00  0.00     0.055 A 
BRANCH  12  15
ATOM     15  N3  NON d   1     -40.187  18.503  -3.467  0.00  0.00    -0.379 N 
ATOM     16  C13 NON d   1     -39.577  17.650  -2.432  0.00  0.00     0.123 C 
ATOM     17  C14 NON d   1     -38.096  18.010  -2.413  0.00  0.00     0.021 C 
ATOM     18  C15 NON d   1     -38.052  19.404  -3.003  0.00  0.00     0.021 C 
ATOM     19  C16 NON d   1     -39.174  19.393  -4.037  0.00  0.00     0.123 C 
ENDBRANCH  12  15
BRANCH  13  20
ATOM     20  N4  NON d   1     -41.676  20.248  -5.473  0.00  0.00    -0.113 N 
ATOM     21  O4  NON d   1     -41.393  20.144  -6.675  0.00  0.00    -0.532 OA
ATOM     22  O5  NON d   1     -41.431  21.229  -4.757  0.00  0.00    -0.532 OA
ENDBRANCH  13  20
ENDBRANCH   5   9
BRANCH   1  23
ATOM     23  C6  NON d   1     -49.443  14.627  -3.868  0.00  0.00     0.124 C 
BRANCH  23  24
ATOM     24  C5  NON d   1     -50.520  15.063  -2.881  0.00  0.00     0.020 C 
BRANCH  24  25
ATOM     25  C4  NON d   1     -50.535  16.580  -2.616  0.00  0.00     0.002 C 
BRANCH  25  26
ATOM     26  C3  NON d   1     -51.847  17.159  -2.062  0.00  0.00     0.009 C 
BRANCH  26  27
ATOM     27  C2  NON d   1     -53.095  16.361  -2.435  0.00  0.00     0.105 C 
BRANCH  27  28
ATOM     28  C1  NON d   1     -54.361  17.196  -2.520  0.00  0.00     0.240 C 
ATOM     29  O1  NON d   1     -54.976  17.402  -3.561  0.00  0.00    -0.271 OA
ATOM     30  N5  NON d   1     -54.689  17.734  -1.287  0.00  0.00    -0.237 N 
ATOM     31  H24 NON d   1     -54.391  17.267  -0.436  0.00  0.00     0.197 HD
BRANCH  30  32
ATOM     32  O6  NON d   1     -55.942  18.379  -1.213  0.00  0.00    -0.287 OA
ATOM     33  H25 NON d   1     -56.318  18.189  -2.093  0.00  0.00     0.244 HD
ENDBRANCH  30  32
ENDBRANCH  27  28
ENDBRANCH  26  27
ENDBRANCH  25  26
ENDBRANCH  24  25
ENDBRANCH  23  24
ENDBRANCH   1  23
TORSDOF 10
ENDMDL
MODEL 2
REMARK VINA RESULT:   -15.133      3.987      5.523
REMARK INTER + INTRA:         -19.870
REMARK INTER:                 -18.116
REMARK INTRA:                  -1.753
REMARK CONF_INDEPENDENT:        2.983
REMARK UNBOUND:                -1.753
REMARK  10 active torsions:
REMARK  status: ('A' for Active; 'I' for Inactive)
REMARK    1  A    between atoms: C1_2  and  C2_3 
REMARK       I    between atoms: C1_2  and  N5_28 
REMARK    2  A    between atoms: C2_3  and  C3_4 
REMARK    3  A    between atoms: C3_4  and  C4_5 
REMARK    4  A    between atoms: C4_5  and  C5_6 
REMARK    5  A    between atoms: C5_6  and  C6_7 
REMARK    6  A    between atoms: C6_7  and  N1_8 
REMARK       I    between atoms: N1_8  and  C7_9 
REMARK       I    between atoms: C7_9  and  N2_11 
REMARK       I    between atoms: N2_11  and  C8_12 
REMARK    7  A    between atoms: C8_12  and  C9_14 
REMARK    8  A    between atoms: C12_17  and  N3_18 
REMARK    9  A    between atoms: C17_23  and  N4_24 
REMARK   10  A    between atoms: N5_28  and  O6_29 
ROOT
ATOM      1  N1  NON d   1     -45.528  17.673  -3.798  0.00  0.00    -0.343 N 
ATOM      2  C7  NON d   1     -44.150  17.494  -3.815  0.00  0.00     0.323 C 
ATOM      3  O2  NON d   1     -43.607  16.594  -3.184  0.00  0.00    -0.247 OA
ATOM      4  N2  NON d   1     -43.511  18.451  -4.575  0.00  0.00    -0.275 N 
ATOM      5  C8  NON d   1     -42.181  18.312  -4.943  0.00  0.00     0.259 C 
ATOM      6  O3  NON d   1     -41.555  17.256  -4.897  0.00  0.00    -0.267 OA
ATOM      7  H11 NON d   1     -45.914  18.089  -4.635  0.00  0.00     0.164 HD
ATOM      8  H12 NON d   1     -43.958  19.346  -4.612  0.00  0.00     0.173 HD
ENDROOT
BRANCH   5   9
ATOM      9  C9  NON d   1     -41.466  19.495  -5.517  0.00  0.00     0.035 A 
ATOM     10  C10 NON d   1     -41.032  20.473  -4.621  0.00  0.00     0.019 A 
ATOM     11  C11 NON d   1     -40.284  21.581  -5.047  0.00  0.00     0.033 A 
ATOM     12  C12 NON d   1     -39.900  21.799  -6.387  0.00  0.00     0.063 A 
ATOM     13  C17 NON d   1     -40.377  20.796  -7.266  0.00  0.00     0.130 A 
ATOM     14  C18 NON d   1     -41.143  19.665  -6.858  0.00  0.00     0.055 A 
BRANCH  12  15
ATOM     15  N3  NON d   1     -39.152  22.922  -6.691  0.00  0.00    -0.379 N 
ATOM     16  C13 NON d   1     -39.728  24.063  -7.424  0.00  0.00     0.123 C 
ATOM     17  C14 NON d   1     -38.699  25.183  -7.327  0.00  0.00     0.021 C 
ATOM     18  C15 NON d   1     -37.396  24.460  -7.058  0.00  0.00     0.021 C 
ATOM     19  C16 NON d   1     -37.816  23.268  -6.203  0.00  0.00     0.123 C 
ENDBRANCH  12  15
BRANCH  13  20
ATOM     20  N4  NON d   1     -40.107  20.827  -8.688  0.00  0.00    -0.113 N 
ATOM     21  O4  NON d   1     -40.678  19.972  -9.381  0.00  0.00    -0.532 OA
ATOM     22  O5  NON d   1     -39.254  21.629  -9.091  0.00  0.00    -0.532 OA
ENDBRANCH  13  20
ENDBRANCH   5   9
BRANCH   1  23
ATOM     23  C6  NON d   1     -46.323  16.615  -3.192  0.00  0.00     0.124 C 
BRANCH  23  24
ATOM     24  C5  NON d   1     -47.540  17.129  -2.430  0.00  0.00     0.020 C 
BRANCH  24  25
ATOM     25  C4  NON d   1     -48.810  16.289  -2.659  0.00  0.00     0.002 C 
BRANCH  25  26
ATOM     26  C3  NON d   1     -48.643  15.030  -3.526  0.00  0.00     0.009 C 
BRANCH  26  27
ATOM     27  C2  NON d   1     -48.814  15.270  -5.024  0.00  0.00     0.105 C 
BRANCH  27  28
ATOM     28  C1  NON d   1     -47.554  15.752  -5.722  0.00  0.00     0.240 C 
ATOM     29  O1  NON d   1     -46.736  15.005  -6.249  0.00  0.00    -0.271 OA
ATOM     30  N5  NON d   1     -47.426  17.127  -5.630  0.00  0.00    -0.237 N 
ATOM     31  H24 NON d   1     -48.253  17.706  -5.521  0.00  0.00     0.197 HD
BRANCH  30  32
ATOM     32  O6  NON d   1     -46.386  17.700  -6.394  0.00  0.00    -0.287 OA
ATOM     33  H25 NON d   1     -46.317  17.073  -7.138  0.00  0.00     0.244 HD
ENDBRANCH  30  32
ENDBRANCH  27  28
ENDBRANCH  26  27
ENDBRANCH  25  26
ENDBRANCH  24  25
ENDBRANCH  23  24
ENDBRANCH   1  23
TORSDOF 10
ENDMDL
MODEL 3
REMARK VINA RESULT:   -14.989      3.991      6.146
REMARK INTER + INTRA:         -19.957
REMARK INTER:                 -17.972
REMARK INTRA:                  -1.984
REMARK CONF_INDEPENDENT:        2.983
REMARK UNBOUND:                -1.984
REMARK  10 active torsions:
REMARK  status: ('A' for Active; 'I' for Inactive)
REMARK    1  A    between atoms: C1_2  and  C2_3 
REMARK       I    between atoms: C1_2  and  N5_28 
REMARK    2  A    between atoms: C2_3  and  C3_4 
REMARK    3  A    between atoms: C3_4  and  C4_5 
REMARK    4  A    between atoms: C4_5  and  C5_6 
REMARK    5  A    between atoms: C5_6  and  C6_7 
REMARK    6  A    between atoms: C6_7  and  N1_8 
REMARK       I    between atoms: N1_8  and  C7_9 
REMARK       I    between atoms: C7_9  and  N2_11 
REMARK       I    between atoms: N2_11  and  C8_12 
REMARK    7  A    between atoms: C8_12  and  C9_14 
REMARK    8  A    between atoms: C12_17  and  N3_18 
REMARK    9  A    between atoms: C17_23  and  N4_24 
REMARK   10  A    between atoms: N5_28  and  O6_29 
ROOT
ATOM      1  N1  NON d   1     -44.820  17.953  -4.166  0.00  0.00    -0.343 N 
ATOM      2  C7  NON d   1     -43.462  17.768  -4.401  0.00  0.00     0.323 C 
ATOM      3  O2  NON d   1     -42.853  16.807  -3.949  0.00  0.00    -0.247 OA
ATOM      4  N2  NON d   1     -42.920  18.794  -5.147  0.00  0.00    -0.275 N 
ATOM      5  C8  NON d   1     -41.660  18.687  -5.716  0.00  0.00     0.259 C 
ATOM      6  O3  NON d   1     -41.055  17.628  -5.867  0.00  0.00    -0.267 OA
ATOM      7  H11 NON d   1     -45.314  18.453  -4.892  0.00  0.00     0.164 HD
ATOM      8  H12 NON d   1     -43.351  19.691  -5.029  0.00  0.00     0.173 HD
ENDROOT
BRANCH   5   9
ATOM      9  C9  NON d   1     -41.012  19.918  -6.267  0.00  0.00     0.035 A 
ATOM     10  C10 NON d   1     -40.839  19.981  -7.650  0.00  0.00     0.019 A 
ATOM     11  C11 NON d   1     -40.314  21.124  -8.274  0.00  0.00     0.033 A 
ATOM     12  C12 NON d   1     -39.933  22.291  -7.579  0.00  0.00     0.063 A 
ATOM     13  C17 NON d   1     -40.105  22.178  -6.177  0.00  0.00     0.130 A 
ATOM     14  C18 NON d   1     -40.629  21.026  -5.521  0.00  0.00     0.055 A 
BRANCH  12  15
ATOM     15  N3  NON d   1     -39.437  23.363  -8.299  0.00  0.00    -0.379 N 
ATOM     16  C13 NON d   1     -40.325  24.392  -8.868  0.00  0.00     0.123 C 
ATOM     17  C14 NON d   1     -39.411  25.516  -9.342  0.00  0.00     0.021 C 
ATOM     18  C15 NON d   1     -38.072  24.839  -9.542  0.00  0.00     0.021 C 
ATOM     19  C16 NON d   1     -38.040  23.775  -8.448  0.00  0.00     0.123 C 
ENDBRANCH  12  15
BRANCH  13  20
ATOM     20  N4  NON d   1     -39.768  23.256  -5.272  0.00  0.00    -0.113 N 
ATOM     21  O4  NON d   1     -40.712  23.805  -4.685  0.00  0.00    -0.532 OA
ATOM     22  O5  NON d   1     -38.584  23.618  -5.228  0.00  0.00    -0.532 OA
ENDBRANCH  13  20
ENDBRANCH   5   9
BRANCH   1  23
ATOM     23  C6  NON d   1     -45.541  16.842  -3.560  0.00  0.00     0.124 C 
BRANCH  23  24
ATOM     24  C5  NON d   1     -46.797  17.270  -2.810  0.00  0.00     0.020 C 
BRANCH  24  25
ATOM     25  C4  NON d   1     -47.803  16.124  -2.590  0.00  0.00     0.002 C 
BRANCH  25  26
ATOM     26  C3  NON d   1     -48.979  16.056  -3.578  0.00  0.00     0.009 C 
BRANCH  26  27
ATOM     27  C2  NON d   1     -48.694  15.249  -4.842  0.00  0.00     0.105 C 
BRANCH  27  28
ATOM     28  C1  NON d   1     -47.498  15.745  -5.637  0.00  0.00     0.240 C 
ATOM     29  O1  NON d   1     -46.692  15.005  -6.191  0.00  0.00    -0.271 OA
ATOM     30  N5  NON d   1     -47.411  17.126  -5.601  0.00  0.00    -0.237 N 
ATOM     31  H24 NON d   1     -48.249  17.682  -5.459  0.00  0.00     0.197 HD
BRANCH  30  32
ATOM     32  O6  NON d   1     -46.443  17.703  -6.450  0.00  0.00    -0.287 OA
ATOM     33  H25 NON d   1     -46.315  16.999  -7.114  0.00  0.00     0.244 HD
ENDBRANCH  30  32
ENDBRANCH  27  28
ENDBRANCH  26  27
ENDBRANCH  25  26
ENDBRANCH  24  25
ENDBRANCH  23  24
ENDBRANCH   1  23
TORSDOF 10
ENDMDL
MODEL 4
REMARK VINA RESULT:   -14.951      4.034      6.300
REMARK INTER + INTRA:         -19.892
REMARK INTER:                 -17.934
REMARK INTRA:                  -1.958
REMARK CONF_INDEPENDENT:        2.983
REMARK UNBOUND:                -1.958
REMARK  10 active torsions:
REMARK  status: ('A' for Active; 'I' for Inactive)
REMARK    1  A    between atoms: C1_2  and  C2_3 
REMARK       I    between atoms: C1_2  and  N5_28 
REMARK    2  A    between atoms: C2_3  and  C3_4 
REMARK    3  A    between atoms: C3_4  and  C4_5 
REMARK    4  A    between atoms: C4_5  and  C5_6 
REMARK    5  A    between atoms: C5_6  and  C6_7 
REMARK    6  A    between atoms: C6_7  and  N1_8 
REMARK       I    between atoms: N1_8  and  C7_9 
REMARK       I    between atoms: C7_9  and  N2_11 
REMARK       I    between atoms: N2_11  and  C8_12 
REMARK    7  A    between atoms: C8_12  and  C9_14 
REMARK    8  A    between atoms: C12_17  and  N3_18 
REMARK    9  A    between atoms: C17_23  and  N4_24 
REMARK   10  A    between atoms: N5_28  and  O6_29 
ROOT
ATOM      1  N1  NON d   1     -44.694  17.242  -4.580  0.00  0.00    -0.343 N 
ATOM      2  C7  NON d   1     -43.368  17.555  -4.302  0.00  0.00     0.323 C 
ATOM      3  O2  NON d   1     -42.887  17.400  -3.186  0.00  0.00    -0.247 OA
ATOM      4  N2  NON d   1     -42.717  18.078  -5.400  0.00  0.00    -0.275 N 
ATOM      5  C8  NON d   1     -41.337  18.212  -5.426  0.00  0.00     0.259 C 
ATOM      6  O3  NON d   1     -40.570  17.641  -4.655  0.00  0.00    -0.267 OA
ATOM      7  H11 NON d   1     -44.876  16.967  -5.535  0.00  0.00     0.164 HD
ATOM      8  H12 NON d   1     -43.291  18.591  -6.042  0.00  0.00     0.173 HD
ENDROOT
BRANCH   5   9
ATOM      9  C9  NON d   1     -40.714  19.035  -6.510  0.00  0.00     0.035 A 
ATOM     10  C10 NON d   1     -41.437  20.137  -6.967  0.00  0.00     0.019 A 
ATOM     11  C11 NON d   1     -40.909  21.018  -7.924  0.00  0.00     0.033 A 
ATOM     12  C12 NON d   1     -39.625  20.880  -8.490  0.00  0.00     0.063 A 
ATOM     13  C17 NON d   1     -38.933  19.740  -8.016  0.00  0.00     0.130 A 
ATOM     14  C18 NON d   1     -39.451  18.828  -7.050  0.00  0.00     0.055 A 
BRANCH  12  15
ATOM     15  N3  NON d   1     -39.203  21.816  -9.418  0.00  0.00    -0.379 N 
ATOM     16  C13 NON d   1     -38.372  21.442 -10.576  0.00  0.00     0.123 C 
ATOM     17  C14 NON d   1     -38.345  22.667 -11.483  0.00  0.00     0.021 C 
ATOM     18  C15 NON d   1     -38.663  23.818 -10.553  0.00  0.00     0.021 C 
ATOM     19  C16 NON d   1     -39.635  23.209  -9.546  0.00  0.00     0.123 C 
ENDBRANCH  12  15
BRANCH  13  20
ATOM     20  N4  NON d   1     -37.601  19.403  -8.472  0.00  0.00    -0.113 N 
ATOM     21  O4  NON d   1     -37.440  18.259  -8.921  0.00  0.00    -0.532 OA
ATOM     22  O5  NON d   1     -36.704  20.236  -8.286  0.00  0.00    -0.532 OA
ENDBRANCH  13  20
ENDBRANCH   5   9
BRANCH   1  23
ATOM     23  C6  NON d   1     -45.424  16.505  -3.559  0.00  0.00     0.124 C 
BRANCH  23  24
ATOM     24  C5  NON d   1     -46.621  17.266  -2.998  0.00  0.00     0.020 C 
BRANCH  24  25
ATOM     25  C4  NON d   1     -47.786  16.353  -2.573  0.00  0.00     0.002 C 
BRANCH  25  26
ATOM     26  C3  NON d   1     -48.933  16.201  -3.586  0.00  0.00     0.009 C 
BRANCH  26  27
ATOM     27  C2  NON d   1     -48.618  15.279  -4.761  0.00  0.00     0.105 C 
BRANCH  27  28
ATOM     28  C1  NON d   1     -47.470  15.757  -5.633  0.00  0.00     0.240 C 
ATOM     29  O1  NON d   1     -46.693  15.005  -6.213  0.00  0.00    -0.271 OA
ATOM     30  N5  NON d   1     -47.385  17.138  -5.636  0.00  0.00    -0.237 N 
ATOM     31  H24 NON d   1     -48.215  17.696  -5.461  0.00  0.00     0.197 HD
BRANCH  30  32
ATOM     32  O6  NON d   1     -46.467  17.696  -6.552  0.00  0.00    -0.287 OA
ATOM     33  H25 NON d   1     -46.315  16.949  -7.161  0.00  0.00     0.244 HD
ENDBRANCH  30  32
ENDBRANCH  27  28
ENDBRANCH  26  27
ENDBRANCH  25  26
ENDBRANCH  24  25
ENDBRANCH  23  24
ENDBRANCH   1  23
TORSDOF 10
ENDMDL
MODEL 5
REMARK VINA RESULT:   -14.517      6.015      9.201
REMARK INTER + INTRA:         -18.926
REMARK INTER:                 -17.500
REMARK INTRA:                  -1.426
REMARK CONF_INDEPENDENT:        2.983
REMARK UNBOUND:                -1.426
REMARK  10 active torsions:
REMARK  status: ('A' for Active; 'I' for Inactive)
REMARK    1  A    between atoms: C1_2  and  C2_3 
REMARK       I    between atoms: C1_2  and  N5_28 
REMARK    2  A    between atoms: C2_3  and  C3_4 
REMARK    3  A    between atoms: C3_4  and  C4_5 
REMARK    4  A    between atoms: C4_5  and  C5_6 
REMARK    5  A    between atoms: C5_6  and  C6_7 
REMARK    6  A    between atoms: C6_7  and  N1_8 
REMARK       I    between atoms: N1_8  and  C7_9 
REMARK       I    between atoms: C7_9  and  N2_11 
REMARK       I    between atoms: N2_11  and  C8_12 
REMARK    7  A    between atoms: C8_12  and  C9_14 
REMARK    8  A    between atoms: C12_17  and  N3_18 
REMARK    9  A    between atoms: C17_23  and  N4_24 
REMARK   10  A    between atoms: N5_28  and  O6_29 
ROOT
ATOM      1  N1  NON d   1     -40.015  18.630  -2.064  0.00  0.00    -0.343 N 
ATOM      2  C7  NON d   1     -40.028  19.992  -2.341  0.00  0.00     0.323 C 
ATOM      3  O2  NON d   1     -39.865  20.422  -3.477  0.00  0.00    -0.247 OA
ATOM      4  N2  NON d   1     -40.202  20.753  -1.203  0.00  0.00    -0.275 N 
ATOM      5  C8  NON d   1     -40.505  22.104  -1.277  0.00  0.00     0.259 C 
ATOM      6  O3  NON d   1     -40.926  22.667  -2.285  0.00  0.00    -0.267 OA
ATOM      7  H11 NON d   1     -40.579  18.351  -1.271  0.00  0.00     0.164 HD
ATOM      8  H12 NON d   1     -39.839  20.357  -0.358  0.00  0.00     0.173 HD
ENDROOT
BRANCH   5   9
ATOM      9  C9  NON d   1     -40.404  22.932  -0.035  0.00  0.00     0.035 A 
ATOM     10  C10 NON d   1     -39.442  22.557   0.904  0.00  0.00     0.019 A 
ATOM     11  C11 NON d   1     -39.212  23.312   2.064  0.00  0.00     0.033 A 
ATOM     12  C12 NON d   1     -39.908  24.499   2.377  0.00  0.00     0.063 A 
ATOM     13  C17 NON d   1     -40.887  24.834   1.410  0.00  0.00     0.130 A 
ATOM     14  C18 NON d   1     -41.143  24.079   0.228  0.00  0.00     0.055 A 
BRANCH  12  15
ATOM     15  N3  NON d   1     -39.590  25.169   3.544  0.00  0.00    -0.379 N 
ATOM     16  C13 NON d   1     -38.672  26.322   3.553  0.00  0.00     0.123 C 
ATOM     17  C14 NON d   1     -38.787  26.936   4.943  0.00  0.00     0.021 C 
ATOM     18  C15 NON d   1     -39.298  25.800   5.803  0.00  0.00     0.021 C 
ATOM     19  C16 NON d   1     -40.211  25.019   4.862  0.00  0.00     0.123 C 
ENDBRANCH  12  15
BRANCH  13  20
ATOM     20  N4  NON d   1     -41.723  26.009   1.537  0.00  0.00    -0.113 N 
ATOM     21  O4  NON d   1     -41.813  26.738   0.538  0.00  0.00    -0.532 OA
ATOM     22  O5  NON d   1     -42.199  26.256   2.654  0.00  0.00    -0.532 OA
ENDBRANCH  13  20
ENDBRANCH   5   9
BRANCH   1  23
ATOM     23  C6  NON d   1     -40.035  17.725  -3.203  0.00  0.00     0.124 C 
BRANCH  23  24
ATOM     24  C5  NON d   1     -41.163  18.012  -4.189  0.00  0.00     0.020 C 
BRANCH  24  25
ATOM     25  C4  NON d   1     -42.529  17.460  -3.741  0.00  0.00     0.002 C 
BRANCH  25  26
ATOM     26  C3  NON d   1     -43.711  17.727  -4.687  0.00  0.00     0.009 C 
BRANCH  26  27
ATOM     27  C2  NON d   1     -45.047  17.175  -4.195  0.00  0.00     0.105 C 
BRANCH  27  28
ATOM     28  C1  NON d   1     -46.070  16.956  -5.297  0.00  0.00     0.240 C 
ATOM     29  O1  NON d   1     -46.298  17.766  -6.189  0.00  0.00    -0.271 OA
ATOM     30  N5  NON d   1     -46.743  15.758  -5.124  0.00  0.00    -0.237 N 
ATOM     31  H24 NON d   1     -46.297  14.995  -4.625  0.00  0.00     0.197 HD
BRANCH  30  32
ATOM     32  O6  NON d   1     -47.589  15.370  -6.185  0.00  0.00    -0.287 OA
ATOM     33  H25 NON d   1     -47.467  16.105  -6.816  0.00  0.00     0.244 HD
ENDBRANCH  30  32
ENDBRANCH  27  28
ENDBRANCH  26  27
ENDBRANCH  25  26
ENDBRANCH  24  25
ENDBRANCH  23  24
ENDBRANCH   1  23
TORSDOF 10
ENDMDL
