MODEL 1
REMARK VINA RESULT:   -15.776      0.000      0.000
REMARK INTER + INTRA:         -20.673
REMARK INTER:                 -18.163
REMARK INTRA:                  -2.510
REMARK CONF_INDEPENDENT:        2.386
REMARK UNBOUND:                -2.510
REMARK  8 active torsions:
REMARK  status: ('A' for Active; 'I' for Inactive)
REMARK    1  A    between atoms: C1_2  and  C2_3 
REMARK       I    between atoms: C1_2  and  N3_30 
REMARK    2  A    between atoms: C3_4  and  C4_5 
REMARK    3  A    between atoms: C8_9  and  C9_10 
REMARK    4  A    between atoms: C9_10  and  C10_11 
REMARK    5  A    between atoms: C9_10  and  C17_20 
REMARK       I    between atoms: C10_11  and  N1_13 
REMARK    6  A    between atoms: N1_13  and  C11_14 
REMARK       I    between atoms: C17_20  and  N2_22 
REMARK    7  A    between atoms: N2_22  and  C18_23 
REMARK    8  A    between atoms: N3_30  and  O4_31 
ROOT
ATOM      1  C9  NON d   1     -40.046  20.379  -5.485  0.00  0.00     0.203 C 
ENDROOT
BRANCH   1   2
ATOM      2  C8  NON d   1     -40.856  19.345  -4.670  0.00  0.00    -0.035 A 
ATOM      3  C7  NON d   1     -40.436  18.947  -3.388  0.00  0.00     0.008 A 
ATOM      4  C6  NON d   1     -41.152  18.008  -2.646  0.00  0.00     0.001 A 
ATOM      5  C5  NON d   1     -42.302  17.427  -3.173  0.00  0.00     0.011 A 
ATOM      6  C4  NON d   1     -42.732  17.748  -4.463  0.00  0.00    -0.035 A 
ATOM      7  C24 NON d   1     -41.985  18.686  -5.203  0.00  0.00     0.020 A 
BRANCH   6   8
ATOM      8  C3  NON d   1     -43.965  17.196  -5.062  0.00  0.00     0.017 C 
ATOM      9  C2  NON d   1     -45.187  17.742  -4.969  0.00  0.00     0.077 C 
BRANCH   9  10
ATOM     10  C1  NON d   1     -46.341  17.121  -5.663  0.00  0.00     0.264 C 
ATOM     11  O1  NON d   1     -47.244  17.758  -6.194  0.00  0.00    -0.266 OA
ATOM     12  N3  NON d   1     -46.314  15.753  -5.630  0.00  0.00    -0.234 N 
ATOM     13  H20 NON d   1     -45.626  15.183  -5.155  0.00  0.00     0.197 HD
BRANCH  12  14
ATOM     14  O4  NON d   1     -47.425  15.081  -6.184  0.00  0.00    -0.287 OA
ATOM     15  H21 NON d   1     -47.812  15.766  -6.774  0.00  0.00     0.244 HD
ENDBRANCH  12  14
ENDBRANCH   9  10
ENDBRANCH   6   8
ENDBRANCH   1   2
BRANCH   1  16
ATOM     16  C10 NON d   1     -39.834  21.703  -4.738  0.00  0.00     0.239 C 
ATOM     17  O2  NON d   1     -38.871  22.437  -4.949  0.00  0.00    -0.272 OA
ATOM     18  N1  NON d   1     -40.785  21.933  -3.744  0.00  0.00    -0.326 N 
ATOM     19  H7  NON d   1     -41.398  21.175  -3.467  0.00  0.00     0.169 HD
BRANCH  18  20
ATOM     20  C11 NON d   1     -40.868  23.105  -2.961  0.00  0.00     0.034 A 
ATOM     21  C12 NON d   1     -40.872  23.077  -1.564  0.00  0.00     0.029 A 
ATOM     22  C13 NON d   1     -40.916  24.268  -0.834  0.00  0.00     0.002 A 
ATOM     23  C14 NON d   1     -40.987  25.491  -1.496  0.00  0.00     0.000 A 
ATOM     24  C15 NON d   1     -40.991  25.526  -2.889  0.00  0.00     0.002 A 
ATOM     25  C16 NON d   1     -40.906  24.338  -3.620  0.00  0.00     0.029 A 
ENDBRANCH  18  20
ENDBRANCH   1  16
BRANCH   1  26
ATOM     26  C17 NON d   1     -40.531  20.668  -6.924  0.00  0.00     0.239 C 
ATOM     27  O3  NON d   1     -41.121  19.853  -7.629  0.00  0.00    -0.272 OA
ATOM     28  N2  NON d   1     -40.123  21.918  -7.397  0.00  0.00    -0.326 N 
ATOM     29  H13 NON d   1     -40.099  22.684  -6.735  0.00  0.00     0.169 HD
BRANCH  28  30
ATOM     30  C18 NON d   1     -39.908  22.277  -8.745  0.00  0.00     0.034 A 
ATOM     31  C19 NON d   1     -40.310  23.558  -9.145  0.00  0.00     0.029 A 
ATOM     32  C20 NON d   1     -40.057  24.008 -10.444  0.00  0.00     0.002 A 
ATOM     33  C21 NON d   1     -39.400  23.183 -11.353  0.00  0.00     0.000 A 
ATOM     34  C22 NON d   1     -38.998  21.909 -10.963  0.00  0.00     0.002 A 
ATOM     35  C23 NON d   1     -39.247  21.458  -9.664  0.00  0.00     0.029 A 
ENDBRANCH  28  30
ENDBRANCH   1  26
TORSDOF 8
ENDMDL
MODEL 2
REMARK VINA RESULT:   -15.663      0.813      1.523
REMARK INTER + INTRA:         -20.493
REMARK INTER:                 -18.049
REMARK INTRA:                  -2.444
REMARK CONF_INDEPENDENT:        2.386
REMARK UNBOUND:                -2.444
REMARK  8 active torsions:
REMARK  status: ('A' for Active; 'I' for Inactive)
REMARK    1  A    between atoms: C1_2  and  C2_3 
REMARK       I    between atoms: C1_2  and  N3_30 
REMARK    2  A    between atoms: C3_4  and  C4_5 
REMARK    3  A    between atoms: C8_9  and  C9_10 
REMARK    4  A    between atoms: C9_10  and  C10_11 
REMARK    5  A    between atoms: C9_10  and  C17_20 
REMARK       I    between atoms: C10_11  and  N1_13 
REMARK    6  A    between atoms: N1_13  and  C11_14 
REMARK       I    between atoms: C17_20  and  N2_22 
REMARK    7  A    between atoms: N2_22  and  C18_23 
REMARK    8  A    between atoms: N3_30  and  O4_31 
ROOT
ATOM      1  C9  NON d   1     -40.467  20.656  -4.940  0.00  0.00     0.203 C 
ENDROOT
BRANCH   1   2
ATOM      2  C8  NON d   1     -41.090  19.389  -4.311  0.00  0.00    -0.035 A 
ATOM      3  C7  NON d   1     -40.491  18.764  -3.202  0.00  0.00     0.008 A 
ATOM      4  C6  NON d   1     -41.038  17.616  -2.630  0.00  0.00     0.001 A 
ATOM      5  C5  NON d   1     -42.193  17.048  -3.163  0.00  0.00     0.011 A 
ATOM      6  C4  NON d   1     -42.796  17.599  -4.297  0.00  0.00    -0.035 A 
ATOM      7  C24 NON d   1     -42.218  18.749  -4.870  0.00  0.00     0.020 A 
BRANCH   6   8
ATOM      8  C3  NON d   1     -44.043  17.067  -4.885  0.00  0.00     0.017 C 
ATOM      9  C2  NON d   1     -45.187  17.751  -5.031  0.00  0.00     0.077 C 
BRANCH   9  10
ATOM     10  C1  NON d   1     -46.358  17.123  -5.689  0.00  0.00     0.264 C 
ATOM     11  O1  NON d   1     -47.284  17.754  -6.185  0.00  0.00    -0.266 OA
ATOM     12  N3  NON d   1     -46.317  15.755  -5.664  0.00  0.00    -0.234 N 
ATOM     13  H20 NON d   1     -45.608  15.189  -5.216  0.00  0.00     0.197 HD
BRANCH  12  14
ATOM     14  O4  NON d   1     -47.440  15.076  -6.185  0.00  0.00    -0.287 OA
ATOM     15  H21 NON d   1     -48.077  15.809  -6.339  0.00  0.00     0.244 HD
ENDBRANCH  12  14
ENDBRANCH   9  10
ENDBRANCH   6   8
ENDBRANCH   1   2
BRANCH   1  16
ATOM     16  C10 NON d   1     -40.784  21.937  -4.156  0.00  0.00     0.239 C 
ATOM     17  O2  NON d   1     -41.302  22.922  -4.677  0.00  0.00    -0.272 OA
ATOM     18  N1  NON d   1     -40.343  21.897  -2.834  0.00  0.00    -0.326 N 
ATOM     19  H7  NON d   1     -39.714  21.155  -2.549  0.00  0.00     0.169 HD
BRANCH  18  20
ATOM     20  C11 NON d   1     -40.571  22.907  -1.874  0.00  0.00     0.034 A 
ATOM     21  C12 NON d   1     -40.739  24.250  -2.221  0.00  0.00     0.029 A 
ATOM     22  C13 NON d   1     -41.001  25.207  -1.238  0.00  0.00     0.002 A 
ATOM     23  C14 NON d   1     -41.068  24.831   0.102  0.00  0.00     0.000 A 
ATOM     24  C15 NON d   1     -40.895  23.495   0.457  0.00  0.00     0.002 A 
ATOM     25  C16 NON d   1     -40.672  22.531  -0.531  0.00  0.00     0.029 A 
ENDBRANCH  18  20
ENDBRANCH   1  16
BRANCH   1  26
ATOM     26  C17 NON d   1     -40.731  20.891  -6.445  0.00  0.00     0.239 C 
ATOM     27  O3  NON d   1     -41.318  20.094  -7.173  0.00  0.00    -0.272 OA
ATOM     28  N2  NON d   1     -40.127  22.053  -6.931  0.00  0.00    -0.326 N 
ATOM     29  H13 NON d   1     -40.098  22.857  -6.317  0.00  0.00     0.169 HD
BRANCH  28  30
ATOM     30  C18 NON d   1     -39.705  22.288  -8.257  0.00  0.00     0.034 A 
ATOM     31  C19 NON d   1     -39.018  21.254  -8.909  0.00  0.00     0.029 A 
ATOM     32  C20 NON d   1     -38.638  21.389 -10.248  0.00  0.00     0.002 A 
ATOM     33  C21 NON d   1     -38.942  22.555 -10.945  0.00  0.00     0.000 A 
ATOM     34  C22 NON d   1     -39.622  23.586 -10.305  0.00  0.00     0.002 A 
ATOM     35  C23 NON d   1     -40.006  23.452  -8.967  0.00  0.00     0.029 A 
ENDBRANCH  28  30
ENDBRANCH   1  26
TORSDOF 8
ENDMDL
MODEL 3
REMARK VINA RESULT:   -15.653      1.951      6.427
REMARK INTER + INTRA:         -20.020
REMARK INTER:                 -18.039
REMARK INTRA:                  -1.980
REMARK CONF_INDEPENDENT:        2.386
REMARK UNBOUND:                -1.980
REMARK  8 active torsions:
REMARK  status: ('A' for Active; 'I' for Inactive)
REMARK    1  A    between atoms: C1_2  and  C2_3 
REMARK       I    between atoms: C1_2  and  N3_30 
REMARK    2  A    between atoms: C3_4  and  C4_5 
REMARK    3  A    between atoms: C8_9  and  C9_10 
REMARK    4  A    between atoms: C9_10  and  C10_11 
REMARK    5  A    between atoms: C9_10  and  C17_20 
REMARK       I    between atoms: C10_11  and  N1_13 
REMARK    6  A    between atoms: N1_13  and  C11_14 
REMARK       I    between atoms: C17_20  and  N2_22 
REMARK    7  A    between atoms: N2_22  and  C18_23 
REMARK    8  A    between atoms: N3_30  and  O4_31 
ROOT
ATOM      1  C9  NON d   1     -40.310  21.239  -4.001  0.00  0.00     0.203 C 
ENDROOT
BRANCH   1   2
ATOM      2  C8  NON d   1     -40.966  19.871  -3.710  0.00  0.00    -0.035 A 
ATOM      3  C7  NON d   1     -40.448  19.017  -2.719  0.00  0.00     0.008 A 
ATOM      4  C6  NON d   1     -41.026  17.775  -2.454  0.00  0.00     0.001 A 
ATOM      5  C5  NON d   1     -42.130  17.344  -3.185  0.00  0.00     0.011 A 
ATOM      6  C4  NON d   1     -42.649  18.130  -4.216  0.00  0.00    -0.035 A 
ATOM      7  C24 NON d   1     -42.041  19.374  -4.480  0.00  0.00     0.020 A 
BRANCH   6   8
ATOM      8  C3  NON d   1     -43.841  17.746  -5.001  0.00  0.00     0.017 C 
ATOM      9  C2  NON d   1     -44.981  17.255  -4.492  0.00  0.00     0.077 C 
BRANCH   9  10
ATOM     10  C1  NON d   1     -46.131  16.958  -5.379  0.00  0.00     0.264 C 
ATOM     11  O1  NON d   1     -46.588  17.749  -6.197  0.00  0.00    -0.266 OA
ATOM     12  N3  NON d   1     -46.656  15.710  -5.176  0.00  0.00    -0.234 N 
ATOM     13  H20 NON d   1     -46.356  15.045  -4.475  0.00  0.00     0.197 HD
BRANCH  12  14
ATOM     14  O4  NON d   1     -47.815  15.380  -5.912  0.00  0.00    -0.287 OA
ATOM     15  H21 NON d   1     -47.773  16.011  -6.665  0.00  0.00     0.244 HD
ENDBRANCH  12  14
ENDBRANCH   9  10
ENDBRANCH   6   8
ENDBRANCH   1   2
BRANCH   1  16
ATOM     16  C10 NON d   1     -39.229  21.170  -5.090  0.00  0.00     0.239 C 
ATOM     17  O2  NON d   1     -38.264  21.931  -5.116  0.00  0.00    -0.272 OA
ATOM     18  N1  NON d   1     -39.506  20.229  -6.081  0.00  0.00    -0.326 N 
ATOM     19  H7  NON d   1     -40.430  19.816  -6.121  0.00  0.00     0.169 HD
BRANCH  18  20
ATOM     20  C11 NON d   1     -38.646  19.908  -7.154  0.00  0.00     0.034 A 
ATOM     21  C12 NON d   1     -38.670  20.597  -8.369  0.00  0.00     0.029 A 
ATOM     22  C13 NON d   1     -37.771  20.267  -9.386  0.00  0.00     0.002 A 
ATOM     23  C14 NON d   1     -36.863  19.226  -9.206  0.00  0.00     0.000 A 
ATOM     24  C15 NON d   1     -36.838  18.530  -7.999  0.00  0.00     0.002 A 
ATOM     25  C16 NON d   1     -37.710  18.886  -6.966  0.00  0.00     0.029 A 
ENDBRANCH  18  20
ENDBRANCH   1  16
BRANCH   1  26
ATOM     26  C17 NON d   1     -39.770  22.027  -2.786  0.00  0.00     0.239 C 
ATOM     27  O3  NON d   1     -38.641  21.889  -2.322  0.00  0.00    -0.272 OA
ATOM     28  N2  NON d   1     -40.740  22.833  -2.183  0.00  0.00    -0.326 N 
ATOM     29  H13 NON d   1     -41.415  23.285  -2.787  0.00  0.00     0.169 HD
BRANCH  28  30
ATOM     30  C18 NON d   1     -40.777  23.231  -0.829  0.00  0.00     0.034 A 
ATOM     31  C19 NON d   1     -40.310  22.318   0.126  0.00  0.00     0.029 A 
ATOM     32  C20 NON d   1     -40.247  22.675   1.476  0.00  0.00     0.002 A 
ATOM     33  C21 NON d   1     -40.646  23.945   1.882  0.00  0.00     0.000 A 
ATOM     34  C22 NON d   1     -41.111  24.857   0.940  0.00  0.00     0.002 A 
ATOM     35  C23 NON d   1     -41.173  24.504  -0.411  0.00  0.00     0.029 A 
ENDBRANCH  28  30
ENDBRANCH   1  26
TORSDOF 8
ENDMDL
MODEL 4
REMARK VINA RESULT:   -15.332      1.363      1.815
REMARK INTER + INTRA:         -20.050
REMARK INTER:                 -17.718
REMARK INTRA:                  -2.332
REMARK CONF_INDEPENDENT:        2.386
REMARK UNBOUND:                -2.332
REMARK  8 active torsions:
REMARK  status: ('A' for Active; 'I' for Inactive)
REMARK    1  A    between atoms: C1_2  and  C2_3 
REMARK       I    between atoms: C1_2  and  N3_30 
REMARK    2  A    between atoms: C3_4  and  C4_5 
REMARK    3  A    between atoms: C8_9  and  C9_10 
REMARK    4  A    between atoms: C9_10  and  C10_11 
REMARK    5  A    between atoms: C9_10  and  C17_20 
REMARK       I    between atoms: C10_11  and  N1_13 
REMARK    6  A    between atoms: N1_13  and  C11_14 
REMARK       I    between atoms: C17_20  and  N2_22 
REMARK    7  A    between atoms: N2_22  and  C18_23 
REMARK    8  A    between atoms: N3_30  and  O4_31 
ROOT
ATOM      1  C9  NON d   1     -40.029  20.889  -4.397  0.00  0.00     0.203 C 
ENDROOT
BRANCH   1   2
ATOM      2  C8  NON d   1     -40.768  19.602  -3.966  0.00  0.00    -0.035 A 
ATOM      3  C7  NON d   1     -40.299  18.826  -2.890  0.00  0.00     0.008 A 
ATOM      4  C6  NON d   1     -40.951  17.657  -2.497  0.00  0.00     0.001 A 
ATOM      5  C5  NON d   1     -42.082  17.221  -3.181  0.00  0.00     0.011 A 
ATOM      6  C4  NON d   1     -42.556  17.925  -4.291  0.00  0.00    -0.035 A 
ATOM      7  C24 NON d   1     -41.873  19.094  -4.683  0.00  0.00     0.020 A 
BRANCH   6   8
ATOM      8  C3  NON d   1     -43.772  17.534  -5.034  0.00  0.00     0.017 C 
ATOM      9  C2  NON d   1     -44.980  17.322  -4.492  0.00  0.00     0.077 C 
BRANCH   9  10
ATOM     10  C1  NON d   1     -46.141  16.988  -5.351  0.00  0.00     0.264 C 
ATOM     11  O1  NON d   1     -46.617  17.749  -6.185  0.00  0.00    -0.266 OA
ATOM     12  N3  NON d   1     -46.651  15.742  -5.102  0.00  0.00    -0.234 N 
ATOM     13  H20 NON d   1     -46.333  15.101  -4.386  0.00  0.00     0.197 HD
BRANCH  12  14
ATOM     14  O4  NON d   1     -47.817  15.379  -5.810  0.00  0.00    -0.287 OA
ATOM     15  H21 NON d   1     -47.785  15.977  -6.589  0.00  0.00     0.244 HD
ENDBRANCH  12  14
ENDBRANCH   9  10
ENDBRANCH   6   8
ENDBRANCH   1   2
BRANCH   1  16
ATOM     16  C10 NON d   1     -40.288  22.076  -3.458  0.00  0.00     0.239 C 
ATOM     17  O2  NON d   1     -40.506  23.213  -3.871  0.00  0.00    -0.272 OA
ATOM     18  N1  NON d   1     -40.159  21.748  -2.109  0.00  0.00    -0.326 N 
ATOM     19  H7  NON d   1     -39.742  20.859  -1.858  0.00  0.00     0.169 HD
BRANCH  18  20
ATOM     20  C11 NON d   1     -40.417  22.628  -1.035  0.00  0.00     0.034 A 
ATOM     21  C12 NON d   1     -41.123  23.823  -1.195  0.00  0.00     0.029 A 
ATOM     22  C13 NON d   1     -41.386  24.641  -0.093  0.00  0.00     0.002 A 
ATOM     23  C14 NON d   1     -40.918  24.285   1.169  0.00  0.00     0.000 A 
ATOM     24  C15 NON d   1     -40.206  23.098   1.335  0.00  0.00     0.002 A 
ATOM     25  C16 NON d   1     -39.978  22.259   0.240  0.00  0.00     0.029 A 
ENDBRANCH  18  20
ENDBRANCH   1  16
BRANCH   1  26
ATOM     26  C17 NON d   1     -40.210  21.340  -5.865  0.00  0.00     0.239 C 
ATOM     27  O3  NON d   1     -40.964  20.792  -6.665  0.00  0.00    -0.272 OA
ATOM     28  N2  NON d   1     -39.337  22.367  -6.232  0.00  0.00    -0.326 N 
ATOM     29  H13 NON d   1     -39.121  23.070  -5.537  0.00  0.00     0.169 HD
BRANCH  28  30
ATOM     30  C18 NON d   1     -38.854  22.633  -7.531  0.00  0.00     0.034 A 
ATOM     31  C19 NON d   1     -39.753  23.184  -8.455  0.00  0.00     0.029 A 
ATOM     32  C20 NON d   1     -39.323  23.544  -9.735  0.00  0.00     0.002 A 
ATOM     33  C21 NON d   1     -37.993  23.359 -10.103  0.00  0.00     0.000 A 
ATOM     34  C22 NON d   1     -37.095  22.813  -9.192  0.00  0.00     0.002 A 
ATOM     35  C23 NON d   1     -37.521  22.454  -7.910  0.00  0.00     0.029 A 
ENDBRANCH  28  30
ENDBRANCH   1  26
TORSDOF 8
ENDMDL
MODEL 5
REMARK VINA RESULT:   -15.051      1.722      5.632
REMARK INTER + INTRA:         -19.915
REMARK INTER:                 -17.438
REMARK INTRA:                  -2.477
REMARK CONF_INDEPENDENT:        2.386
REMARK UNBOUND:                -2.477
REMARK  8 active torsions:
REMARK  status: ('A' for Active; 'I' for Inactive)
REMARK    1  A    between atoms: C1_2  and  C2_3 
REMARK       I    between atoms: C1_2  and  N3_30 
REMARK    2  A    between atoms: C3_4  and  C4_5 
REMARK    3  A    between atoms: C8_9  and  C9_10 
REMARK    4  A    between atoms: C9_10  and  C10_11 
REMARK    5  A    between atoms: C9_10  and  C17_20 
REMARK       I    between atoms: C10_11  and  N1_13 
REMARK    6  A    between atoms: N1_13  and  C11_14 
REMARK       I    between atoms: C17_20  and  N2_22 
REMARK    7  A    between atoms: N2_22  and  C18_23 
REMARK    8  A    between atoms: N3_30  and  O4_31 
ROOT
ATOM      1  C9  NON d   1     -41.022  21.283  -4.552  0.00  0.00     0.203 C 
ENDROOT
BRANCH   1   2
ATOM      2  C8  NON d   1     -41.416  19.870  -4.066  0.00  0.00    -0.035 A 
ATOM      3  C7  NON d   1     -40.628  19.184  -3.124  0.00  0.00     0.008 A 
ATOM      4  C6  NON d   1     -40.968  17.905  -2.684  0.00  0.00     0.001 A 
ATOM      5  C5  NON d   1     -42.098  17.267  -3.187  0.00  0.00     0.011 A 
ATOM      6  C4  NON d   1     -42.884  17.883  -4.165  0.00  0.00    -0.035 A 
ATOM      7  C24 NON d   1     -42.515  19.168  -4.609  0.00  0.00     0.020 A 
BRANCH   6   8
ATOM      8  C3  NON d   1     -44.116  17.275  -4.709  0.00  0.00     0.017 C 
ATOM      9  C2  NON d   1     -45.189  17.951  -5.145  0.00  0.00     0.077 C 
BRANCH   9  10
ATOM     10  C1  NON d   1     -46.348  17.227  -5.723  0.00  0.00     0.264 C 
ATOM     11  O1  NON d   1     -47.295  17.779  -6.271  0.00  0.00    -0.266 OA
ATOM     12  N3  NON d   1     -46.268  15.871  -5.560  0.00  0.00    -0.234 N 
ATOM     13  H20 NON d   1     -45.540  15.373  -5.064  0.00  0.00     0.197 HD
BRANCH  12  14
ATOM     14  O4  NON d   1     -47.376  15.112  -5.996  0.00  0.00    -0.287 OA
ATOM     15  H21 NON d   1     -48.011  15.808  -6.274  0.00  0.00     0.244 HD
ENDBRANCH  12  14
ENDBRANCH   9  10
ENDBRANCH   6   8
ENDBRANCH   1   2
BRANCH   1  16
ATOM     16  C10 NON d   1     -39.877  21.271  -5.576  0.00  0.00     0.239 C 
ATOM     17  O2  NON d   1     -39.097  22.210  -5.710  0.00  0.00    -0.272 OA
ATOM     18  N1  NON d   1     -39.877  20.136  -6.387  0.00  0.00    -0.326 N 
ATOM     19  H7  NON d   1     -40.687  19.528  -6.381  0.00  0.00     0.169 HD
BRANCH  18  20
ATOM     20  C11 NON d   1     -38.895  19.836  -7.356  0.00  0.00     0.034 A 
ATOM     21  C12 NON d   1     -38.720  20.602  -8.512  0.00  0.00     0.029 A 
ATOM     22  C13 NON d   1     -37.707  20.286  -9.421  0.00  0.00     0.002 A 
ATOM     23  C14 NON d   1     -36.884  19.186  -9.196  0.00  0.00     0.000 A 
ATOM     24  C15 NON d   1     -37.057  18.413  -8.049  0.00  0.00     0.002 A 
ATOM     25  C16 NON d   1     -38.043  18.752  -7.119  0.00  0.00     0.029 A 
ENDBRANCH  18  20
ENDBRANCH   1  16
BRANCH   1  26
ATOM     26  C17 NON d   1     -40.731  22.341  -3.463  0.00  0.00     0.239 C 
ATOM     27  O3  NON d   1     -40.676  22.094  -2.261  0.00  0.00    -0.272 OA
ATOM     28  N2  NON d   1     -40.655  23.641  -3.971  0.00  0.00    -0.326 N 
ATOM     29  H13 NON d   1     -40.235  23.763  -4.883  0.00  0.00     0.169 HD
BRANCH  28  30
ATOM     30  C18 NON d   1     -40.942  24.833  -3.272  0.00  0.00     0.034 A 
ATOM     31  C19 NON d   1     -40.814  24.810  -1.876  0.00  0.00     0.029 A 
ATOM     32  C20 NON d   1     -41.008  25.974  -1.127  0.00  0.00     0.002 A 
ATOM     33  C21 NON d   1     -41.328  27.170  -1.765  0.00  0.00     0.000 A 
ATOM     34  C22 NON d   1     -41.457  27.200  -3.150  0.00  0.00     0.002 A 
ATOM     35  C23 NON d   1     -41.262  26.038  -3.901  0.00  0.00     0.029 A 
ENDBRANCH  28  30
ENDBRANCH   1  26
TORSDOF 8
ENDMDL
MODEL 6
REMARK VINA RESULT:   -14.906      1.497      5.669
REMARK INTER + INTRA:         -19.772
REMARK INTER:                 -17.292
REMARK INTRA:                  -2.480
REMARK CONF_INDEPENDENT:        2.386
REMARK UNBOUND:                -2.480
REMARK  8 active torsions:
REMARK  status: ('A' for Active; 'I' for Inactive)
REMARK    1  A    between atoms: C1_2  and  C2_3 
REMARK       I    between atoms: C1_2  and  N3_30 
REMARK    2  A    between atoms: C3_4  and  C4_5 
REMARK    3  A    between atoms: C8_9  and  C9_10 
REMARK    4  A    between atoms: C9_10  and  C10_11 
REMARK    5  A    between atoms: C9_10  and  C17_20 
REMARK       I    between atoms: C10_11  and  N1_13 
REMARK    6  A    between atoms: N1_13  and  C11_14 
REMARK       I    between atoms: C17_20  and  N2_22 
REMARK    7  A    between atoms: N2_22  and  C18_23 
REMARK    8  A    between atoms: N3_30  and  O4_31 
ROOT
ATOM      1  C9  NON d   1     -40.988  20.974  -5.309  0.00  0.00     0.203 C 
ENDROOT
BRANCH   1   2
ATOM      2  C8  NON d   1     -41.478  19.764  -4.483  0.00  0.00    -0.035 A 
ATOM      3  C7  NON d   1     -40.908  19.466  -3.231  0.00  0.00     0.008 A 
ATOM      4  C6  NON d   1     -41.335  18.371  -2.480  0.00  0.00     0.001 A 
ATOM      5  C5  NON d   1     -42.334  17.532  -2.967  0.00  0.00     0.011 A 
ATOM      6  C4  NON d   1     -42.894  17.753  -4.228  0.00  0.00    -0.035 A 
ATOM      7  C24 NON d   1     -42.437  18.855  -4.979  0.00  0.00     0.020 A 
BRANCH   6   8
ATOM      8  C3  NON d   1     -43.984  16.923  -4.782  0.00  0.00     0.017 C 
ATOM      9  C2  NON d   1     -45.237  17.341  -5.017  0.00  0.00     0.077 C 
BRANCH   9  10
ATOM     10  C1  NON d   1     -46.230  16.426  -5.630  0.00  0.00     0.264 C 
ATOM     11  O1  NON d   1     -45.940  15.370  -6.181  0.00  0.00    -0.266 OA
ATOM     12  N3  NON d   1     -47.514  16.893  -5.543  0.00  0.00    -0.234 N 
ATOM     13  H20 NON d   1     -47.798  17.783  -5.153  0.00  0.00     0.197 HD
BRANCH  12  14
ATOM     14  O4  NON d   1     -48.513  16.130  -6.185  0.00  0.00    -0.287 OA
ATOM     15  H21 NON d   1     -48.129  15.225  -6.170  0.00  0.00     0.244 HD
ENDBRANCH  12  14
ENDBRANCH   9  10
ENDBRANCH   6   8
ENDBRANCH   1   2
BRANCH   1  16
ATOM     16  C10 NON d   1     -40.408  20.577  -6.675  0.00  0.00     0.239 C 
ATOM     17  O2  NON d   1     -41.100  20.120  -7.582  0.00  0.00    -0.272 OA
ATOM     18  N1  NON d   1     -39.021  20.701  -6.741  0.00  0.00    -0.326 N 
ATOM     19  H7  NON d   1     -38.500  20.850  -5.885  0.00  0.00     0.169 HD
BRANCH  18  20
ATOM     20  C11 NON d   1     -38.244  20.476  -7.898  0.00  0.00     0.034 A 
ATOM     21  C12 NON d   1     -38.236  21.357  -8.982  0.00  0.00     0.029 A 
ATOM     22  C13 NON d   1     -37.419  21.109 -10.088  0.00  0.00     0.002 A 
ATOM     23  C14 NON d   1     -36.628  19.964 -10.130  0.00  0.00     0.000 A 
ATOM     24  C15 NON d   1     -36.636  19.076  -9.056  0.00  0.00     0.002 A 
ATOM     25  C16 NON d   1     -37.423  19.345  -7.932  0.00  0.00     0.029 A 
ENDBRANCH  18  20
ENDBRANCH   1  16
BRANCH   1  26
ATOM     26  C17 NON d   1     -40.025  21.958  -4.605  0.00  0.00     0.239 C 
ATOM     27  O3  NON d   1     -38.899  21.658  -4.216  0.00  0.00    -0.272 OA
ATOM     28  N2  NON d   1     -40.609  23.200  -4.341  0.00  0.00    -0.326 N 
ATOM     29  H13 NON d   1     -41.254  23.569  -5.028  0.00  0.00     0.169 HD
BRANCH  28  30
ATOM     30  C18 NON d   1     -40.263  24.086  -3.299  0.00  0.00     0.034 A 
ATOM     31  C19 NON d   1     -40.637  25.429  -3.442  0.00  0.00     0.029 A 
ATOM     32  C20 NON d   1     -40.394  26.346  -2.415  0.00  0.00     0.002 A 
ATOM     33  C21 NON d   1     -39.780  25.929  -1.238  0.00  0.00     0.000 A 
ATOM     34  C22 NON d   1     -39.405  24.597  -1.088  0.00  0.00     0.002 A 
ATOM     35  C23 NON d   1     -39.649  23.678  -2.112  0.00  0.00     0.029 A 
ENDBRANCH  28  30
ENDBRANCH   1  26
TORSDOF 8
ENDMDL
MODEL 7
REMARK VINA RESULT:   -14.733      1.597      2.234
REMARK INTER + INTRA:         -19.570
REMARK INTER:                 -17.119
REMARK INTRA:                  -2.451
REMARK CONF_INDEPENDENT:        2.386
REMARK UNBOUND:                -2.451
REMARK  8 active torsions:
REMARK  status: ('A' for Active; 'I' for Inactive)
REMARK    1  A    between atoms: C1_2  and  C2_3 
REMARK       I    between atoms: C1_2  and  N3_30 
REMARK    2  A    between atoms: C3_4  and  C4_5 
REMARK    3  A    between atoms: C8_9  and  C9_10 
REMARK    4  A    between atoms: C9_10  and  C10_11 
REMARK    5  A    between atoms: C9_10  and  C17_20 
REMARK       I    between atoms: C10_11  and  N1_13 
REMARK    6  A    between atoms: N1_13  and  C11_14 
REMARK       I    between atoms: C17_20  and  N2_22 
REMARK    7  A    between atoms: N2_22  and  C18_23 
REMARK    8  A    between atoms: N3_30  and  O4_31 
ROOT
ATOM      1  C9  NON d   1     -39.770  20.752  -4.081  0.00  0.00     0.203 C 
ENDROOT
BRANCH   1   2
ATOM      2  C8  NON d   1     -40.634  19.526  -3.706  0.00  0.00    -0.035 A 
ATOM      3  C7  NON d   1     -40.297  18.715  -2.607  0.00  0.00     0.008 A 
ATOM      4  C6  NON d   1     -41.063  17.601  -2.263  0.00  0.00     0.001 A 
ATOM      5  C5  NON d   1     -42.179  17.256  -3.020  0.00  0.00     0.011 A 
ATOM      6  C4  NON d   1     -42.525  17.997  -4.153  0.00  0.00    -0.035 A 
ATOM      7  C24 NON d   1     -41.729  19.109  -4.493  0.00  0.00     0.020 A 
BRANCH   6   8
ATOM      8  C3  NON d   1     -43.719  17.705  -4.973  0.00  0.00     0.017 C 
ATOM      9  C2  NON d   1     -44.855  17.153  -4.523  0.00  0.00     0.077 C 
BRANCH   9  10
ATOM     10  C1  NON d   1     -46.009  16.960  -5.435  0.00  0.00     0.264 C 
ATOM     11  O1  NON d   1     -46.426  17.819  -6.203  0.00  0.00    -0.266 OA
ATOM     12  N3  NON d   1     -46.585  15.724  -5.316  0.00  0.00    -0.234 N 
ATOM     13  H20 NON d   1     -46.317  15.004  -4.658  0.00  0.00     0.197 HD
BRANCH  12  14
ATOM     14  O4  NON d   1     -47.749  15.489  -6.080  0.00  0.00    -0.287 OA
ATOM     15  H21 NON d   1     -47.769  16.269  -6.677  0.00  0.00     0.244 HD
ENDBRANCH  12  14
ENDBRANCH   9  10
ENDBRANCH   6   8
ENDBRANCH   1   2
BRANCH   1  16
ATOM     16  C10 NON d   1     -40.581  22.051  -4.188  0.00  0.00     0.239 C 
ATOM     17  O2  NON d   1     -41.784  22.105  -3.941  0.00  0.00    -0.272 OA
ATOM     18  N1  NON d   1     -39.838  23.125  -4.677  0.00  0.00    -0.326 N 
ATOM     19  H7  NON d   1     -38.928  22.946  -5.085  0.00  0.00     0.169 HD
BRANCH  18  20
ATOM     20  C11 NON d   1     -40.315  24.448  -4.802  0.00  0.00     0.034 A 
ATOM     21  C12 NON d   1     -40.148  25.201  -5.967  0.00  0.00     0.029 A 
ATOM     22  C13 NON d   1     -40.674  26.492  -6.055  0.00  0.00     0.002 A 
ATOM     23  C14 NON d   1     -41.343  27.050  -4.969  0.00  0.00     0.000 A 
ATOM     24  C15 NON d   1     -41.508  26.307  -3.801  0.00  0.00     0.002 A 
ATOM     25  C16 NON d   1     -41.017  25.001  -3.727  0.00  0.00     0.029 A 
ENDBRANCH  18  20
ENDBRANCH   1  16
BRANCH   1  26
ATOM     26  C17 NON d   1     -38.856  20.609  -5.320  0.00  0.00     0.239 C 
ATOM     27  O3  NON d   1     -37.644  20.809  -5.306  0.00  0.00    -0.272 OA
ATOM     28  N2  NON d   1     -39.564  20.346  -6.495  0.00  0.00    -0.326 N 
ATOM     29  H13 NON d   1     -40.378  19.747  -6.427  0.00  0.00     0.169 HD
BRANCH  28  30
ATOM     30  C18 NON d   1     -39.168  20.683  -7.807  0.00  0.00     0.034 A 
ATOM     31  C19 NON d   1     -39.941  21.630  -8.492  0.00  0.00     0.029 A 
ATOM     32  C20 NON d   1     -39.563  22.068  -9.765  0.00  0.00     0.002 A 
ATOM     33  C21 NON d   1     -38.410  21.564 -10.362  0.00  0.00     0.000 A 
ATOM     34  C22 NON d   1     -37.639  20.622  -9.689  0.00  0.00     0.002 A 
ATOM     35  C23 NON d   1     -38.013  20.186  -8.415  0.00  0.00     0.029 A 
ENDBRANCH  28  30
ENDBRANCH   1  26
TORSDOF 8
ENDMDL
MODEL 8
REMARK VINA RESULT:   -14.283      1.487      5.837
REMARK INTER + INTRA:         -19.144
REMARK INTER:                 -16.670
REMARK INTRA:                  -2.474
REMARK CONF_INDEPENDENT:        2.386
REMARK UNBOUND:                -2.474
REMARK  8 active torsions:
REMARK  status: ('A' for Active; 'I' for Inactive)
REMARK    1  A    between atoms: C1_2  and  C2_3 
REMARK       I    between atoms: C1_2  and  N3_30 
REMARK    2  A    between atoms: C3_4  and  C4_5 
REMARK    3  A    between atoms: C8_9  and  C9_10 
REMARK    4  A    between atoms: C9_10  and  C10_11 
REMARK    5  A    between atoms: C9_10  and  C17_20 
REMARK       I    between atoms: C10_11  and  N1_13 
REMARK    6  A    between atoms: N1_13  and  C11_14 
REMARK       I    between atoms: C17_20  and  N2_22 
REMARK    7  A    between atoms: N2_22  and  C18_23 
REMARK    8  A    between atoms: N3_30  and  O4_31 
ROOT
ATOM      1  C9  NON d   1     -41.001  21.341  -4.433  0.00  0.00     0.203 C 
ENDROOT
BRANCH   1   2
ATOM      2  C8  NON d   1     -41.394  19.906  -4.019  0.00  0.00    -0.035 A 
ATOM      3  C7  NON d   1     -40.650  19.203  -3.053  0.00  0.00     0.008 A 
ATOM      4  C6  NON d   1     -40.988  17.903  -2.677  0.00  0.00     0.001 A 
ATOM      5  C5  NON d   1     -42.073  17.262  -3.269  0.00  0.00     0.011 A 
ATOM      6  C4  NON d   1     -42.812  17.895  -4.272  0.00  0.00    -0.035 A 
ATOM      7  C24 NON d   1     -42.443  19.202  -4.650  0.00  0.00     0.020 A 
BRANCH   6   8
ATOM      8  C3  NON d   1     -43.996  17.283  -4.909  0.00  0.00     0.017 C 
ATOM      9  C2  NON d   1     -45.184  17.883  -5.079  0.00  0.00     0.077 C 
BRANCH   9  10
ATOM     10  C1  NON d   1     -46.284  17.182  -5.785  0.00  0.00     0.264 C 
ATOM     11  O1  NON d   1     -47.062  17.732  -6.556  0.00  0.00    -0.266 OA
ATOM     12  N3  NON d   1     -46.363  15.853  -5.469  0.00  0.00    -0.234 N 
ATOM     13  H20 NON d   1     -45.785  15.366  -4.796  0.00  0.00     0.197 HD
BRANCH  12  14
ATOM     14  O4  NON d   1     -47.441  15.130  -6.024  0.00  0.00    -0.287 OA
ATOM     15  H21 NON d   1     -47.904  15.816  -6.554  0.00  0.00     0.244 HD
ENDBRANCH  12  14
ENDBRANCH   9  10
ENDBRANCH   6   8
ENDBRANCH   1   2
BRANCH   1  16
ATOM     16  C10 NON d   1     -40.445  21.425  -5.862  0.00  0.00     0.239 C 
ATOM     17  O2  NON d   1     -40.467  20.474  -6.640  0.00  0.00    -0.272 OA
ATOM     18  N1  NON d   1     -39.840  22.649  -6.146  0.00  0.00    -0.326 N 
ATOM     19  H7  NON d   1     -39.646  23.289  -5.385  0.00  0.00     0.169 HD
BRANCH  18  20
ATOM     20  C11 NON d   1     -39.317  23.020  -7.404  0.00  0.00     0.034 A 
ATOM     21  C12 NON d   1     -38.284  23.949  -7.546  0.00  0.00     0.029 A 
ATOM     22  C13 NON d   1     -37.775  24.253  -8.811  0.00  0.00     0.002 A 
ATOM     23  C14 NON d   1     -38.316  23.652  -9.945  0.00  0.00     0.000 A 
ATOM     24  C15 NON d   1     -39.352  22.728  -9.812  0.00  0.00     0.002 A 
ATOM     25  C16 NON d   1     -39.834  22.395  -8.544  0.00  0.00     0.029 A 
ENDBRANCH  18  20
ENDBRANCH   1  16
BRANCH   1  26
ATOM     26  C17 NON d   1     -40.072  22.117  -3.471  0.00  0.00     0.239 C 
ATOM     27  O3  NON d   1     -38.864  22.259  -3.645  0.00  0.00    -0.272 OA
ATOM     28  N2  NON d   1     -40.722  22.543  -2.309  0.00  0.00    -0.326 N 
ATOM     29  H13 NON d   1     -41.685  22.845  -2.395  0.00  0.00     0.169 HD
BRANCH  28  30
ATOM     30  C18 NON d   1     -40.128  22.768  -1.049  0.00  0.00     0.034 A 
ATOM     31  C19 NON d   1     -39.899  24.098  -0.672  0.00  0.00     0.029 A 
ATOM     32  C20 NON d   1     -39.384  24.397   0.594  0.00  0.00     0.002 A 
ATOM     33  C21 NON d   1     -39.098  23.372   1.491  0.00  0.00     0.000 A 
ATOM     34  C22 NON d   1     -39.322  22.049   1.123  0.00  0.00     0.002 A 
ATOM     35  C23 NON d   1     -39.838  21.747  -0.140  0.00  0.00     0.029 A 
ENDBRANCH  28  30
ENDBRANCH   1  26
TORSDOF 8
ENDMDL
