MODEL 1
REMARK VINA RESULT:   -13.431      0.000      0.000
REMARK INTER + INTRA:         -17.353
REMARK INTER:                 -15.519
REMARK INTRA:                  -1.835
REMARK CONF_INDEPENDENT:        2.088
REMARK UNBOUND:                -1.835
REMARK  7 active torsions:
REMARK  status: ('A' for Active; 'I' for Inactive)
REMARK       I    between atoms: C1_2  and  N1_3 
REMARK    1  A    between atoms: C1_2  and  C14_17 
REMARK    2  A    between atoms: N1_3  and  C2_4 
REMARK    3  A    between atoms: C4_6  and  C5_7 
REMARK    4  A    between atoms: C13_15  and  O2_16 
REMARK    5  A    between atoms: C17_20  and  C18_21 
REMARK    6  A    between atoms: C18_21  and  N2_22 
REMARK    7  A    between atoms: N2_22  and  C19_23 
ROOT
ATOM      1  O1  NON d   1     -45.800  17.526  -6.103  0.00  0.00    -0.267 OA
ATOM      2  C1  NON d   1     -45.328  17.449  -4.970  0.00  0.00     0.256 C 
ATOM      3  N1  NON d   1     -46.013  16.938  -3.882  0.00  0.00    -0.320 N 
ATOM      4  H1  NON d   1     -45.496  16.797  -3.029  0.00  0.00     0.169 HD
ENDROOT
BRANCH   2   5
ATOM      5  C14 NON d   1     -43.920  17.924  -4.776  0.00  0.00     0.032 A 
ATOM      6  C15 NON d   1     -43.057  17.079  -4.058  0.00  0.00     0.017 A 
ATOM      7  C16 NON d   1     -41.729  17.436  -3.806  0.00  0.00     0.010 A 
ATOM      8  C17 NON d   1     -41.212  18.645  -4.282  0.00  0.00    -0.041 A 
ATOM      9  C24 NON d   1     -42.081  19.493  -4.995  0.00  0.00     0.010 A 
ATOM     10  C25 NON d   1     -43.421  19.144  -5.235  0.00  0.00     0.017 A 
BRANCH   8  11
ATOM     11  C18 NON d   1     -39.783  19.104  -4.056  0.00  0.00     0.158 C 
BRANCH  11  12
ATOM     12  N2  NON d   1     -38.958  19.058  -5.263  0.00  0.00    -0.386 N 
ATOM     13  H15 NON d   1     -38.521  18.147  -5.394  0.00  0.00     0.160 HD
BRANCH  12  14
ATOM     14  C19 NON d   1     -39.364  19.636  -6.460  0.00  0.00     0.030 A 
ATOM     15  C20 NON d   1     -39.643  21.009  -6.467  0.00  0.00     0.046 A 
ATOM     16  C21 NON d   1     -40.125  21.626  -7.618  0.00  0.00     0.089 A 
ATOM     17  N3  NON d   1     -40.332  20.899  -8.723  0.00  0.00    -0.375 N 
ATOM     18  C22 NON d   1     -40.109  19.578  -8.758  0.00  0.00     0.089 A 
ATOM     19  H18 NON d   1     -40.685  21.364  -9.560  0.00  0.00     0.164 HD
ATOM     20  C23 NON d   1     -39.638  18.919  -7.624  0.00  0.00     0.046 A 
ENDBRANCH  12  14
ENDBRANCH  11  12
ENDBRANCH   8  11
ENDBRANCH   2   5
BRANCH   3  21
ATOM     21  C2  NON d   1     -47.365  16.482  -3.841  0.00  0.00     0.069 A 
ATOM     22  C3  NON d   1     -48.176  17.035  -2.817  0.00  0.00     0.044 A 
ATOM     23  C4  NON d   1     -49.537  16.682  -2.617  0.00  0.00    -0.024 A 
ATOM     24  C11 NON d   1     -50.062  15.751  -3.532  0.00  0.00     0.015 A 
ATOM     25  C12 NON d   1     -49.297  15.221  -4.569  0.00  0.00     0.040 A 
ATOM     26  C13 NON d   1     -47.963  15.576  -4.723  0.00  0.00     0.092 A 
BRANCH  23  27
ATOM     27  C5  NON d   1     -50.381  17.255  -1.511  0.00  0.00    -0.026 A 
ATOM     28  C6  NON d   1     -49.836  17.688  -0.286  0.00  0.00     0.012 A 
ATOM     29  C7  NON d   1     -50.627  18.238   0.735  0.00  0.00     0.001 A 
ATOM     30  C8  NON d   1     -51.999  18.372   0.566  0.00  0.00     0.000 A 
ATOM     31  C9  NON d   1     -52.578  17.951  -0.621  0.00  0.00     0.001 A 
ATOM     32  C10 NON d   1     -51.781  17.401  -1.636  0.00  0.00     0.012 A 
ENDBRANCH  23  27
BRANCH  26  33
ATOM     33  O2  NON d   1     -47.370  15.005  -5.809  0.00  0.00    -0.358 OA
ATOM     34  H10 NON d   1     -47.049  15.728  -6.388  0.00  0.00     0.217 HD
ENDBRANCH  26  33
ENDBRANCH   3  21
TORSDOF 7
ENDMDL
MODEL 2
REMARK VINA RESULT:   -13.338      2.452      3.495
REMARK INTER + INTRA:         -16.959
REMARK INTER:                 -15.426
REMARK INTRA:                  -1.534
REMARK CONF_INDEPENDENT:        2.088
REMARK UNBOUND:                -1.534
REMARK  7 active torsions:
REMARK  status: ('A' for Active; 'I' for Inactive)
REMARK       I    between atoms: C1_2  and  N1_3 
REMARK    1  A    between atoms: C1_2  and  C14_17 
REMARK    2  A    between atoms: N1_3  and  C2_4 
REMARK    3  A    between atoms: C4_6  and  C5_7 
REMARK    4  A    between atoms: C13_15  and  O2_16 
REMARK    5  A    between atoms: C17_20  and  C18_21 
REMARK    6  A    between atoms: C18_21  and  N2_22 
REMARK    7  A    between atoms: N2_22  and  C19_23 
ROOT
ATOM      1  O1  NON d   1     -45.280  16.656  -5.810  0.00  0.00    -0.267 OA
ATOM      2  C1  NON d   1     -45.127  17.103  -4.675  0.00  0.00     0.256 C 
ATOM      3  N1  NON d   1     -46.084  17.022  -3.679  0.00  0.00    -0.320 N 
ATOM      4  H1  NON d   1     -45.814  17.299  -2.748  0.00  0.00     0.169 HD
ENDROOT
BRANCH   2   5
ATOM      5  C14 NON d   1     -43.815  17.755  -4.361  0.00  0.00     0.032 A 
ATOM      6  C15 NON d   1     -43.174  17.355  -3.177  0.00  0.00     0.017 A 
ATOM      7  C16 NON d   1     -41.954  17.914  -2.782  0.00  0.00     0.010 A 
ATOM      8  C17 NON d   1     -41.323  18.880  -3.573  0.00  0.00    -0.041 A 
ATOM      9  C24 NON d   1     -41.972  19.284  -4.756  0.00  0.00     0.010 A 
ATOM     10  C25 NON d   1     -43.205  18.736  -5.145  0.00  0.00     0.017 A 
BRANCH   8  11
ATOM     11  C18 NON d   1     -39.998  19.532  -3.218  0.00  0.00     0.158 C 
BRANCH  11  12
ATOM     12  N2  NON d   1     -39.824  19.754  -1.784  0.00  0.00    -0.386 N 
ATOM     13  H15 NON d   1     -39.035  19.231  -1.408  0.00  0.00     0.160 HD
BRANCH  12  14
ATOM     14  C19 NON d   1     -39.956  21.012  -1.206  0.00  0.00     0.030 A 
ATOM     15  C20 NON d   1     -39.947  21.100   0.191  0.00  0.00     0.046 A 
ATOM     16  C21 NON d   1     -40.152  22.322   0.824  0.00  0.00     0.089 A 
ATOM     17  N3  NON d   1     -40.369  23.421   0.089  0.00  0.00    -0.375 N 
ATOM     18  C22 NON d   1     -40.417  23.384  -1.249  0.00  0.00     0.089 A 
ATOM     19  H18 NON d   1     -40.517  24.311   0.566  0.00  0.00     0.164 HD
ATOM     20  C23 NON d   1     -40.230  22.178  -1.921  0.00  0.00     0.046 A 
ENDBRANCH  12  14
ENDBRANCH  11  12
ENDBRANCH   8  11
ENDBRANCH   2   5
BRANCH   3  21
ATOM     21  C2  NON d   1     -47.405  16.491  -3.782  0.00  0.00     0.069 A 
ATOM     22  C3  NON d   1     -48.354  17.002  -2.861  0.00  0.00     0.044 A 
ATOM     23  C4  NON d   1     -49.707  16.574  -2.809  0.00  0.00    -0.024 A 
ATOM     24  C11 NON d   1     -50.075  15.610  -3.764  0.00  0.00     0.015 A 
ATOM     25  C12 NON d   1     -49.171  15.118  -4.705  0.00  0.00     0.040 A 
ATOM     26  C13 NON d   1     -47.850  15.547  -4.714  0.00  0.00     0.092 A 
BRANCH  23  27
ATOM     27  C5  NON d   1     -50.699  17.104  -1.809  0.00  0.00    -0.026 A 
ATOM     28  C6  NON d   1     -50.313  17.630  -0.560  0.00  0.00     0.012 A 
ATOM     29  C7  NON d   1     -51.242  18.139   0.360  0.00  0.00     0.001 A 
ATOM     30  C8  NON d   1     -52.599  18.138   0.062  0.00  0.00     0.000 A 
ATOM     31  C9  NON d   1     -53.023  17.623  -1.153  0.00  0.00     0.001 A 
ATOM     32  C10 NON d   1     -52.088  17.114  -2.066  0.00  0.00     0.012 A 
ENDBRANCH  23  27
BRANCH  26  33
ATOM     33  O2  NON d   1     -47.109  15.005  -5.722  0.00  0.00    -0.358 OA
ATOM     34  H10 NON d   1     -47.142  15.623  -6.482  0.00  0.00     0.217 HD
ENDBRANCH  26  33
ENDBRANCH   3  21
TORSDOF 7
ENDMDL
MODEL 3
REMARK VINA RESULT:   -10.571      2.513     10.844
REMARK INTER + INTRA:         -13.704
REMARK INTER:                 -12.659
REMARK INTRA:                  -1.045
REMARK CONF_INDEPENDENT:        2.088
REMARK UNBOUND:                -1.045
REMARK  7 active torsions:
REMARK  status: ('A' for Active; 'I' for Inactive)
REMARK       I    between atoms: C1_2  and  N1_3 
REMARK    1  A    between atoms: C1_2  and  C14_17 
REMARK    2  A    between atoms: N1_3  and  C2_4 
REMARK    3  A    between atoms: C4_6  and  C5_7 
REMARK    4  A    between atoms: C13_15  and  O2_16 
REMARK    5  A    between atoms: C17_20  and  C18_21 
REMARK    6  A    between atoms: C18_21  and  N2_22 
REMARK    7  A    between atoms: N2_22  and  C19_23 
ROOT
ATOM      1  O1  NON d   1     -43.986  16.392  -5.435  0.00  0.00    -0.267 OA
ATOM      2  C1  NON d   1     -44.496  16.970  -4.477  0.00  0.00     0.256 C 
ATOM      3  N1  NON d   1     -43.818  17.858  -3.662  0.00  0.00    -0.320 N 
ATOM      4  H1  NON d   1     -44.356  18.377  -2.987  0.00  0.00     0.169 HD
ENDROOT
BRANCH   2   5
ATOM      5  C14 NON d   1     -45.944  16.700  -4.200  0.00  0.00     0.032 A 
ATOM      6  C15 NON d   1     -46.479  17.251  -3.023  0.00  0.00     0.017 A 
ATOM      7  C16 NON d   1     -47.814  17.043  -2.662  0.00  0.00     0.010 A 
ATOM      8  C17 NON d   1     -48.666  16.294  -3.478  0.00  0.00    -0.041 A 
ATOM      9  C24 NON d   1     -48.125  15.737  -4.654  0.00  0.00     0.010 A 
ATOM     10  C25 NON d   1     -46.780  15.929  -5.010  0.00  0.00     0.017 A 
BRANCH   8  11
ATOM     11  C18 NON d   1     -50.127  16.026  -3.161  0.00  0.00     0.158 C 
BRANCH  11  12
ATOM     12  N2  NON d   1     -50.602  16.729  -1.970  0.00  0.00    -0.386 N 
ATOM     13  H15 NON d   1     -49.957  17.460  -1.673  0.00  0.00     0.160 HD
BRANCH  12  14
ATOM     14  C19 NON d   1     -51.934  17.090  -1.804  0.00  0.00     0.030 A 
ATOM     15  C20 NON d   1     -52.248  18.005  -0.791  0.00  0.00     0.046 A 
ATOM     16  C21 NON d   1     -53.572  18.344  -0.530  0.00  0.00     0.089 A 
ATOM     17  N3  NON d   1     -54.553  17.783  -1.248  0.00  0.00    -0.375 N 
ATOM     18  C22 NON d   1     -54.307  16.881  -2.207  0.00  0.00     0.089 A 
ATOM     19  H18 NON d   1     -55.520  18.041  -1.047  0.00  0.00     0.164 HD
ATOM     20  C23 NON d   1     -52.996  16.504  -2.491  0.00  0.00     0.046 A 
ENDBRANCH  12  14
ENDBRANCH  11  12
ENDBRANCH   8  11
ENDBRANCH   2   5
BRANCH   3  21
ATOM     21  C2  NON d   1     -42.437  18.214  -3.722  0.00  0.00     0.069 A 
ATOM     22  C3  NON d   1     -41.947  18.592  -4.999  0.00  0.00     0.044 A 
ATOM     23  C4  NON d   1     -40.598  18.959  -5.246  0.00  0.00    -0.024 A 
ATOM     24  C11 NON d   1     -39.754  18.957  -4.120  0.00  0.00     0.015 A 
ATOM     25  C12 NON d   1     -40.219  18.626  -2.848  0.00  0.00     0.040 A 
ATOM     26  C13 NON d   1     -41.542  18.255  -2.648  0.00  0.00     0.092 A 
BRANCH  23  27
ATOM     27  C5  NON d   1     -40.084  19.331  -6.609  0.00  0.00    -0.026 A 
ATOM     28  C6  NON d   1     -40.742  20.256  -7.444  0.00  0.00     0.012 A 
ATOM     29  C7  NON d   1     -40.246  20.612  -8.708  0.00  0.00     0.001 A 
ATOM     30  C8  NON d   1     -39.069  20.050  -9.185  0.00  0.00     0.000 A 
ATOM     31  C9  NON d   1     -38.393  19.130  -8.399  0.00  0.00     0.001 A 
ATOM     32  C10 NON d   1     -38.896  18.778  -7.139  0.00  0.00     0.012 A 
ENDBRANCH  23  27
BRANCH  26  33
ATOM     33  O2  NON d   1     -41.846  18.006  -1.343  0.00  0.00    -0.358 OA
ATOM     34  H10 NON d   1     -41.003  17.865  -0.862  0.00  0.00     0.217 HD
ENDBRANCH  26  33
ENDBRANCH   3  21
TORSDOF 7
ENDMDL
