MODEL 1
REMARK VINA RESULT:   -14.288      0.000      0.000
REMARK INTER + INTRA:         -14.723
REMARK INTER:                 -14.586
REMARK INTRA:                  -0.137
REMARK CONF_INDEPENDENT:        0.298
REMARK UNBOUND:                -0.137
REMARK  1 active torsions:
REMARK  status: ('A' for Active; 'I' for Inactive)
REMARK    1  A    between atoms: O1_1  and  C1_2 
ROOT
ATOM      1  C1  NON d   1     -47.796  15.577  -4.928  0.00  0.00     0.103 A 
ATOM      2  C2  NON d   1     -48.527  15.098  -3.908  0.00  0.00     0.041 A 
ATOM      3  C3  NON d   1     -48.493  15.711  -2.600  0.00  0.00     0.020 A 
ATOM      4  C4  NON d   1     -47.721  16.782  -2.385  0.00  0.00     0.089 A 
ATOM      5  N1  NON d   1     -46.959  17.301  -3.400  0.00  0.00    -0.355 N 
ATOM      6  C5  NON d   1     -46.923  16.787  -4.682  0.00  0.00     0.134 A 
ATOM      7  S1  NON d   1     -45.936  17.542  -5.810  0.00  0.00    -0.057 SA
ATOM      8  H5  NON d   1     -46.377  18.113  -3.223  0.00  0.00     0.166 HD
ENDROOT
BRANCH   1   9
ATOM      9  O1  NON d   1     -47.815  15.005  -6.185  0.00  0.00    -0.358 OA
ATOM     10  H1  NON d   1     -47.829  15.712  -6.848  0.00  0.00     0.217 HD
ENDBRANCH   1   9
TORSDOF 1
ENDMDL
MODEL 2
REMARK VINA RESULT:   -12.865      2.739      3.676
REMARK INTER + INTRA:         -13.309
REMARK INTER:                 -13.164
REMARK INTRA:                  -0.146
REMARK CONF_INDEPENDENT:        0.298
REMARK UNBOUND:                -0.146
REMARK  1 active torsions:
REMARK  status: ('A' for Active; 'I' for Inactive)
REMARK    1  A    between atoms: O1_1  and  C1_2 
ROOT
ATOM      1  C1  NON d   1     -45.549  17.990  -5.756  0.00  0.00     0.103 A 
ATOM      2  C2  NON d   1     -44.471  18.619  -5.257  0.00  0.00     0.041 A 
ATOM      3  C3  NON d   1     -43.853  18.195  -4.021  0.00  0.00     0.020 A 
ATOM      4  C4  NON d   1     -44.353  17.154  -3.348  0.00  0.00     0.089 A 
ATOM      5  N1  NON d   1     -45.452  16.485  -3.824  0.00  0.00    -0.355 N 
ATOM      6  C5  NON d   1     -46.113  16.813  -4.993  0.00  0.00     0.134 A 
ATOM      7  S1  NON d   1     -47.443  15.891  -5.435  0.00  0.00    -0.057 SA
ATOM      8  H5  NON d   1     -45.822  15.697  -3.303  0.00  0.00     0.166 HD
ENDROOT
BRANCH   1   9
ATOM      9  O1  NON d   1     -46.153  18.380  -6.935  0.00  0.00    -0.358 OA
ATOM     10  H1  NON d   1     -46.623  17.619  -7.310  0.00  0.00     0.217 HD
ENDBRANCH   1   9
TORSDOF 1
ENDMDL
MODEL 3
REMARK VINA RESULT:   -12.352      2.151      2.617
REMARK INTER + INTRA:         -12.673
REMARK INTER:                 -12.650
REMARK INTRA:                  -0.023
REMARK CONF_INDEPENDENT:        0.298
REMARK UNBOUND:                -0.023
REMARK  1 active torsions:
REMARK  status: ('A' for Active; 'I' for Inactive)
REMARK    1  A    between atoms: O1_1  and  C1_2 
ROOT
ATOM      1  C1  NON d   1     -47.945  16.470  -3.084  0.00  0.00     0.103 A 
ATOM      2  C2  NON d   1     -49.048  15.994  -2.481  0.00  0.00     0.041 A 
ATOM      3  C3  NON d   1     -49.948  15.087  -3.156  0.00  0.00     0.020 A 
ATOM      4  C4  NON d   1     -49.690  14.703  -4.411  0.00  0.00     0.089 A 
ATOM      5  N1  NON d   1     -48.575  15.166  -5.061  0.00  0.00    -0.355 N 
ATOM      6  C5  NON d   1     -47.656  16.034  -4.503  0.00  0.00     0.134 A 
ATOM      7  S1  NON d   1     -46.343  16.505  -5.435  0.00  0.00    -0.057 SA
ATOM      8  H5  NON d   1     -48.391  14.867  -6.013  0.00  0.00     0.166 HD
ENDROOT
BRANCH   1   9
ATOM      9  O1  NON d   1     -47.074  17.337  -2.455  0.00  0.00    -0.358 OA
ATOM     10  H1  NON d   1     -46.700  16.893  -1.678  0.00  0.00     0.217 HD
ENDBRANCH   1   9
TORSDOF 1
ENDMDL
