MODEL 1
REMARK VINA RESULT:   -15.305      0.000      0.000
REMARK INTER + INTRA:         -19.512
REMARK INTER:                 -17.990
REMARK INTRA:                  -1.522
REMARK CONF_INDEPENDENT:        2.685
REMARK UNBOUND:                -1.522
REMARK  9 active torsions:
REMARK  status: ('A' for Active; 'I' for Inactive)
REMARK    1  A    between atoms: C1_2  and  C2_3 
REMARK       I    between atoms: C1_2  and  N4_38 
REMARK    2  A    between atoms: C3_4  and  C4_5 
REMARK    3  A    between atoms: C8_9  and  C9_10 
REMARK    4  A    between atoms: C14_17  and  N3_18 
REMARK    5  A    between atoms: N3_18  and  C15_19 
REMARK    6  A    between atoms: C18_22  and  O2_23 
REMARK    7  A    between atoms: O2_23  and  C19_24 
REMARK    8  A    between atoms: C19_24  and  C20_25 
REMARK    9  A    between atoms: N4_38  and  O3_39 
ROOT
ATOM      1  C9  NON d   1     -41.030  20.354  -5.366  0.00  0.00    -0.025 A 
ATOM      2  C10 NON d   1     -41.000  20.527  -6.758  0.00  0.00     0.014 A 
ATOM      3  C11 NON d   1     -40.312  21.578  -7.369  0.00  0.00     0.033 A 
ATOM      4  C12 NON d   1     -39.628  22.524  -6.638  0.00  0.00     0.072 A 
ATOM      5  N1  NON d   1     -39.016  23.481  -7.332  0.00  0.00    -0.241 NA
ATOM      6  C13 NON d   1     -38.363  24.395  -6.623  0.00  0.00     0.236 A 
ATOM      7  N2  NON d   1     -38.282  24.441  -5.293  0.00  0.00    -0.224 NA
ATOM      8  C14 NON d   1     -38.910  23.478  -4.591  0.00  0.00     0.142 A 
ATOM      9  C28 NON d   1     -39.618  22.430  -5.240  0.00  0.00     0.040 A 
ATOM     10  C29 NON d   1     -40.311  21.324  -4.627  0.00  0.00     0.030 A 
ENDROOT
BRANCH   8  11
ATOM     11  N3  NON d   1     -38.811  23.494  -3.171  0.00  0.00    -0.340 N 
ATOM     12  H9  NON d   1     -38.512  22.585  -2.836  0.00  0.00     0.167 HD
BRANCH  11  13
ATOM     13  C15 NON d   1     -39.632  24.124  -2.197  0.00  0.00     0.035 A 
ATOM     14  C16 NON d   1     -40.046  25.453  -2.242  0.00  0.00     0.032 A 
ATOM     15  C17 NON d   1     -40.832  26.008  -1.220  0.00  0.00     0.041 A 
ATOM     16  C18 NON d   1     -41.198  25.276  -0.083  0.00  0.00     0.091 A 
ATOM     17  C26 NON d   1     -40.739  23.958   0.006  0.00  0.00     0.069 A 
ATOM     18 Cl1  NON d   1     -41.033  22.886   1.330  0.00  0.00    -0.081 Cl
ATOM     19  C27 NON d   1     -39.963  23.404  -1.039  0.00  0.00     0.056 A 
BRANCH  16  20
ATOM     20  O2  NON d   1     -41.967  26.027   0.765  0.00  0.00    -0.345 OA
BRANCH  20  21
ATOM     21  C19 NON d   1     -41.363  26.895   1.717  0.00  0.00     0.214 C 
BRANCH  21  22
ATOM     22  C20 NON d   1     -41.418  26.330   3.126  0.00  0.00    -0.031 A 
ATOM     23  C21 NON d   1     -40.404  25.530   3.673  0.00  0.00     0.009 A 
ATOM     24  C22 NON d   1     -40.503  25.043   4.983  0.00  0.00     0.004 A 
ATOM     25  C23 NON d   1     -41.617  25.353   5.761  0.00  0.00     0.042 A 
ATOM     26  C24 NON d   1     -42.622  26.147   5.224  0.00  0.00     0.117 A 
ATOM     27  F1  NON d   1     -43.695  26.446   5.968  0.00  0.00    -0.206 F 
ATOM     28  C25 NON d   1     -42.533  26.635   3.924  0.00  0.00     0.051 A 
ENDBRANCH  21  22
ENDBRANCH  20  21
ENDBRANCH  16  20
ENDBRANCH  11  13
ENDBRANCH   8  11
BRANCH   1  29
ATOM     29  C8  NON d   1     -41.788  19.212  -4.741  0.00  0.00    -0.025 A 
ATOM     30  C7  NON d   1     -41.240  18.458  -3.681  0.00  0.00     0.012 A 
ATOM     31  C6  NON d   1     -41.912  17.387  -3.092  0.00  0.00     0.002 A 
ATOM     32  C5  NON d   1     -43.174  17.027  -3.538  0.00  0.00     0.011 A 
ATOM     33  C4  NON d   1     -43.777  17.730  -4.583  0.00  0.00    -0.035 A 
ATOM     34  C30 NON d   1     -43.075  18.812  -5.167  0.00  0.00     0.023 A 
BRANCH  33  35
ATOM     35  C3  NON d   1     -45.132  17.404  -5.075  0.00  0.00     0.017 C 
ATOM     36  C2  NON d   1     -46.068  16.723  -4.394  0.00  0.00     0.077 C 
BRANCH  36  37
ATOM     37  C1  NON d   1     -47.403  16.478  -4.998  0.00  0.00     0.264 C 
ATOM     38  O1  NON d   1     -48.401  17.099  -4.645  0.00  0.00    -0.266 OA
ATOM     39  N4  NON d   1     -47.482  15.481  -5.930  0.00  0.00    -0.234 N 
ATOM     40  H21 NON d   1     -48.330  15.473  -6.489  0.00  0.00     0.197 HD
BRANCH  39  41
ATOM     41  O3  NON d   1     -46.315  15.005  -6.560  0.00  0.00    -0.287 OA
ATOM     42  H22 NON d   1     -46.123  15.722  -7.195  0.00  0.00     0.244 HD
ENDBRANCH  39  41
ENDBRANCH  36  37
ENDBRANCH  33  35
ENDBRANCH   1  29
TORSDOF 9
ENDMDL
MODEL 2
REMARK VINA RESULT:   -15.264      0.944      1.213
REMARK INTER + INTRA:         -19.416
REMARK INTER:                 -17.948
REMARK INTRA:                  -1.468
REMARK CONF_INDEPENDENT:        2.685
REMARK UNBOUND:                -1.468
REMARK  9 active torsions:
REMARK  status: ('A' for Active; 'I' for Inactive)
REMARK    1  A    between atoms: C1_2  and  C2_3 
REMARK       I    between atoms: C1_2  and  N4_38 
REMARK    2  A    between atoms: C3_4  and  C4_5 
REMARK    3  A    between atoms: C8_9  and  C9_10 
REMARK    4  A    between atoms: C14_17  and  N3_18 
REMARK    5  A    between atoms: N3_18  and  C15_19 
REMARK    6  A    between atoms: C18_22  and  O2_23 
REMARK    7  A    between atoms: O2_23  and  C19_24 
REMARK    8  A    between atoms: C19_24  and  C20_25 
REMARK    9  A    between atoms: N4_38  and  O3_39 
ROOT
ATOM      1  C9  NON d   1     -41.163  20.169  -5.759  0.00  0.00    -0.025 A 
ATOM      2  C10 NON d   1     -41.277  20.285  -7.152  0.00  0.00     0.014 A 
ATOM      3  C11 NON d   1     -40.638  21.296  -7.875  0.00  0.00     0.033 A 
ATOM      4  C12 NON d   1     -39.865  22.255  -7.260  0.00  0.00     0.072 A 
ATOM      5  N1  NON d   1     -39.313  23.170  -8.054  0.00  0.00    -0.241 NA
ATOM      6  C13 NON d   1     -38.573  24.097  -7.456  0.00  0.00     0.236 A 
ATOM      7  N2  NON d   1     -38.353  24.195  -6.146  0.00  0.00    -0.224 NA
ATOM      8  C14 NON d   1     -38.920  23.275  -5.342  0.00  0.00     0.142 A 
ATOM      9  C28 NON d   1     -39.710  22.217  -5.869  0.00  0.00     0.040 A 
ATOM     10  C29 NON d   1     -40.354  21.152  -5.141  0.00  0.00     0.030 A 
ENDROOT
BRANCH   8  11
ATOM     11  N3  NON d   1     -38.672  23.346  -3.942  0.00  0.00    -0.340 N 
ATOM     12  H9  NON d   1     -38.152  22.528  -3.642  0.00  0.00     0.167 HD
BRANCH  11  13
ATOM     13  C15 NON d   1     -39.496  23.813  -2.883  0.00  0.00     0.035 A 
ATOM     14  C16 NON d   1     -40.075  25.079  -2.820  0.00  0.00     0.032 A 
ATOM     15  C17 NON d   1     -40.852  25.473  -1.719  0.00  0.00     0.041 A 
ATOM     16  C18 NON d   1     -41.047  24.640  -0.610  0.00  0.00     0.091 A 
ATOM     17  C26 NON d   1     -40.422  23.388  -0.631  0.00  0.00     0.069 A 
ATOM     18 Cl1  NON d   1     -40.490  22.218   0.640  0.00  0.00    -0.081 Cl
ATOM     19  C27 NON d   1     -39.657  22.995  -1.753  0.00  0.00     0.056 A 
BRANCH  16  20
ATOM     20  O2  NON d   1     -41.843  25.240   0.328  0.00  0.00    -0.345 OA
BRANCH  20  21
ATOM     21  C19 NON d   1     -41.426  26.434   0.979  0.00  0.00     0.214 C 
BRANCH  21  22
ATOM     22  C20 NON d   1     -41.537  26.334   2.491  0.00  0.00    -0.031 A 
ATOM     23  C21 NON d   1     -42.426  27.110   3.250  0.00  0.00     0.009 A 
ATOM     24  C22 NON d   1     -42.492  26.970   4.641  0.00  0.00     0.004 A 
ATOM     25  C23 NON d   1     -41.669  26.050   5.290  0.00  0.00     0.042 A 
ATOM     26  C24 NON d   1     -40.789  25.279   4.544  0.00  0.00     0.117 A 
ATOM     27  F1  NON d   1     -39.997  24.395   5.163  0.00  0.00    -0.206 F 
ATOM     28  C25 NON d   1     -40.717  25.411   3.160  0.00  0.00     0.051 A 
ENDBRANCH  21  22
ENDBRANCH  20  21
ENDBRANCH  16  20
ENDBRANCH  11  13
ENDBRANCH   8  11
BRANCH   1  29
ATOM     29  C8  NON d   1     -41.872  19.070  -5.010  0.00  0.00    -0.025 A 
ATOM     30  C7  NON d   1     -41.268  18.421  -3.912  0.00  0.00     0.012 A 
ATOM     31  C6  NON d   1     -41.893  17.391  -3.208  0.00  0.00     0.002 A 
ATOM     32  C5  NON d   1     -43.161  16.969  -3.574  0.00  0.00     0.011 A 
ATOM     33  C4  NON d   1     -43.819  17.568  -4.651  0.00  0.00    -0.035 A 
ATOM     34  C30 NON d   1     -43.164  18.609  -5.351  0.00  0.00     0.023 A 
BRANCH  33  35
ATOM     35  C3  NON d   1     -45.182  17.173  -5.061  0.00  0.00     0.017 C 
ATOM     36  C2  NON d   1     -46.091  16.569  -4.278  0.00  0.00     0.077 C 
BRANCH  36  37
ATOM     37  C1  NON d   1     -47.439  16.242  -4.810  0.00  0.00     0.264 C 
ATOM     38  O1  NON d   1     -48.460  16.734  -4.341  0.00  0.00    -0.266 OA
ATOM     39  N4  NON d   1     -47.495  15.316  -5.814  0.00  0.00    -0.234 N 
ATOM     40  H21 NON d   1     -48.378  15.268  -6.314  0.00  0.00     0.197 HD
BRANCH  39  41
ATOM     41  O3  NON d   1     -46.339  15.005  -6.557  0.00  0.00    -0.287 OA
ATOM     42  H22 NON d   1     -46.372  15.674  -7.268  0.00  0.00     0.244 HD
ENDBRANCH  39  41
ENDBRANCH  36  37
ENDBRANCH  33  35
ENDBRANCH   1  29
TORSDOF 9
ENDMDL
MODEL 3
REMARK VINA RESULT:   -14.894      6.323     11.386
REMARK INTER + INTRA:         -18.164
REMARK INTER:                 -17.579
REMARK INTRA:                  -0.585
REMARK CONF_INDEPENDENT:        2.685
REMARK UNBOUND:                -0.585
REMARK  9 active torsions:
REMARK  status: ('A' for Active; 'I' for Inactive)
REMARK    1  A    between atoms: C1_2  and  C2_3 
REMARK       I    between atoms: C1_2  and  N4_38 
REMARK    2  A    between atoms: C3_4  and  C4_5 
REMARK    3  A    between atoms: C8_9  and  C9_10 
REMARK    4  A    between atoms: C14_17  and  N3_18 
REMARK    5  A    between atoms: N3_18  and  C15_19 
REMARK    6  A    between atoms: C18_22  and  O2_23 
REMARK    7  A    between atoms: O2_23  and  C19_24 
REMARK    8  A    between atoms: C19_24  and  C20_25 
REMARK    9  A    between atoms: N4_38  and  O3_39 
ROOT
ATOM      1  C9  NON d   1     -44.124  17.492  -3.717  0.00  0.00    -0.025 A 
ATOM      2  C10 NON d   1     -44.062  17.197  -5.088  0.00  0.00     0.014 A 
ATOM      3  C11 NON d   1     -45.173  16.753  -5.810  0.00  0.00     0.033 A 
ATOM      4  C12 NON d   1     -46.400  16.562  -5.215  0.00  0.00     0.072 A 
ATOM      5  N1  NON d   1     -47.380  16.130  -6.006  0.00  0.00    -0.241 NA
ATOM      6  C13 NON d   1     -48.562  15.941  -5.427  0.00  0.00     0.236 A 
ATOM      7  N2  NON d   1     -48.838  16.130  -4.138  0.00  0.00    -0.224 NA
ATOM      8  C14 NON d   1     -47.843  16.557  -3.337  0.00  0.00     0.142 A 
ATOM      9  C28 NON d   1     -46.543  16.822  -3.847  0.00  0.00     0.040 A 
ATOM     10  C29 NON d   1     -45.395  17.306  -3.122  0.00  0.00     0.030 A 
ENDROOT
BRANCH   8  11
ATOM     11  N3  NON d   1     -48.127  16.794  -1.962  0.00  0.00    -0.340 N 
ATOM     12  H9  NON d   1     -47.688  16.080  -1.391  0.00  0.00     0.167 HD
BRANCH  11  13
ATOM     13  C15 NON d   1     -49.315  17.255  -1.332  0.00  0.00     0.035 A 
ATOM     14  C16 NON d   1     -49.359  17.960  -0.131  0.00  0.00     0.032 A 
ATOM     15  C17 NON d   1     -50.580  18.352   0.441  0.00  0.00     0.041 A 
ATOM     16  C18 NON d   1     -51.812  18.017  -0.134  0.00  0.00     0.091 A 
ATOM     17  C26 NON d   1     -51.786  17.257  -1.309  0.00  0.00     0.069 A 
ATOM     18 Cl1  NON d   1     -53.179  16.697  -2.167  0.00  0.00    -0.081 Cl
ATOM     19  C27 NON d   1     -50.550  16.883  -1.885  0.00  0.00     0.056 A 
BRANCH  16  20
ATOM     20  O2  NON d   1     -52.855  18.516   0.599  0.00  0.00    -0.345 OA
BRANCH  20  21
ATOM     21  C19 NON d   1     -54.191  18.108   0.332  0.00  0.00     0.214 C 
BRANCH  21  22
ATOM     22  C20 NON d   1     -54.824  18.907  -0.794  0.00  0.00    -0.031 A 
ATOM     23  C21 NON d   1     -55.493  18.314  -1.875  0.00  0.00     0.009 A 
ATOM     24  C22 NON d   1     -56.065  19.101  -2.882  0.00  0.00     0.004 A 
ATOM     25  C23 NON d   1     -55.975  20.491  -2.819  0.00  0.00     0.042 A 
ATOM     26  C24 NON d   1     -55.315  21.082  -1.750  0.00  0.00     0.117 A 
ATOM     27  F1  NON d   1     -55.226  22.416  -1.685  0.00  0.00    -0.206 F 
ATOM     28  C25 NON d   1     -54.744  20.308  -0.744  0.00  0.00     0.051 A 
ENDBRANCH  21  22
ENDBRANCH  20  21
ENDBRANCH  16  20
ENDBRANCH  11  13
ENDBRANCH   8  11
BRANCH   1  29
ATOM     29  C8  NON d   1     -42.904  17.962  -2.969  0.00  0.00    -0.025 A 
ATOM     30  C7  NON d   1     -42.879  18.005  -1.558  0.00  0.00     0.012 A 
ATOM     31  C6  NON d   1     -41.770  18.449  -0.836  0.00  0.00     0.002 A 
ATOM     32  C5  NON d   1     -40.628  18.866  -1.503  0.00  0.00     0.011 A 
ATOM     33  C4  NON d   1     -40.583  18.849  -2.899  0.00  0.00    -0.035 A 
ATOM     34  C30 NON d   1     -41.721  18.397  -3.609  0.00  0.00     0.023 A 
BRANCH  33  35
ATOM     35  C3  NON d   1     -39.381  19.255  -3.654  0.00  0.00     0.017 C 
ATOM     36  C2  NON d   1     -39.249  19.224  -4.991  0.00  0.00     0.077 C 
BRANCH  36  37
ATOM     37  C1  NON d   1     -37.988  19.681  -5.630  0.00  0.00     0.264 C 
ATOM     38  O1  NON d   1     -37.037  18.926  -5.805  0.00  0.00    -0.266 OA
ATOM     39  N4  NON d   1     -37.912  21.005  -5.962  0.00  0.00    -0.234 N 
ATOM     40  H21 NON d   1     -37.153  21.254  -6.590  0.00  0.00     0.197 HD
BRANCH  39  41
ATOM     41  O3  NON d   1     -39.085  21.779  -6.064  0.00  0.00    -0.287 OA
ATOM     42  H22 NON d   1     -39.037  22.324  -5.256  0.00  0.00     0.244 HD
ENDBRANCH  39  41
ENDBRANCH  36  37
ENDBRANCH  33  35
ENDBRANCH   1  29
TORSDOF 9
ENDMDL
MODEL 4
REMARK VINA RESULT:   -14.580      1.904      2.546
REMARK INTER + INTRA:         -19.013
REMARK INTER:                 -17.264
REMARK INTRA:                  -1.749
REMARK CONF_INDEPENDENT:        2.685
REMARK UNBOUND:                -1.749
REMARK  9 active torsions:
REMARK  status: ('A' for Active; 'I' for Inactive)
REMARK    1  A    between atoms: C1_2  and  C2_3 
REMARK       I    between atoms: C1_2  and  N4_38 
REMARK    2  A    between atoms: C3_4  and  C4_5 
REMARK    3  A    between atoms: C8_9  and  C9_10 
REMARK    4  A    between atoms: C14_17  and  N3_18 
REMARK    5  A    between atoms: N3_18  and  C15_19 
REMARK    6  A    between atoms: C18_22  and  O2_23 
REMARK    7  A    between atoms: O2_23  and  C19_24 
REMARK    8  A    between atoms: C19_24  and  C20_25 
REMARK    9  A    between atoms: N4_38  and  O3_39 
ROOT
ATOM      1  C9  NON d   1     -40.719  19.809  -5.951  0.00  0.00    -0.025 A 
ATOM      2  C10 NON d   1     -40.254  19.318  -7.180  0.00  0.00     0.014 A 
ATOM      3  C11 NON d   1     -39.446  20.074  -8.033  0.00  0.00     0.033 A 
ATOM      4  C12 NON d   1     -39.066  21.361  -7.726  0.00  0.00     0.072 A 
ATOM      5  N1  NON d   1     -38.301  21.982  -8.621  0.00  0.00    -0.241 NA
ATOM      6  C13 NON d   1     -37.941  23.227  -8.323  0.00  0.00     0.236 A 
ATOM      7  N2  NON d   1     -38.290  23.899  -7.227  0.00  0.00    -0.224 NA
ATOM      8  C14 NON d   1     -39.073  23.273  -6.327  0.00  0.00     0.142 A 
ATOM      9  C28 NON d   1     -39.498  21.931  -6.521  0.00  0.00     0.040 A 
ATOM     10  C29 NON d   1     -40.308  21.128  -5.640  0.00  0.00     0.030 A 
ENDROOT
BRANCH   8  11
ATOM     11  N3  NON d   1     -39.431  23.965  -5.136  0.00  0.00    -0.340 N 
ATOM     12  H9  NON d   1     -38.875  24.809  -5.046  0.00  0.00     0.167 HD
BRANCH  11  13
ATOM     13  C15 NON d   1     -39.772  23.469  -3.849  0.00  0.00     0.035 A 
ATOM     14  C16 NON d   1     -40.977  23.711  -3.193  0.00  0.00     0.032 A 
ATOM     15  C17 NON d   1     -41.221  23.208  -1.905  0.00  0.00     0.041 A 
ATOM     16  C18 NON d   1     -40.257  22.484  -1.194  0.00  0.00     0.091 A 
ATOM     17  C26 NON d   1     -39.018  22.285  -1.815  0.00  0.00     0.069 A 
ATOM     18 Cl1  NON d   1     -37.671  21.459  -1.112  0.00  0.00    -0.081 Cl
ATOM     19  C27 NON d   1     -38.790  22.780  -3.119  0.00  0.00     0.056 A 
BRANCH  16  20
ATOM     20  O2  NON d   1     -40.729  22.096   0.030  0.00  0.00    -0.345 OA
BRANCH  20  21
ATOM     21  C19 NON d   1     -40.116  22.562   1.227  0.00  0.00     0.214 C 
BRANCH  21  22
ATOM     22  C20 NON d   1     -40.521  23.986   1.565  0.00  0.00    -0.031 A 
ATOM     23  C21 NON d   1     -41.049  24.359   2.811  0.00  0.00     0.009 A 
ATOM     24  C22 NON d   1     -41.398  25.690   3.071  0.00  0.00     0.004 A 
ATOM     25  C23 NON d   1     -41.222  26.664   2.088  0.00  0.00     0.042 A 
ATOM     26  C24 NON d   1     -40.698  26.299   0.855  0.00  0.00     0.117 A 
ATOM     27  F1  NON d   1     -40.527  27.230  -0.091  0.00  0.00    -0.206 F 
ATOM     28  C25 NON d   1     -40.348  24.979   0.588  0.00  0.00     0.051 A 
ENDBRANCH  21  22
ENDBRANCH  20  21
ENDBRANCH  16  20
ENDBRANCH  11  13
ENDBRANCH   8  11
BRANCH   1  29
ATOM     29  C8  NON d   1     -41.594  18.968  -5.059  0.00  0.00    -0.025 A 
ATOM     30  C7  NON d   1     -41.162  18.559  -3.779  0.00  0.00     0.012 A 
ATOM     31  C6  NON d   1     -41.944  17.768  -2.936  0.00  0.00     0.002 A 
ATOM     32  C5  NON d   1     -43.205  17.356  -3.340  0.00  0.00     0.011 A 
ATOM     33  C4  NON d   1     -43.696  17.725  -4.594  0.00  0.00    -0.035 A 
ATOM     34  C30 NON d   1     -42.884  18.525  -5.433  0.00  0.00     0.023 A 
BRANCH  33  35
ATOM     35  C3  NON d   1     -45.043  17.336  -5.060  0.00  0.00     0.017 C 
ATOM     36  C2  NON d   1     -45.954  16.661  -4.339  0.00  0.00     0.077 C 
BRANCH  36  37
ATOM     37  C1  NON d   1     -47.285  16.348  -4.921  0.00  0.00     0.264 C 
ATOM     38  O1  NON d   1     -48.313  16.888  -4.523  0.00  0.00    -0.266 OA
ATOM     39  N4  NON d   1     -47.322  15.380  -5.885  0.00  0.00    -0.234 N 
ATOM     40  H21 NON d   1     -48.182  15.334  -6.425  0.00  0.00     0.197 HD
BRANCH  39  41
ATOM     41  O3  NON d   1     -46.143  15.004  -6.559  0.00  0.00    -0.287 OA
ATOM     42  H22 NON d   1     -46.333  15.294  -7.472  0.00  0.00     0.244 HD
ENDBRANCH  39  41
ENDBRANCH  36  37
ENDBRANCH  33  35
ENDBRANCH   1  29
TORSDOF 9
ENDMDL
MODEL 5
REMARK VINA RESULT:   -14.395      2.280      2.745
REMARK INTER + INTRA:         -19.042
REMARK INTER:                 -17.080
REMARK INTRA:                  -1.962
REMARK CONF_INDEPENDENT:        2.685
REMARK UNBOUND:                -1.962
REMARK  9 active torsions:
REMARK  status: ('A' for Active; 'I' for Inactive)
REMARK    1  A    between atoms: C1_2  and  C2_3 
REMARK       I    between atoms: C1_2  and  N4_38 
REMARK    2  A    between atoms: C3_4  and  C4_5 
REMARK    3  A    between atoms: C8_9  and  C9_10 
REMARK    4  A    between atoms: C14_17  and  N3_18 
REMARK    5  A    between atoms: N3_18  and  C15_19 
REMARK    6  A    between atoms: C18_22  and  O2_23 
REMARK    7  A    between atoms: O2_23  and  C19_24 
REMARK    8  A    between atoms: C19_24  and  C20_25 
REMARK    9  A    between atoms: N4_38  and  O3_39 
ROOT
ATOM      1  C9  NON d   1     -40.975  20.150  -5.995  0.00  0.00    -0.025 A 
ATOM      2  C10 NON d   1     -41.094  20.111  -7.392  0.00  0.00     0.014 A 
ATOM      3  C11 NON d   1     -40.388  20.978  -8.230  0.00  0.00     0.033 A 
ATOM      4  C12 NON d   1     -39.539  21.941  -7.733  0.00  0.00     0.072 A 
ATOM      5  N1  NON d   1     -38.928  22.712  -8.631  0.00  0.00    -0.241 NA
ATOM      6  C13 NON d   1     -38.114  23.644  -8.147  0.00  0.00     0.236 A 
ATOM      7  N2  NON d   1     -37.874  23.878  -6.858  0.00  0.00    -0.224 NA
ATOM      8  C14 NON d   1     -38.500  23.105  -5.950  0.00  0.00     0.142 A 
ATOM      9  C28 NON d   1     -39.373  22.055  -6.348  0.00  0.00     0.040 A 
ATOM     10  C29 NON d   1     -40.087  21.135  -5.498  0.00  0.00     0.030 A 
ENDROOT
BRANCH   8  11
ATOM     11  N3  NON d   1     -38.233  23.321  -4.569  0.00  0.00    -0.340 N 
ATOM     12  H9  NON d   1     -37.759  22.514  -4.179  0.00  0.00     0.167 HD
BRANCH  11  13
ATOM     13  C15 NON d   1     -39.017  23.953  -3.567  0.00  0.00     0.035 A 
ATOM     14  C16 NON d   1     -40.398  23.823  -3.433  0.00  0.00     0.032 A 
ATOM     15  C17 NON d   1     -41.103  24.510  -2.432  0.00  0.00     0.041 A 
ATOM     16  C18 NON d   1     -40.470  25.395  -1.551  0.00  0.00     0.091 A 
ATOM     17  C26 NON d   1     -39.092  25.583  -1.711  0.00  0.00     0.069 A 
ATOM     18 Cl1  NON d   1     -38.115  26.654  -0.768  0.00  0.00    -0.081 Cl
ATOM     19  C27 NON d   1     -38.390  24.873  -2.711  0.00  0.00     0.056 A 
BRANCH  16  20
ATOM     20  O2  NON d   1     -41.361  25.935  -0.663  0.00  0.00    -0.345 OA
BRANCH  20  21
ATOM     21  C19 NON d   1     -41.589  25.324   0.601  0.00  0.00     0.214 C 
BRANCH  21  22
ATOM     22  C20 NON d   1     -40.673  24.137   0.842  0.00  0.00    -0.031 A 
ATOM     23  C21 NON d   1     -40.948  22.845   0.370  0.00  0.00     0.009 A 
ATOM     24  C22 NON d   1     -40.062  21.789   0.615  0.00  0.00     0.004 A 
ATOM     25  C23 NON d   1     -38.888  22.014   1.332  0.00  0.00     0.042 A 
ATOM     26  C24 NON d   1     -38.610  23.291   1.799  0.00  0.00     0.117 A 
ATOM     27  F1  NON d   1     -37.484  23.512   2.489  0.00  0.00    -0.206 F 
ATOM     28  C25 NON d   1     -39.484  24.348   1.561  0.00  0.00     0.051 A 
ENDBRANCH  21  22
ENDBRANCH  20  21
ENDBRANCH  16  20
ENDBRANCH  11  13
ENDBRANCH   8  11
BRANCH   1  29
ATOM     29  C8  NON d   1     -41.756  19.204  -5.121  0.00  0.00    -0.025 A 
ATOM     30  C7  NON d   1     -41.214  18.694  -3.921  0.00  0.00     0.012 A 
ATOM     31  C6  NON d   1     -41.908  17.806  -3.098  0.00  0.00     0.002 A 
ATOM     32  C5  NON d   1     -43.185  17.392  -3.443  0.00  0.00     0.011 A 
ATOM     33  C4  NON d   1     -43.783  17.858  -4.616  0.00  0.00    -0.035 A 
ATOM     34  C30 NON d   1     -43.060  18.757  -5.435  0.00  0.00     0.023 A 
BRANCH  33  35
ATOM     35  C3  NON d   1     -45.153  17.470  -5.011  0.00  0.00     0.017 C 
ATOM     36  C2  NON d   1     -45.954  16.630  -4.334  0.00  0.00     0.077 C 
BRANCH  36  37
ATOM     37  C1  NON d   1     -47.323  16.337  -4.832  0.00  0.00     0.264 C 
ATOM     38  O1  NON d   1     -48.317  16.882  -4.362  0.00  0.00    -0.266 OA
ATOM     39  N4  NON d   1     -47.432  15.382  -5.804  0.00  0.00    -0.234 N 
ATOM     40  H21 NON d   1     -48.325  15.352  -6.288  0.00  0.00     0.197 HD
BRANCH  39  41
ATOM     41  O3  NON d   1     -46.302  15.005  -6.558  0.00  0.00    -0.287 OA
ATOM     42  H22 NON d   1     -46.385  15.578  -7.344  0.00  0.00     0.244 HD
ENDBRANCH  39  41
ENDBRANCH  36  37
ENDBRANCH  33  35
ENDBRANCH   1  29
TORSDOF 9
ENDMDL
MODEL 6
REMARK VINA RESULT:   -14.304      1.902      2.975
REMARK INTER + INTRA:         -18.551
REMARK INTER:                 -16.988
REMARK INTRA:                  -1.562
REMARK CONF_INDEPENDENT:        2.685
REMARK UNBOUND:                -1.562
REMARK  9 active torsions:
REMARK  status: ('A' for Active; 'I' for Inactive)
REMARK    1  A    between atoms: C1_2  and  C2_3 
REMARK       I    between atoms: C1_2  and  N4_38 
REMARK    2  A    between atoms: C3_4  and  C4_5 
REMARK    3  A    between atoms: C8_9  and  C9_10 
REMARK    4  A    between atoms: C14_17  and  N3_18 
REMARK    5  A    between atoms: N3_18  and  C15_19 
REMARK    6  A    between atoms: C18_22  and  O2_23 
REMARK    7  A    between atoms: O2_23  and  C19_24 
REMARK    8  A    between atoms: C19_24  and  C20_25 
REMARK    9  A    between atoms: N4_38  and  O3_39 
ROOT
ATOM      1  C9  NON d   1     -40.618  19.231  -6.368  0.00  0.00    -0.025 A 
ATOM      2  C10 NON d   1     -39.839  18.384  -7.171  0.00  0.00     0.014 A 
ATOM      3  C11 NON d   1     -39.034  18.864  -8.207  0.00  0.00     0.033 A 
ATOM      4  C12 NON d   1     -38.966  20.205  -8.516  0.00  0.00     0.072 A 
ATOM      5  N1  NON d   1     -38.169  20.539  -9.528  0.00  0.00    -0.241 NA
ATOM      6  C13 NON d   1     -38.111  21.833  -9.827  0.00  0.00     0.236 A 
ATOM      7  N2  NON d   1     -38.786  22.806  -9.217  0.00  0.00    -0.224 NA
ATOM      8  C14 NON d   1     -39.600  22.465  -8.199  0.00  0.00     0.142 A 
ATOM      9  C28 NON d   1     -39.723  21.116  -7.769  0.00  0.00     0.040 A 
ATOM     10  C29 NON d   1     -40.527  20.607  -6.687  0.00  0.00     0.030 A 
ENDROOT
BRANCH   8  11
ATOM     11  N3  NON d   1     -40.306  23.495  -7.516  0.00  0.00    -0.340 N 
ATOM     12  H9  NON d   1     -40.462  24.279  -8.140  0.00  0.00     0.167 HD
BRANCH  11  13
ATOM     13  C15 NON d   1     -40.196  23.955  -6.176  0.00  0.00     0.035 A 
ATOM     14  C16 NON d   1     -39.985  25.281  -5.803  0.00  0.00     0.032 A 
ATOM     15  C17 NON d   1     -39.855  25.648  -4.454  0.00  0.00     0.041 A 
ATOM     16  C18 NON d   1     -39.881  24.703  -3.421  0.00  0.00     0.091 A 
ATOM     17  C26 NON d   1     -40.030  23.360  -3.784  0.00  0.00     0.069 A 
ATOM     18 Cl1  NON d   1     -40.048  22.025  -2.684  0.00  0.00    -0.081 Cl
ATOM     19  C27 NON d   1     -40.178  23.005  -5.144  0.00  0.00     0.056 A 
BRANCH  16  20
ATOM     20  O2  NON d   1     -39.742  25.301  -2.198  0.00  0.00    -0.345 OA
BRANCH  20  21
ATOM     21  C19 NON d   1     -40.883  25.746  -1.472  0.00  0.00     0.214 C 
BRANCH  21  22
ATOM     22  C20 NON d   1     -40.927  25.179  -0.064  0.00  0.00    -0.031 A 
ATOM     23  C21 NON d   1     -40.630  23.841   0.236  0.00  0.00     0.009 A 
ATOM     24  C22 NON d   1     -40.679  23.375   1.556  0.00  0.00     0.004 A 
ATOM     25  C23 NON d   1     -41.024  24.242   2.591  0.00  0.00     0.042 A 
ATOM     26  C24 NON d   1     -41.317  25.568   2.299  0.00  0.00     0.117 A 
ATOM     27  F1  NON d   1     -41.650  26.404   3.290  0.00  0.00    -0.206 F 
ATOM     28  C25 NON d   1     -41.271  26.041   0.991  0.00  0.00     0.051 A 
ENDBRANCH  21  22
ENDBRANCH  20  21
ENDBRANCH  16  20
ENDBRANCH  11  13
ENDBRANCH   8  11
BRANCH   1  29
ATOM     29  C8  NON d   1     -41.480  18.677  -5.263  0.00  0.00    -0.025 A 
ATOM     30  C7  NON d   1     -40.957  18.433  -3.975  0.00  0.00     0.012 A 
ATOM     31  C6  NON d   1     -41.727  17.908  -2.936  0.00  0.00     0.002 A 
ATOM     32  C5  NON d   1     -43.064  17.610  -3.143  0.00  0.00     0.011 A 
ATOM     33  C4  NON d   1     -43.648  17.827  -4.393  0.00  0.00    -0.035 A 
ATOM     34  C30 NON d   1     -42.847  18.358  -5.433  0.00  0.00     0.023 A 
BRANCH  33  35
ATOM     35  C3  NON d   1     -45.075  17.552  -4.657  0.00  0.00     0.017 C 
ATOM     36  C2  NON d   1     -45.867  16.756  -3.919  0.00  0.00     0.077 C 
BRANCH  36  37
ATOM     37  C1  NON d   1     -47.297  16.579  -4.283  0.00  0.00     0.264 C 
ATOM     38  O1  NON d   1     -48.198  17.149  -3.675  0.00  0.00    -0.266 OA
ATOM     39  N4  NON d   1     -47.570  15.699  -5.293  0.00  0.00    -0.234 N 
ATOM     40  H21 NON d   1     -48.508  15.754  -5.677  0.00  0.00     0.197 HD
BRANCH  39  41
ATOM     41  O3  NON d   1     -46.552  15.307  -6.185  0.00  0.00    -0.287 OA
ATOM     42  H22 NON d   1     -47.060  15.119  -6.998  0.00  0.00     0.244 HD
ENDBRANCH  39  41
ENDBRANCH  36  37
ENDBRANCH  33  35
ENDBRANCH   1  29
TORSDOF 9
ENDMDL
MODEL 7
REMARK VINA RESULT:   -13.858      2.071      2.798
REMARK INTER + INTRA:         -18.058
REMARK INTER:                 -16.543
REMARK INTRA:                  -1.515
REMARK CONF_INDEPENDENT:        2.685
REMARK UNBOUND:                -1.515
REMARK  9 active torsions:
REMARK  status: ('A' for Active; 'I' for Inactive)
REMARK    1  A    between atoms: C1_2  and  C2_3 
REMARK       I    between atoms: C1_2  and  N4_38 
REMARK    2  A    between atoms: C3_4  and  C4_5 
REMARK    3  A    between atoms: C8_9  and  C9_10 
REMARK    4  A    between atoms: C14_17  and  N3_18 
REMARK    5  A    between atoms: N3_18  and  C15_19 
REMARK    6  A    between atoms: C18_22  and  O2_23 
REMARK    7  A    between atoms: O2_23  and  C19_24 
REMARK    8  A    between atoms: C19_24  and  C20_25 
REMARK    9  A    between atoms: N4_38  and  O3_39 
ROOT
ATOM      1  C9  NON d   1     -41.085  20.178  -6.095  0.00  0.00    -0.025 A 
ATOM      2  C10 NON d   1     -41.443  19.905  -7.424  0.00  0.00     0.014 A 
ATOM      3  C11 NON d   1     -41.035  20.709  -8.491  0.00  0.00     0.033 A 
ATOM      4  C12 NON d   1     -40.266  21.836  -8.302  0.00  0.00     0.072 A 
ATOM      5  N1  NON d   1     -39.947  22.525  -9.396  0.00  0.00    -0.241 NA
ATOM      6  C13 NON d   1     -39.210  23.615  -9.209  0.00  0.00     0.236 A 
ATOM      7  N2  NON d   1     -38.783  24.076  -8.035  0.00  0.00    -0.224 NA
ATOM      8  C14 NON d   1     -39.115  23.384  -6.928  0.00  0.00     0.142 A 
ATOM      9  C28 NON d   1     -39.876  22.186  -7.004  0.00  0.00     0.040 A 
ATOM     10  C29 NON d   1     -40.282  21.331  -5.917  0.00  0.00     0.030 A 
ENDROOT
BRANCH   8  11
ATOM     11  N3  NON d   1     -38.643  23.846  -5.667  0.00  0.00    -0.340 N 
ATOM     12  H9  NON d   1     -37.983  23.180  -5.281  0.00  0.00     0.167 HD
BRANCH  11  13
ATOM     13  C15 NON d   1     -39.326  24.516  -4.616  0.00  0.00     0.035 A 
ATOM     14  C16 NON d   1     -39.079  24.331  -3.258  0.00  0.00     0.032 A 
ATOM     15  C17 NON d   1     -39.824  25.010  -2.281  0.00  0.00     0.041 A 
ATOM     16  C18 NON d   1     -40.879  25.868  -2.613  0.00  0.00     0.091 A 
ATOM     17  C26 NON d   1     -41.180  26.018  -3.972  0.00  0.00     0.069 A 
ATOM     18 Cl1  NON d   1     -42.461  26.989  -4.609  0.00  0.00    -0.081 Cl
ATOM     19  C27 NON d   1     -40.412  25.342  -4.947  0.00  0.00     0.056 A 
BRANCH  16  20
ATOM     20  O2  NON d   1     -41.445  26.417  -1.495  0.00  0.00    -0.345 OA
BRANCH  20  21
ATOM     21  C19 NON d   1     -40.633  26.946  -0.454  0.00  0.00     0.214 C 
BRANCH  21  22
ATOM     22  C20 NON d   1     -40.668  26.088   0.799  0.00  0.00    -0.031 A 
ATOM     23  C21 NON d   1     -40.386  26.585   2.080  0.00  0.00     0.009 A 
ATOM     24  C22 NON d   1     -40.443  25.749   3.202  0.00  0.00     0.004 A 
ATOM     25  C23 NON d   1     -40.785  24.405   3.055  0.00  0.00     0.042 A 
ATOM     26  C24 NON d   1     -41.067  23.910   1.789  0.00  0.00     0.117 A 
ATOM     27  F1  NON d   1     -41.395  22.620   1.644  0.00  0.00    -0.206 F 
ATOM     28  C25 NON d   1     -41.013  24.733   0.669  0.00  0.00     0.051 A 
ENDBRANCH  21  22
ENDBRANCH  20  21
ENDBRANCH  16  20
ENDBRANCH  11  13
ENDBRANCH   8  11
BRANCH   1  29
ATOM     29  C8  NON d   1     -41.548  19.292  -4.968  0.00  0.00    -0.025 A 
ATOM     30  C7  NON d   1     -40.853  19.242  -3.740  0.00  0.00     0.012 A 
ATOM     31  C6  NON d   1     -41.249  18.421  -2.683  0.00  0.00     0.002 A 
ATOM     32  C5  NON d   1     -42.369  17.615  -2.810  0.00  0.00     0.011 A 
ATOM     33  C4  NON d   1     -43.105  17.616  -3.997  0.00  0.00    -0.035 A 
ATOM     34  C30 NON d   1     -42.683  18.455  -5.056  0.00  0.00     0.023 A 
BRANCH  33  35
ATOM     35  C3  NON d   1     -44.322  16.797  -4.172  0.00  0.00     0.017 C 
ATOM     36  C2  NON d   1     -45.321  17.054  -5.033  0.00  0.00     0.077 C 
BRANCH  36  37
ATOM     37  C1  NON d   1     -46.485  16.135  -5.124  0.00  0.00     0.264 C 
ATOM     38  O1  NON d   1     -46.645  15.381  -6.079  0.00  0.00    -0.266 OA
ATOM     39  N4  NON d   1     -47.408  16.212  -4.119  0.00  0.00    -0.234 N 
ATOM     40  H21 NON d   1     -48.068  15.441  -4.073  0.00  0.00     0.197 HD
BRANCH  39  41
ATOM     41  O3  NON d   1     -47.073  16.819  -2.893  0.00  0.00    -0.287 OA
ATOM     42  H22 NON d   1     -47.070  16.056  -2.285  0.00  0.00     0.244 HD
ENDBRANCH  39  41
ENDBRANCH  36  37
ENDBRANCH  33  35
ENDBRANCH   1  29
TORSDOF 9
ENDMDL
MODEL 8
REMARK VINA RESULT:   -13.413      6.007     10.227
REMARK INTER + INTRA:         -17.423
REMARK INTER:                 -16.097
REMARK INTRA:                  -1.325
REMARK CONF_INDEPENDENT:        2.685
REMARK UNBOUND:                -1.325
REMARK  9 active torsions:
REMARK  status: ('A' for Active; 'I' for Inactive)
REMARK    1  A    between atoms: C1_2  and  C2_3 
REMARK       I    between atoms: C1_2  and  N4_38 
REMARK    2  A    between atoms: C3_4  and  C4_5 
REMARK    3  A    between atoms: C8_9  and  C9_10 
REMARK    4  A    between atoms: C14_17  and  N3_18 
REMARK    5  A    between atoms: N3_18  and  C15_19 
REMARK    6  A    between atoms: C18_22  and  O2_23 
REMARK    7  A    between atoms: O2_23  and  C19_24 
REMARK    8  A    between atoms: C19_24  and  C20_25 
REMARK    9  A    between atoms: N4_38  and  O3_39 
ROOT
ATOM      1  C9  NON d   1     -41.005  21.000  -4.429  0.00  0.00    -0.025 A 
ATOM      2  C10 NON d   1     -40.653  21.832  -3.355  0.00  0.00     0.014 A 
ATOM      3  C11 NON d   1     -39.978  23.042  -3.533  0.00  0.00     0.033 A 
ATOM      4  C12 NON d   1     -39.600  23.489  -4.780  0.00  0.00     0.072 A 
ATOM      5  N1  NON d   1     -38.957  24.654  -4.821  0.00  0.00    -0.241 NA
ATOM      6  C13 NON d   1     -38.588  25.079  -6.025  0.00  0.00     0.236 A 
ATOM      7  N2  NON d   1     -38.793  24.439  -7.175  0.00  0.00    -0.224 NA
ATOM      8  C14 NON d   1     -39.435  23.256  -7.131  0.00  0.00     0.142 A 
ATOM      9  C28 NON d   1     -39.903  22.712  -5.904  0.00  0.00     0.040 A 
ATOM     10  C29 NON d   1     -40.623  21.479  -5.706  0.00  0.00     0.030 A 
ENDROOT
BRANCH   8  11
ATOM     11  N3  NON d   1     -39.689  22.571  -8.353  0.00  0.00    -0.340 N 
ATOM     12  H9  NON d   1     -39.430  21.594  -8.262  0.00  0.00     0.167 HD
BRANCH  11  13
ATOM     13  C15 NON d   1     -39.518  22.994  -9.699  0.00  0.00     0.035 A 
ATOM     14  C16 NON d   1     -39.241  22.149 -10.772  0.00  0.00     0.032 A 
ATOM     15  C17 NON d   1     -39.055  22.653 -12.069  0.00  0.00     0.041 A 
ATOM     16  C18 NON d   1     -39.088  24.026 -12.345  0.00  0.00     0.091 A 
ATOM     17  C26 NON d   1     -39.305  24.892 -11.267  0.00  0.00     0.069 A 
ATOM     18 Cl1  NON d   1     -39.344  26.618 -11.366  0.00  0.00    -0.081 Cl
ATOM     19  C27 NON d   1     -39.509  24.371  -9.969  0.00  0.00     0.056 A 
BRANCH  16  20
ATOM     20  O2  NON d   1     -38.887  24.270 -13.677  0.00  0.00    -0.345 OA
BRANCH  20  21
ATOM     21  C19 NON d   1     -39.823  23.815 -14.648  0.00  0.00     0.214 C 
BRANCH  21  22
ATOM     22  C20 NON d   1     -40.936  24.819 -14.890  0.00  0.00    -0.031 A 
ATOM     23  C21 NON d   1     -41.534  25.016 -16.144  0.00  0.00     0.009 A 
ATOM     24  C22 NON d   1     -42.564  25.951 -16.308  0.00  0.00     0.004 A 
ATOM     25  C23 NON d   1     -43.009  26.699 -15.218  0.00  0.00     0.042 A 
ATOM     26  C24 NON d   1     -42.421  26.505 -13.975  0.00  0.00     0.117 A 
ATOM     27  F1  NON d   1     -42.844  27.222 -12.926  0.00  0.00    -0.206 F 
ATOM     28  C25 NON d   1     -41.397  25.579 -13.802  0.00  0.00     0.051 A 
ENDBRANCH  21  22
ENDBRANCH  20  21
ENDBRANCH  16  20
ENDBRANCH  11  13
ENDBRANCH   8  11
BRANCH   1  29
ATOM     29  C8  NON d   1     -41.727  19.698  -4.200  0.00  0.00    -0.025 A 
ATOM     30  C7  NON d   1     -41.244  18.742  -3.280  0.00  0.00     0.012 A 
ATOM     31  C6  NON d   1     -41.882  17.522  -3.056  0.00  0.00     0.002 A 
ATOM     32  C5  NON d   1     -43.044  17.208  -3.745  0.00  0.00     0.011 A 
ATOM     33  C4  NON d   1     -43.578  18.108  -4.669  0.00  0.00    -0.035 A 
ATOM     34  C30 NON d   1     -42.912  19.338  -4.881  0.00  0.00     0.023 A 
BRANCH  33  35
ATOM     35  C3  NON d   1     -44.828  17.832  -5.406  0.00  0.00     0.017 C 
ATOM     36  C2  NON d   1     -45.842  17.068  -4.968  0.00  0.00     0.077 C 
BRANCH  36  37
ATOM     37  C1  NON d   1     -47.058  16.887  -5.803  0.00  0.00     0.264 C 
ATOM     38  O1  NON d   1     -47.814  17.818  -6.062  0.00  0.00    -0.266 OA
ATOM     39  N4  NON d   1     -47.330  15.615  -6.224  0.00  0.00    -0.234 N 
ATOM     40  H21 NON d   1     -48.021  15.539  -6.965  0.00  0.00     0.197 HD
BRANCH  39  41
ATOM     41  O3  NON d   1     -46.321  14.632  -6.209  0.00  0.00    -0.287 OA
ATOM     42  H22 NON d   1     -46.178  14.476  -7.162  0.00  0.00     0.244 HD
ENDBRANCH  39  41
ENDBRANCH  36  37
ENDBRANCH  33  35
ENDBRANCH   1  29
TORSDOF 9
ENDMDL
MODEL 9
REMARK VINA RESULT:   -13.133      2.286      2.812
REMARK INTER + INTRA:         -17.571
REMARK INTER:                 -15.818
REMARK INTRA:                  -1.753
REMARK CONF_INDEPENDENT:        2.685
REMARK UNBOUND:                -1.753
REMARK  9 active torsions:
REMARK  status: ('A' for Active; 'I' for Inactive)
REMARK    1  A    between atoms: C1_2  and  C2_3 
REMARK       I    between atoms: C1_2  and  N4_38 
REMARK    2  A    between atoms: C3_4  and  C4_5 
REMARK    3  A    between atoms: C8_9  and  C9_10 
REMARK    4  A    between atoms: C14_17  and  N3_18 
REMARK    5  A    between atoms: N3_18  and  C15_19 
REMARK    6  A    between atoms: C18_22  and  O2_23 
REMARK    7  A    between atoms: O2_23  and  C19_24 
REMARK    8  A    between atoms: C19_24  and  C20_25 
REMARK    9  A    between atoms: N4_38  and  O3_39 
ROOT
ATOM      1  C9  NON d   1     -40.209  20.467  -4.577  0.00  0.00    -0.025 A 
ATOM      2  C10 NON d   1     -39.051  20.260  -5.342  0.00  0.00     0.014 A 
ATOM      3  C11 NON d   1     -38.221  21.309  -5.744  0.00  0.00     0.033 A 
ATOM      4  C12 NON d   1     -38.496  22.620  -5.426  0.00  0.00     0.072 A 
ATOM      5  N1  NON d   1     -37.634  23.532  -5.871  0.00  0.00    -0.241 NA
ATOM      6  C13 NON d   1     -37.907  24.796  -5.567  0.00  0.00     0.236 A 
ATOM      7  N2  NON d   1     -38.964  25.223  -4.877  0.00  0.00    -0.224 NA
ATOM      8  C14 NON d   1     -39.841  24.301  -4.436  0.00  0.00     0.142 A 
ATOM      9  C28 NON d   1     -39.641  22.914  -4.674  0.00  0.00     0.040 A 
ATOM     10  C29 NON d   1     -40.473  21.818  -4.244  0.00  0.00     0.030 A 
ENDROOT
BRANCH   8  11
ATOM     11  N3  NON d   1     -40.961  24.735  -3.672  0.00  0.00    -0.340 N 
ATOM     12  H9  NON d   1     -41.529  25.370  -4.222  0.00  0.00     0.167 HD
BRANCH  11  13
ATOM     13  C15 NON d   1     -41.065  25.061  -2.293  0.00  0.00     0.035 A 
ATOM     14  C16 NON d   1     -41.026  26.353  -1.773  0.00  0.00     0.032 A 
ATOM     15  C17 NON d   1     -41.103  26.587  -0.391  0.00  0.00     0.041 A 
ATOM     16  C18 NON d   1     -41.174  25.542   0.537  0.00  0.00     0.091 A 
ATOM     17  C26 NON d   1     -41.153  24.236   0.035  0.00  0.00     0.069 A 
ATOM     18 Cl1  NON d   1     -41.189  22.797   0.993  0.00  0.00    -0.081 Cl
ATOM     19  C27 NON d   1     -41.093  24.013  -1.360  0.00  0.00     0.056 A 
BRANCH  16  20
ATOM     20  O2  NON d   1     -41.247  26.018   1.818  0.00  0.00    -0.345 OA
BRANCH  20  21
ATOM     21  C19 NON d   1     -40.355  25.548   2.822  0.00  0.00     0.214 C 
BRANCH  21  22
ATOM     22  C20 NON d   1     -38.899  25.712   2.421  0.00  0.00    -0.031 A 
ATOM     23  C21 NON d   1     -38.213  26.934   2.500  0.00  0.00     0.009 A 
ATOM     24  C22 NON d   1     -36.868  27.025   2.124  0.00  0.00     0.004 A 
ATOM     25  C23 NON d   1     -36.191  25.895   1.668  0.00  0.00     0.042 A 
ATOM     26  C24 NON d   1     -36.865  24.684   1.590  0.00  0.00     0.117 A 
ATOM     27  F1  NON d   1     -36.220  23.596   1.151  0.00  0.00    -0.206 F 
ATOM     28  C25 NON d   1     -38.203  24.583   1.961  0.00  0.00     0.051 A 
ENDBRANCH  21  22
ENDBRANCH  20  21
ENDBRANCH  16  20
ENDBRANCH  11  13
ENDBRANCH   8  11
BRANCH   1  29
ATOM     29  C8  NON d   1     -41.086  19.313  -4.167  0.00  0.00    -0.025 A 
ATOM     30  C7  NON d   1     -40.621  18.315  -3.281  0.00  0.00     0.012 A 
ATOM     31  C6  NON d   1     -41.405  17.227  -2.894  0.00  0.00     0.002 A 
ATOM     32  C5  NON d   1     -42.697  17.094  -3.376  0.00  0.00     0.011 A 
ATOM     33  C4  NON d   1     -43.222  18.045  -4.255  0.00  0.00    -0.035 A 
ATOM     34  C30 NON d   1     -42.408  19.138  -4.635  0.00  0.00     0.023 A 
BRANCH  33  35
ATOM     35  C3  NON d   1     -44.602  17.963  -4.774  0.00  0.00     0.017 C 
ATOM     36  C2  NON d   1     -45.148  16.895  -5.379  0.00  0.00     0.077 C 
BRANCH  36  37
ATOM     37  C1  NON d   1     -46.561  16.936  -5.839  0.00  0.00     0.264 C 
ATOM     38  O1  NON d   1     -47.210  17.978  -5.854  0.00  0.00    -0.266 OA
ATOM     39  N4  NON d   1     -47.128  15.743  -6.190  0.00  0.00    -0.234 N 
ATOM     40  H21 NON d   1     -48.000  15.810  -6.706  0.00  0.00     0.197 HD
BRANCH  39  41
ATOM     41  O3  NON d   1     -46.314  14.630  -6.482  0.00  0.00    -0.287 OA
ATOM     42  H22 NON d   1     -46.175  14.730  -7.443  0.00  0.00     0.244 HD
ENDBRANCH  39  41
ENDBRANCH  36  37
ENDBRANCH  33  35
ENDBRANCH   1  29
TORSDOF 9
ENDMDL
