MODEL 1
REMARK VINA RESULT:   -34.656      0.000      0.000
REMARK INTER + INTRA:         -37.609
REMARK INTER:                 -37.042
REMARK INTRA:                  -0.566
REMARK CONF_INDEPENDENT:        2.386
REMARK UNBOUND:                -0.566
REMARK  8 active torsions:
REMARK  status: ('A' for Active; 'I' for Inactive)
REMARK    1  A    between atoms: S1_2  and  C2_3 
REMARK    2  A    between atoms: C3_5  and  N2_6 
REMARK    3  A    between atoms: N2_6  and  C4_7 
REMARK    4  A    between atoms: C4_7  and  C5_8 
REMARK    5  A    between atoms: C8_11  and  C9_12 
REMARK       I    between atoms: C9_12  and  N3_14 
REMARK    6  A    between atoms: N3_14  and  C10_15 
REMARK    7  A    between atoms: C15_20  and  N4_21 
REMARK    8  A    between atoms: C19_25  and  C20_26 
ROOT
ATOM      1  C5  NON d   1     -41.385  19.118  -4.951  0.00  0.00    -0.045 A 
ATOM      2  C6  NON d   1     -41.481  17.752  -4.641  0.00  0.00     0.009 A 
ATOM      3  C7  NON d   1     -42.720  17.095  -4.600  0.00  0.00     0.017 A 
ATOM      4  C8  NON d   1     -43.922  17.770  -4.864  0.00  0.00     0.032 A 
ATOM      5  C16 NON d   1     -43.844  19.133  -5.169  0.00  0.00     0.017 A 
ATOM      6  C17 NON d   1     -42.589  19.795  -5.218  0.00  0.00     0.009 A 
ENDROOT
BRANCH   1   7
ATOM      7  C4  NON d   1     -39.982  19.732  -5.024  0.00  0.00     0.132 C 
BRANCH   7   8
ATOM      8  N2  NON d   1     -39.927  20.977  -5.788  0.00  0.00    -0.273 NA
ATOM      9  H4  NON d   1     -39.553  21.731  -5.218  0.00  0.00     0.129 HD
BRANCH   8  10
ATOM     10  C3  NON d   1     -39.207  20.941  -7.010  0.00  0.00     0.108 A 
ATOM     11  N1  NON d   1     -38.225  20.069  -7.258  0.00  0.00    -0.211 NA
ATOM     12  C2  NON d   1     -37.594  20.116  -8.464  0.00  0.00     0.190 A 
ATOM     13  N6  NON d   1     -37.893  20.972  -9.445  0.00  0.00    -0.222 NA
ATOM     14  C19 NON d   1     -38.907  21.839  -9.197  0.00  0.00     0.074 A 
ATOM     15  C18 NON d   1     -39.579  21.847  -7.980  0.00  0.00     0.076 A 
BRANCH  12  16
ATOM     16  S1  NON d   1     -36.308  18.917  -8.625  0.00  0.00    -0.095 SA
ATOM     17  C1  NON d   1     -36.271  17.788  -7.577  0.00  0.00     0.099 C 
ENDBRANCH  12  16
BRANCH  14  18
ATOM     18  C20 NON d   1     -39.252  22.772 -10.296  0.00  0.00     0.010 A 
ATOM     19  C21 NON d   1     -38.907  22.556 -11.643  0.00  0.00     0.017 A 
ATOM     20  C22 NON d   1     -39.262  23.469 -12.637  0.00  0.00     0.020 A 
ATOM     21  C23 NON d   1     -39.964  24.597 -12.266  0.00  0.00     0.116 A 
ATOM     22  N5  NON d   1     -40.322  24.862 -10.996  0.00  0.00    -0.272 NA
ATOM     23  C24 NON d   1     -39.960  23.952 -10.056  0.00  0.00     0.130 A 
ENDBRANCH  14  18
ENDBRANCH   8  10
ENDBRANCH   7   8
ENDBRANCH   1   7
BRANCH   4  24
ATOM     24  C9  NON d   1     -45.184  16.941  -4.849  0.00  0.00     0.256 C 
ATOM     25  O1  NON d   1     -45.279  16.056  -5.698  0.00  0.00    -0.267 OA
ATOM     26  N3  NON d   1     -46.155  17.220  -3.898  0.00  0.00    -0.321 N 
ATOM     27  H9  NON d   1     -45.991  17.936  -3.201  0.00  0.00     0.169 HD
BRANCH  26  28
ATOM     28  C10 NON d   1     -47.384  16.521  -3.699  0.00  0.00     0.056 A 
ATOM     29  C11 NON d   1     -47.978  16.320  -2.448  0.00  0.00     0.031 A 
ATOM     30  C12 NON d   1     -49.213  15.668  -2.334  0.00  0.00     0.002 A 
ATOM     31  C13 NON d   1     -49.873  15.209  -3.469  0.00  0.00     0.002 A 
ATOM     32  C14 NON d   1     -49.291  15.389  -4.722  0.00  0.00     0.025 A 
ATOM     33  C15 NON d   1     -48.047  16.029  -4.846  0.00  0.00     0.033 A 
BRANCH  33  34
ATOM     34  N4  NON d   1     -47.440  16.131  -6.125  0.00  0.00    -0.301 NA
ATOM     35  H14 NON d   1     -48.165  16.166  -6.839  0.00  0.00     0.124 HD
ATOM     36  H15 NON d   1     -46.856  16.961  -6.196  0.00  0.00     0.124 HD
ENDBRANCH  33  34
ENDBRANCH  26  28
ENDBRANCH   4  24
TORSDOF 8
ENDMDL
MODEL 2
REMARK VINA RESULT:   -34.305      4.564      6.998
REMARK INTER + INTRA:         -38.038
REMARK INTER:                 -36.691
REMARK INTRA:                  -1.347
REMARK CONF_INDEPENDENT:        2.386
REMARK UNBOUND:                -1.347
REMARK  8 active torsions:
REMARK  status: ('A' for Active; 'I' for Inactive)
REMARK    1  A    between atoms: S1_2  and  C2_3 
REMARK    2  A    between atoms: C3_5  and  N2_6 
REMARK    3  A    between atoms: N2_6  and  C4_7 
REMARK    4  A    between atoms: C4_7  and  C5_8 
REMARK    5  A    between atoms: C8_11  and  C9_12 
REMARK       I    between atoms: C9_12  and  N3_14 
REMARK    6  A    between atoms: N3_14  and  C10_15 
REMARK    7  A    between atoms: C15_20  and  N4_21 
REMARK    8  A    between atoms: C19_25  and  C20_26 
ROOT
ATOM      1  C5  NON d   1     -41.456  19.138  -4.313  0.00  0.00    -0.045 A 
ATOM      2  C6  NON d   1     -41.795  18.044  -3.501  0.00  0.00     0.009 A 
ATOM      3  C7  NON d   1     -43.020  17.375  -3.645  0.00  0.00     0.017 A 
ATOM      4  C8  NON d   1     -43.965  17.766  -4.606  0.00  0.00     0.032 A 
ATOM      5  C16 NON d   1     -43.645  18.858  -5.420  0.00  0.00     0.017 A 
ATOM      6  C17 NON d   1     -42.402  19.530  -5.278  0.00  0.00     0.009 A 
ENDROOT
BRANCH   1   7
ATOM      7  C4  NON d   1     -40.072  19.769  -4.115  0.00  0.00     0.132 C 
BRANCH   7   8
ATOM      8  N2  NON d   1     -39.820  20.207  -2.744  0.00  0.00    -0.273 NA
ATOM      9  H4  NON d   1     -38.876  19.962  -2.458  0.00  0.00     0.129 HD
BRANCH   8  10
ATOM     10  C3  NON d   1     -40.029  21.583  -2.468  0.00  0.00     0.108 A 
ATOM     11  N1  NON d   1     -40.292  22.489  -3.414  0.00  0.00    -0.211 NA
ATOM     12  C2  NON d   1     -40.477  23.788  -3.046  0.00  0.00     0.190 A 
ATOM     13  N6  NON d   1     -40.428  24.235  -1.789  0.00  0.00    -0.222 NA
ATOM     14  C19 NON d   1     -40.184  23.307  -0.829  0.00  0.00     0.074 A 
ATOM     15  C18 NON d   1     -39.974  21.969  -1.146  0.00  0.00     0.076 A 
BRANCH  12  16
ATOM     16  S1  NON d   1     -40.791  24.861  -4.413  0.00  0.00    -0.095 SA
ATOM     17  C1  NON d   1     -41.696  26.080  -4.150  0.00  0.00     0.099 C 
ENDBRANCH  12  16
BRANCH  14  18
ATOM     18  C20 NON d   1     -40.154  23.803   0.567  0.00  0.00     0.010 A 
ATOM     19  C21 NON d   1     -38.975  23.944   1.322  0.00  0.00     0.017 A 
ATOM     20  C22 NON d   1     -39.008  24.420   2.633  0.00  0.00     0.020 A 
ATOM     21  C23 NON d   1     -40.232  24.752   3.177  0.00  0.00     0.116 A 
ATOM     22  N5  NON d   1     -41.394  24.638   2.508  0.00  0.00    -0.272 NA
ATOM     23  C24 NON d   1     -41.325  24.171   1.235  0.00  0.00     0.130 A 
ENDBRANCH  14  18
ENDBRANCH   8  10
ENDBRANCH   7   8
ENDBRANCH   1   7
BRANCH   4  24
ATOM     24  C9  NON d   1     -45.217  16.929  -4.706  0.00  0.00     0.256 C 
ATOM     25  O1  NON d   1     -45.280  16.129  -5.638  0.00  0.00    -0.267 OA
ATOM     26  N3  NON d   1     -46.216  17.108  -3.759  0.00  0.00    -0.321 N 
ATOM     27  H9  NON d   1     -46.079  17.754  -2.993  0.00  0.00     0.169 HD
BRANCH  26  28
ATOM     28  C10 NON d   1     -47.443  16.382  -3.663  0.00  0.00     0.056 A 
ATOM     29  C11 NON d   1     -48.063  16.049  -2.453  0.00  0.00     0.031 A 
ATOM     30  C12 NON d   1     -49.294  15.379  -2.436  0.00  0.00     0.002 A 
ATOM     31  C13 NON d   1     -49.923  15.035  -3.628  0.00  0.00     0.002 A 
ATOM     32  C14 NON d   1     -49.315  15.348  -4.842  0.00  0.00     0.025 A 
ATOM     33  C15 NON d   1     -48.075  16.007  -4.870  0.00  0.00     0.033 A 
BRANCH  33  34
ATOM     34  N4  NON d   1     -47.440  16.244  -6.117  0.00  0.00    -0.301 NA
ATOM     35  H14 NON d   1     -47.061  17.189  -6.126  0.00  0.00     0.124 HD
ATOM     36  H15 NON d   1     -46.688  15.579  -6.285  0.00  0.00     0.124 HD
ENDBRANCH  33  34
ENDBRANCH  26  28
ENDBRANCH   4  24
TORSDOF 8
ENDMDL
MODEL 3
REMARK VINA RESULT:   -34.234      3.986      6.387
REMARK INTER + INTRA:         -38.150
REMARK INTER:                 -36.620
REMARK INTRA:                  -1.530
REMARK CONF_INDEPENDENT:        2.386
REMARK UNBOUND:                -1.530
REMARK  8 active torsions:
REMARK  status: ('A' for Active; 'I' for Inactive)
REMARK    1  A    between atoms: S1_2  and  C2_3 
REMARK    2  A    between atoms: C3_5  and  N2_6 
REMARK    3  A    between atoms: N2_6  and  C4_7 
REMARK    4  A    between atoms: C4_7  and  C5_8 
REMARK    5  A    between atoms: C8_11  and  C9_12 
REMARK       I    between atoms: C9_12  and  N3_14 
REMARK    6  A    between atoms: N3_14  and  C10_15 
REMARK    7  A    between atoms: C15_20  and  N4_21 
REMARK    8  A    between atoms: C19_25  and  C20_26 
ROOT
ATOM      1  C5  NON d   1     -41.406  19.126  -4.538  0.00  0.00    -0.045 A 
ATOM      2  C6  NON d   1     -41.656  17.944  -3.822  0.00  0.00     0.009 A 
ATOM      3  C7  NON d   1     -42.889  17.280  -3.912  0.00  0.00     0.017 A 
ATOM      4  C8  NON d   1     -43.930  17.764  -4.719  0.00  0.00     0.032 A 
ATOM      5  C16 NON d   1     -43.699  18.944  -5.435  0.00  0.00     0.017 A 
ATOM      6  C17 NON d   1     -42.448  19.611  -5.349  0.00  0.00     0.009 A 
ENDROOT
BRANCH   1   7
ATOM      7  C4  NON d   1     -40.009  19.747  -4.416  0.00  0.00     0.132 C 
BRANCH   7   8
ATOM      8  N2  NON d   1     -39.861  21.004  -5.145  0.00  0.00    -0.273 NA
ATOM      9  H4  NON d   1     -40.432  21.000  -5.987  0.00  0.00     0.129 HD
BRANCH   8  10
ATOM     10  C3  NON d   1     -40.138  22.195  -4.424  0.00  0.00     0.108 A 
ATOM     11  N1  NON d   1     -40.349  23.376  -5.012  0.00  0.00    -0.211 NA
ATOM     12  C2  NON d   1     -40.607  24.461  -4.230  0.00  0.00     0.190 A 
ATOM     13  N6  NON d   1     -40.680  24.438  -2.897  0.00  0.00    -0.222 NA
ATOM     14  C19 NON d   1     -40.488  23.230  -2.307  0.00  0.00     0.074 A 
ATOM     15  C18 NON d   1     -40.208  22.090  -3.051  0.00  0.00     0.076 A 
BRANCH  12  16
ATOM     16  S1  NON d   1     -40.839  25.947  -5.157  0.00  0.00    -0.095 SA
ATOM     17  C1  NON d   1     -41.908  26.930  -4.643  0.00  0.00     0.099 C 
ENDBRANCH  12  16
BRANCH  14  18
ATOM     18  C20 NON d   1     -40.593  23.203  -0.828  0.00  0.00     0.010 A 
ATOM     19  C21 NON d   1     -40.011  22.208  -0.021  0.00  0.00     0.017 A 
ATOM     20  C22 NON d   1     -40.140  22.236   1.368  0.00  0.00     0.020 A 
ATOM     21  C23 NON d   1     -40.857  23.268   1.936  0.00  0.00     0.116 A 
ATOM     22  N5  NON d   1     -41.439  24.248   1.220  0.00  0.00    -0.272 NA
ATOM     23  C24 NON d   1     -41.293  24.190  -0.129  0.00  0.00     0.130 A 
ENDBRANCH  14  18
ENDBRANCH   8  10
ENDBRANCH   7   8
ENDBRANCH   1   7
BRANCH   4  24
ATOM     24  C9  NON d   1     -45.186  16.928  -4.781  0.00  0.00     0.256 C 
ATOM     25  O1  NON d   1     -45.254  16.091  -5.679  0.00  0.00    -0.267 OA
ATOM     26  N3  NON d   1     -46.181  17.149  -3.840  0.00  0.00    -0.321 N 
ATOM     27  H9  NON d   1     -46.039  17.826  -3.100  0.00  0.00     0.169 HD
BRANCH  26  28
ATOM     28  C10 NON d   1     -47.409  16.432  -3.709  0.00  0.00     0.056 A 
ATOM     29  C11 NON d   1     -48.016  16.131  -2.484  0.00  0.00     0.031 A 
ATOM     30  C12 NON d   1     -49.249  15.468  -2.435  0.00  0.00     0.002 A 
ATOM     31  C13 NON d   1     -49.896  15.099  -3.610  0.00  0.00     0.002 A 
ATOM     32  C14 NON d   1     -49.302  15.379  -4.839  0.00  0.00     0.025 A 
ATOM     33  C15 NON d   1     -48.060  16.031  -4.899  0.00  0.00     0.033 A 
BRANCH  33  34
ATOM     34  N4  NON d   1     -47.440  16.235  -6.159  0.00  0.00    -0.301 NA
ATOM     35  H14 NON d   1     -47.044  17.173  -6.191  0.00  0.00     0.124 HD
ATOM     36  H15 NON d   1     -46.703  15.553  -6.328  0.00  0.00     0.124 HD
ENDBRANCH  33  34
ENDBRANCH  26  28
ENDBRANCH   4  24
TORSDOF 8
ENDMDL
MODEL 4
REMARK VINA RESULT:   -34.171      4.668      6.762
REMARK INTER + INTRA:         -37.463
REMARK INTER:                 -36.558
REMARK INTRA:                  -0.906
REMARK CONF_INDEPENDENT:        2.386
REMARK UNBOUND:                -0.906
REMARK  8 active torsions:
REMARK  status: ('A' for Active; 'I' for Inactive)
REMARK    1  A    between atoms: S1_2  and  C2_3 
REMARK    2  A    between atoms: C3_5  and  N2_6 
REMARK    3  A    between atoms: N2_6  and  C4_7 
REMARK    4  A    between atoms: C4_7  and  C5_8 
REMARK    5  A    between atoms: C8_11  and  C9_12 
REMARK       I    between atoms: C9_12  and  N3_14 
REMARK    6  A    between atoms: N3_14  and  C10_15 
REMARK    7  A    between atoms: C15_20  and  N4_21 
REMARK    8  A    between atoms: C19_25  and  C20_26 
ROOT
ATOM      1  C5  NON d   1     -41.603  19.376  -4.330  0.00  0.00    -0.045 A 
ATOM      2  C6  NON d   1     -41.882  18.262  -3.521  0.00  0.00     0.009 A 
ATOM      3  C7  NON d   1     -43.074  17.536  -3.661  0.00  0.00     0.017 A 
ATOM      4  C8  NON d   1     -44.045  17.887  -4.613  0.00  0.00     0.032 A 
ATOM      5  C16 NON d   1     -43.784  18.997  -5.422  0.00  0.00     0.017 A 
ATOM      6  C17 NON d   1     -42.574  19.727  -5.285  0.00  0.00     0.009 A 
ENDROOT
BRANCH   1   7
ATOM      7  C4  NON d   1     -40.249  20.071  -4.138  0.00  0.00     0.132 C 
BRANCH   7   8
ATOM      8  N2  NON d   1     -40.362  21.467  -3.722  0.00  0.00    -0.273 NA
ATOM      9  H4  NON d   1     -41.336  21.753  -3.684  0.00  0.00     0.129 HD
BRANCH   8  10
ATOM     10  C3  NON d   1     -39.744  21.816  -2.493  0.00  0.00     0.108 A 
ATOM     11  N1  NON d   1     -38.602  21.269  -2.065  0.00  0.00    -0.211 NA
ATOM     12  C2  NON d   1     -38.090  21.673  -0.869  0.00  0.00     0.190 A 
ATOM     13  N6  NON d   1     -38.640  22.598  -0.080  0.00  0.00    -0.222 NA
ATOM     14  C19 NON d   1     -39.787  23.168  -0.531  0.00  0.00     0.074 A 
ATOM     15  C18 NON d   1     -40.365  22.787  -1.737  0.00  0.00     0.076 A 
BRANCH  12  16
ATOM     16  S1  NON d   1     -36.593  20.840  -0.437  0.00  0.00    -0.095 SA
ATOM     17  C1  NON d   1     -36.576  20.089   0.907  0.00  0.00     0.099 C 
ENDBRANCH  12  16
BRANCH  14  18
ATOM     18  C20 NON d   1     -40.383  24.211   0.336  0.00  0.00     0.010 A 
ATOM     19  C21 NON d   1     -40.591  25.542  -0.071  0.00  0.00     0.017 A 
ATOM     20  C22 NON d   1     -41.161  26.481   0.790  0.00  0.00     0.020 A 
ATOM     21  C23 NON d   1     -41.517  26.073   2.058  0.00  0.00     0.116 A 
ATOM     22  N5  NON d   1     -41.343  24.817   2.508  0.00  0.00    -0.272 NA
ATOM     23  C24 NON d   1     -40.786  23.929   1.645  0.00  0.00     0.130 A 
ENDBRANCH  14  18
ENDBRANCH   8  10
ENDBRANCH   7   8
ENDBRANCH   1   7
BRANCH   4  24
ATOM     24  C9  NON d   1     -45.256  16.992  -4.708  0.00  0.00     0.256 C 
ATOM     25  O1  NON d   1     -45.245  16.130  -5.586  0.00  0.00    -0.267 OA
ATOM     26  N3  NON d   1     -46.303  17.188  -3.819  0.00  0.00    -0.321 N 
ATOM     27  H9  NON d   1     -46.227  17.889  -3.092  0.00  0.00     0.169 HD
BRANCH  26  28
ATOM     28  C10 NON d   1     -47.502  16.418  -3.725  0.00  0.00     0.056 A 
ATOM     29  C11 NON d   1     -48.136  16.097  -2.519  0.00  0.00     0.031 A 
ATOM     30  C12 NON d   1     -49.339  15.380  -2.506  0.00  0.00     0.002 A 
ATOM     31  C13 NON d   1     -49.928  14.975  -3.700  0.00  0.00     0.002 A 
ATOM     32  C14 NON d   1     -49.306  15.275  -4.910  0.00  0.00     0.025 A 
ATOM     33  C15 NON d   1     -48.093  15.981  -4.933  0.00  0.00     0.033 A 
BRANCH  33  34
ATOM     34  N4  NON d   1     -47.440  16.205  -6.173  0.00  0.00    -0.301 NA
ATOM     35  H14 NON d   1     -46.974  15.349  -6.467  0.00  0.00     0.124 HD
ATOM     36  H15 NON d   1     -48.097  16.495  -6.894  0.00  0.00     0.124 HD
ENDBRANCH  33  34
ENDBRANCH  26  28
ENDBRANCH   4  24
TORSDOF 8
ENDMDL
MODEL 5
REMARK VINA RESULT:   -33.982      3.914      5.003
REMARK INTER + INTRA:         -37.713
REMARK INTER:                 -36.368
REMARK INTRA:                  -1.345
REMARK CONF_INDEPENDENT:        2.386
REMARK UNBOUND:                -1.345
REMARK  8 active torsions:
REMARK  status: ('A' for Active; 'I' for Inactive)
REMARK    1  A    between atoms: S1_2  and  C2_3 
REMARK    2  A    between atoms: C3_5  and  N2_6 
REMARK    3  A    between atoms: N2_6  and  C4_7 
REMARK    4  A    between atoms: C4_7  and  C5_8 
REMARK    5  A    between atoms: C8_11  and  C9_12 
REMARK       I    between atoms: C9_12  and  N3_14 
REMARK    6  A    between atoms: N3_14  and  C10_15 
REMARK    7  A    between atoms: C15_20  and  N4_21 
REMARK    8  A    between atoms: C19_25  and  C20_26 
ROOT
ATOM      1  C5  NON d   1     -41.472  19.202  -4.520  0.00  0.00    -0.045 A 
ATOM      2  C6  NON d   1     -41.697  17.999  -3.831  0.00  0.00     0.009 A 
ATOM      3  C7  NON d   1     -42.922  17.321  -3.921  0.00  0.00     0.017 A 
ATOM      4  C8  NON d   1     -43.980  17.810  -4.703  0.00  0.00     0.032 A 
ATOM      5  C16 NON d   1     -43.774  19.011  -5.391  0.00  0.00     0.017 A 
ATOM      6  C17 NON d   1     -42.531  19.692  -5.304  0.00  0.00     0.009 A 
ENDROOT
BRANCH   1   7
ATOM      7  C4  NON d   1     -40.082  19.839  -4.400  0.00  0.00     0.132 C 
BRANCH   7   8
ATOM      8  N2  NON d   1     -39.765  20.303  -3.051  0.00  0.00    -0.273 NA
ATOM      9  H4  NON d   1     -38.765  20.248  -2.879  0.00  0.00     0.129 HD
BRANCH   8  10
ATOM     10  C3  NON d   1     -40.208  21.607  -2.707  0.00  0.00     0.108 A 
ATOM     11  N1  NON d   1     -40.570  21.954  -1.468  0.00  0.00    -0.211 NA
ATOM     12  C2  NON d   1     -40.981  23.233  -1.240  0.00  0.00     0.190 A 
ATOM     13  N6  NON d   1     -41.041  24.189  -2.168  0.00  0.00    -0.222 NA
ATOM     14  C19 NON d   1     -40.649  23.837  -3.419  0.00  0.00     0.074 A 
ATOM     15  C18 NON d   1     -40.232  22.544  -3.717  0.00  0.00     0.076 A 
BRANCH  12  16
ATOM     16  S1  NON d   1     -41.447  23.524   0.440  0.00  0.00    -0.095 SA
ATOM     17  C1  NON d   1     -40.547  22.912   1.530  0.00  0.00     0.099 C 
ENDBRANCH  12  16
BRANCH  14  18
ATOM     18  C20 NON d   1     -40.694  24.908  -4.443  0.00  0.00     0.010 A 
ATOM     19  C21 NON d   1     -41.402  26.113  -4.284  0.00  0.00     0.017 A 
ATOM     20  C22 NON d   1     -41.405  27.088  -5.283  0.00  0.00     0.020 A 
ATOM     21  C23 NON d   1     -40.693  26.841  -6.439  0.00  0.00     0.116 A 
ATOM     22  N5  NON d   1     -39.997  25.709  -6.652  0.00  0.00    -0.272 NA
ATOM     23  C24 NON d   1     -40.016  24.783  -5.660  0.00  0.00     0.130 A 
ENDBRANCH  14  18
ENDBRANCH   8  10
ENDBRANCH   7   8
ENDBRANCH   1   7
BRANCH   4  24
ATOM     24  C9  NON d   1     -45.225  16.959  -4.769  0.00  0.00     0.256 C 
ATOM     25  O1  NON d   1     -45.283  16.126  -5.672  0.00  0.00    -0.267 OA
ATOM     26  N3  NON d   1     -46.222  17.161  -3.826  0.00  0.00    -0.321 N 
ATOM     27  H9  NON d   1     -46.089  17.835  -3.083  0.00  0.00     0.169 HD
BRANCH  26  28
ATOM     28  C10 NON d   1     -47.442  16.427  -3.700  0.00  0.00     0.056 A 
ATOM     29  C11 NON d   1     -48.058  16.135  -2.478  0.00  0.00     0.031 A 
ATOM     30  C12 NON d   1     -49.282  15.454  -2.434  0.00  0.00     0.002 A 
ATOM     31  C13 NON d   1     -49.909  15.059  -3.611  0.00  0.00     0.002 A 
ATOM     32  C14 NON d   1     -49.305  15.331  -4.837  0.00  0.00     0.025 A 
ATOM     33  C15 NON d   1     -48.072  16.000  -4.892  0.00  0.00     0.033 A 
BRANCH  33  34
ATOM     34  N4  NON d   1     -47.440  16.196  -6.147  0.00  0.00    -0.301 NA
ATOM     35  H14 NON d   1     -46.916  17.069  -6.127  0.00  0.00     0.124 HD
ATOM     36  H15 NON d   1     -46.808  15.430  -6.371  0.00  0.00     0.124 HD
ENDBRANCH  33  34
ENDBRANCH  26  28
ENDBRANCH   4  24
TORSDOF 8
ENDMDL
MODEL 6
REMARK VINA RESULT:   -33.929      1.814      2.448
REMARK INTER + INTRA:         -37.755
REMARK INTER:                 -36.315
REMARK INTRA:                  -1.440
REMARK CONF_INDEPENDENT:        2.386
REMARK UNBOUND:                -1.440
REMARK  8 active torsions:
REMARK  status: ('A' for Active; 'I' for Inactive)
REMARK    1  A    between atoms: S1_2  and  C2_3 
REMARK    2  A    between atoms: C3_5  and  N2_6 
REMARK    3  A    between atoms: N2_6  and  C4_7 
REMARK    4  A    between atoms: C4_7  and  C5_8 
REMARK    5  A    between atoms: C8_11  and  C9_12 
REMARK       I    between atoms: C9_12  and  N3_14 
REMARK    6  A    between atoms: N3_14  and  C10_15 
REMARK    7  A    between atoms: C15_20  and  N4_21 
REMARK    8  A    between atoms: C19_25  and  C20_26 
ROOT
ATOM      1  C5  NON d   1     -41.315  19.079  -5.297  0.00  0.00    -0.045 A 
ATOM      2  C6  NON d   1     -41.399  17.691  -5.099  0.00  0.00     0.009 A 
ATOM      3  C7  NON d   1     -42.638  17.042  -4.984  0.00  0.00     0.017 A 
ATOM      4  C8  NON d   1     -43.850  17.746  -5.060  0.00  0.00     0.032 A 
ATOM      5  C16 NON d   1     -43.783  19.130  -5.251  0.00  0.00     0.017 A 
ATOM      6  C17 NON d   1     -42.529  19.785  -5.375  0.00  0.00     0.009 A 
ENDROOT
BRANCH   1   7
ATOM      7  C4  NON d   1     -39.917  19.689  -5.465  0.00  0.00     0.132 C 
BRANCH   7   8
ATOM      8  N2  NON d   1     -39.521  19.871  -6.859  0.00  0.00    -0.273 NA
ATOM      9  H4  NON d   1     -40.137  19.350  -7.478  0.00  0.00     0.129 HD
BRANCH   8  10
ATOM     10  C3  NON d   1     -39.442  21.208  -7.328  0.00  0.00     0.108 A 
ATOM     11  N1  NON d   1     -39.241  22.256  -6.523  0.00  0.00    -0.211 NA
ATOM     12  C2  NON d   1     -39.180  23.501  -7.072  0.00  0.00     0.190 A 
ATOM     13  N6  NON d   1     -39.295  23.764  -8.376  0.00  0.00    -0.222 NA
ATOM     14  C19 NON d   1     -39.475  22.693  -9.191  0.00  0.00     0.074 A 
ATOM     15  C18 NON d   1     -39.558  21.400  -8.688  0.00  0.00     0.076 A 
BRANCH  12  16
ATOM     16  S1  NON d   1     -38.933  24.777  -5.875  0.00  0.00    -0.095 SA
ATOM     17  C1  NON d   1     -40.167  25.226  -5.070  0.00  0.00     0.099 C 
ENDBRANCH  12  16
BRANCH  14  18
ATOM     18  C20 NON d   1     -39.578  22.986 -10.640  0.00  0.00     0.010 A 
ATOM     19  C21 NON d   1     -40.224  24.121 -11.165  0.00  0.00     0.017 A 
ATOM     20  C22 NON d   1     -40.287  24.346 -12.540  0.00  0.00     0.020 A 
ATOM     21  C23 NON d   1     -39.698  23.424 -13.381  0.00  0.00     0.116 A 
ATOM     22  N5  NON d   1     -39.068  22.319 -12.942  0.00  0.00    -0.272 NA
ATOM     23  C24 NON d   1     -39.025  22.131 -11.598  0.00  0.00     0.130 A 
ENDBRANCH  14  18
ENDBRANCH   8  10
ENDBRANCH   7   8
ENDBRANCH   1   7
BRANCH   4  24
ATOM     24  C9  NON d   1     -45.116  16.927  -4.983  0.00  0.00     0.256 C 
ATOM     25  O1  NON d   1     -45.235  16.009  -5.793  0.00  0.00    -0.267 OA
ATOM     26  N3  NON d   1     -46.063  17.250  -4.023  0.00  0.00    -0.321 N 
ATOM     27  H9  NON d   1     -45.880  17.992  -3.359  0.00  0.00     0.169 HD
BRANCH  26  28
ATOM     28  C10 NON d   1     -47.292  16.568  -3.769  0.00  0.00     0.056 A 
ATOM     29  C11 NON d   1     -47.843  16.393  -2.494  0.00  0.00     0.031 A 
ATOM     30  C12 NON d   1     -49.079  15.757  -2.326  0.00  0.00     0.002 A 
ATOM     31  C13 NON d   1     -49.785  15.288  -3.429  0.00  0.00     0.002 A 
ATOM     32  C14 NON d   1     -49.247  15.442  -4.705  0.00  0.00     0.025 A 
ATOM     33  C15 NON d   1     -48.002  16.066  -4.884  0.00  0.00     0.033 A 
BRANCH  33  34
ATOM     34  N4  NON d   1     -47.440  16.141  -6.185  0.00  0.00    -0.301 NA
ATOM     35  H14 NON d   1     -47.045  17.069  -6.328  0.00  0.00     0.124 HD
ATOM     36  H15 NON d   1     -46.712  15.442  -6.318  0.00  0.00     0.124 HD
ENDBRANCH  33  34
ENDBRANCH  26  28
ENDBRANCH   4  24
TORSDOF 8
ENDMDL
MODEL 7
REMARK VINA RESULT:   -33.796      2.486      3.379
REMARK INTER + INTRA:         -37.513
REMARK INTER:                 -36.183
REMARK INTRA:                  -1.330
REMARK CONF_INDEPENDENT:        2.386
REMARK UNBOUND:                -1.330
REMARK  8 active torsions:
REMARK  status: ('A' for Active; 'I' for Inactive)
REMARK    1  A    between atoms: S1_2  and  C2_3 
REMARK    2  A    between atoms: C3_5  and  N2_6 
REMARK    3  A    between atoms: N2_6  and  C4_7 
REMARK    4  A    between atoms: C4_7  and  C5_8 
REMARK    5  A    between atoms: C8_11  and  C9_12 
REMARK       I    between atoms: C9_12  and  N3_14 
REMARK    6  A    between atoms: N3_14  and  C10_15 
REMARK    7  A    between atoms: C15_20  and  N4_21 
REMARK    8  A    between atoms: C19_25  and  C20_26 
ROOT
ATOM      1  C5  NON d   1     -41.454  19.152  -4.596  0.00  0.00    -0.045 A 
ATOM      2  C6  NON d   1     -41.662  17.925  -3.946  0.00  0.00     0.009 A 
ATOM      3  C7  NON d   1     -42.891  17.253  -4.026  0.00  0.00     0.017 A 
ATOM      4  C8  NON d   1     -43.971  17.775  -4.755  0.00  0.00     0.032 A 
ATOM      5  C16 NON d   1     -43.782  19.000  -5.404  0.00  0.00     0.017 A 
ATOM      6  C17 NON d   1     -42.535  19.675  -5.329  0.00  0.00     0.009 A 
ENDROOT
BRANCH   1   7
ATOM      7  C4  NON d   1     -40.059  19.782  -4.494  0.00  0.00     0.132 C 
BRANCH   7   8
ATOM      8  N2  NON d   1     -40.039  21.046  -3.763  0.00  0.00    -0.273 NA
ATOM      9  H4  NON d   1     -39.214  21.106  -3.171  0.00  0.00     0.129 HD
BRANCH   8  10
ATOM     10  C3  NON d   1     -40.119  22.231  -4.540  0.00  0.00     0.108 A 
ATOM     11  N1  NON d   1     -40.335  23.440  -4.012  0.00  0.00    -0.211 NA
ATOM     12  C2  NON d   1     -40.395  24.517  -4.844  0.00  0.00     0.190 A 
ATOM     13  N6  NON d   1     -40.240  24.464  -6.169  0.00  0.00    -0.222 NA
ATOM     14  C19 NON d   1     -39.996  23.237  -6.697  0.00  0.00     0.074 A 
ATOM     15  C18 NON d   1     -39.937  22.099  -5.899  0.00  0.00     0.076 A 
BRANCH  12  16
ATOM     16  S1  NON d   1     -40.710  26.034  -3.996  0.00  0.00    -0.095 SA
ATOM     17  C1  NON d   1     -41.805  26.946  -4.581  0.00  0.00     0.099 C 
ENDBRANCH  12  16
BRANCH  14  18
ATOM     18  C20 NON d   1     -39.800  23.184  -8.165  0.00  0.00     0.010 A 
ATOM     19  C21 NON d   1     -39.141  22.133  -8.829  0.00  0.00     0.017 A 
ATOM     20  C22 NON d   1     -38.990  22.137 -10.216  0.00  0.00     0.020 A 
ATOM     21  C23 NON d   1     -39.504  23.201 -10.927  0.00  0.00     0.116 A 
ATOM     22  N5  NON d   1     -40.143  24.236 -10.351  0.00  0.00    -0.272 NA
ATOM     23  C24 NON d   1     -40.272  24.201  -9.000  0.00  0.00     0.130 A 
ENDBRANCH  14  18
ENDBRANCH   8  10
ENDBRANCH   7   8
ENDBRANCH   1   7
BRANCH   4  24
ATOM     24  C9  NON d   1     -45.220  16.929  -4.816  0.00  0.00     0.256 C 
ATOM     25  O1  NON d   1     -45.286  16.096  -5.718  0.00  0.00    -0.267 OA
ATOM     26  N3  NON d   1     -46.214  17.138  -3.870  0.00  0.00    -0.321 N 
ATOM     27  H9  NON d   1     -46.075  17.812  -3.128  0.00  0.00     0.169 HD
BRANCH  26  28
ATOM     28  C10 NON d   1     -47.436  16.411  -3.739  0.00  0.00     0.056 A 
ATOM     29  C11 NON d   1     -48.052  16.126  -2.515  0.00  0.00     0.031 A 
ATOM     30  C12 NON d   1     -49.279  15.452  -2.465  0.00  0.00     0.002 A 
ATOM     31  C13 NON d   1     -49.910  15.055  -3.640  0.00  0.00     0.002 A 
ATOM     32  C14 NON d   1     -49.307  15.318  -4.868  0.00  0.00     0.025 A 
ATOM     33  C15 NON d   1     -48.070  15.982  -4.928  0.00  0.00     0.033 A 
BRANCH  33  34
ATOM     34  N4  NON d   1     -47.440  16.169  -6.185  0.00  0.00    -0.301 NA
ATOM     35  H14 NON d   1     -47.097  17.126  -6.250  0.00  0.00     0.124 HD
ATOM     36  H15 NON d   1     -46.663  15.524  -6.313  0.00  0.00     0.124 HD
ENDBRANCH  33  34
ENDBRANCH  26  28
ENDBRANCH   4  24
TORSDOF 8
ENDMDL
MODEL 8
REMARK VINA RESULT:   -33.593      2.983      4.315
REMARK INTER + INTRA:         -37.315
REMARK INTER:                 -35.979
REMARK INTRA:                  -1.335
REMARK CONF_INDEPENDENT:        2.386
REMARK UNBOUND:                -1.335
REMARK  8 active torsions:
REMARK  status: ('A' for Active; 'I' for Inactive)
REMARK    1  A    between atoms: S1_2  and  C2_3 
REMARK    2  A    between atoms: C3_5  and  N2_6 
REMARK    3  A    between atoms: N2_6  and  C4_7 
REMARK    4  A    between atoms: C4_7  and  C5_8 
REMARK    5  A    between atoms: C8_11  and  C9_12 
REMARK       I    between atoms: C9_12  and  N3_14 
REMARK    6  A    between atoms: N3_14  and  C10_15 
REMARK    7  A    between atoms: C15_20  and  N4_21 
REMARK    8  A    between atoms: C19_25  and  C20_26 
ROOT
ATOM      1  C5  NON d   1     -41.417  19.098  -4.606  0.00  0.00    -0.045 A 
ATOM      2  C6  NON d   1     -41.647  17.890  -3.928  0.00  0.00     0.009 A 
ATOM      3  C7  NON d   1     -42.883  17.232  -4.003  0.00  0.00     0.017 A 
ATOM      4  C8  NON d   1     -43.949  17.747  -4.757  0.00  0.00     0.032 A 
ATOM      5  C16 NON d   1     -43.738  18.953  -5.435  0.00  0.00     0.017 A 
ATOM      6  C17 NON d   1     -42.484  19.615  -5.364  0.00  0.00     0.009 A 
ENDROOT
BRANCH   1   7
ATOM      7  C4  NON d   1     -40.015  19.713  -4.506  0.00  0.00     0.132 C 
BRANCH   7   8
ATOM      8  N2  NON d   1     -39.458  20.113  -5.795  0.00  0.00    -0.273 NA
ATOM      9  H4  NON d   1     -39.856  19.556  -6.547  0.00  0.00     0.129 HD
BRANCH   8  10
ATOM     10  C3  NON d   1     -39.577  21.484  -6.142  0.00  0.00     0.108 A 
ATOM     11  N1  NON d   1     -39.376  21.947  -7.380  0.00  0.00    -0.211 NA
ATOM     12  C2  NON d   1     -39.516  23.282  -7.611  0.00  0.00     0.190 A 
ATOM     13  N6  NON d   1     -39.857  24.182  -6.686  0.00  0.00    -0.222 NA
ATOM     14  C19 NON d   1     -40.084  23.703  -5.437  0.00  0.00     0.074 A 
ATOM     15  C18 NON d   1     -39.944  22.352  -5.137  0.00  0.00     0.076 A 
BRANCH  12  16
ATOM     16  S1  NON d   1     -39.193  23.735  -9.288  0.00  0.00    -0.095 SA
ATOM     17  C1  NON d   1     -40.328  24.445 -10.050  0.00  0.00     0.099 C 
ENDBRANCH  12  16
BRANCH  14  18
ATOM     18  C20 NON d   1     -40.485  24.701  -4.417  0.00  0.00     0.010 A 
ATOM     19  C21 NON d   1     -40.394  24.483  -3.030  0.00  0.00     0.017 A 
ATOM     20  C22 NON d   1     -40.784  25.463  -2.117  0.00  0.00     0.020 A 
ATOM     21  C23 NON d   1     -41.265  26.659  -2.607  0.00  0.00     0.116 A 
ATOM     22  N5  NON d   1     -41.377  26.928  -3.921  0.00  0.00    -0.272 NA
ATOM     23  C24 NON d   1     -40.989  25.953  -4.781  0.00  0.00     0.130 A 
ENDBRANCH  14  18
ENDBRANCH   8  10
ENDBRANCH   7   8
ENDBRANCH   1   7
BRANCH   4  24
ATOM     24  C9  NON d   1     -45.208  16.916  -4.810  0.00  0.00     0.256 C 
ATOM     25  O1  NON d   1     -45.286  16.079  -5.708  0.00  0.00    -0.267 OA
ATOM     26  N3  NON d   1     -46.195  17.139  -3.861  0.00  0.00    -0.321 N 
ATOM     27  H9  NON d   1     -46.046  17.815  -3.123  0.00  0.00     0.169 HD
BRANCH  26  28
ATOM     28  C10 NON d   1     -47.425  16.426  -3.722  0.00  0.00     0.056 A 
ATOM     29  C11 NON d   1     -48.040  16.154  -2.494  0.00  0.00     0.031 A 
ATOM     30  C12 NON d   1     -49.274  15.494  -2.438  0.00  0.00     0.002 A 
ATOM     31  C13 NON d   1     -49.913  15.098  -3.608  0.00  0.00     0.002 A 
ATOM     32  C14 NON d   1     -49.311  15.349  -4.839  0.00  0.00     0.025 A 
ATOM     33  C15 NON d   1     -48.068  15.998  -4.906  0.00  0.00     0.033 A 
BRANCH  33  34
ATOM     34  N4  NON d   1     -47.440  16.172  -6.167  0.00  0.00    -0.301 NA
ATOM     35  H14 NON d   1     -47.046  17.110  -6.220  0.00  0.00     0.124 HD
ATOM     36  H15 NON d   1     -46.700  15.488  -6.313  0.00  0.00     0.124 HD
ENDBRANCH  33  34
ENDBRANCH  26  28
ENDBRANCH   4  24
TORSDOF 8
ENDMDL
MODEL 9
REMARK VINA RESULT:   -31.986      5.434      9.663
REMARK INTER + INTRA:         -36.090
REMARK INTER:                 -34.372
REMARK INTRA:                  -1.718
REMARK CONF_INDEPENDENT:        2.386
REMARK UNBOUND:                -1.718
REMARK  8 active torsions:
REMARK  status: ('A' for Active; 'I' for Inactive)
REMARK    1  A    between atoms: S1_2  and  C2_3 
REMARK    2  A    between atoms: C3_5  and  N2_6 
REMARK    3  A    between atoms: N2_6  and  C4_7 
REMARK    4  A    between atoms: C4_7  and  C5_8 
REMARK    5  A    between atoms: C8_11  and  C9_12 
REMARK       I    between atoms: C9_12  and  N3_14 
REMARK    6  A    between atoms: N3_14  and  C10_15 
REMARK    7  A    between atoms: C15_20  and  N4_21 
REMARK    8  A    between atoms: C19_25  and  C20_26 
ROOT
ATOM      1  C5  NON d   1     -40.482  21.758  -5.070  0.00  0.00    -0.045 A 
ATOM      2  C6  NON d   1     -40.640  21.365  -3.732  0.00  0.00     0.009 A 
ATOM      3  C7  NON d   1     -40.678  22.305  -2.691  0.00  0.00     0.017 A 
ATOM      4  C8  NON d   1     -40.559  23.682  -2.937  0.00  0.00     0.032 A 
ATOM      5  C16 NON d   1     -40.395  24.090  -4.265  0.00  0.00     0.017 A 
ATOM      6  C17 NON d   1     -40.364  23.138  -5.318  0.00  0.00     0.009 A 
ENDROOT
BRANCH   1   7
ATOM      7  C4  NON d   1     -40.507  20.660  -6.141  0.00  0.00     0.132 C 
BRANCH   7   8
ATOM      8  N2  NON d   1     -41.823  20.054  -6.328  0.00  0.00    -0.273 NA
ATOM      9  H4  NON d   1     -41.893  19.626  -7.247  0.00  0.00     0.129 HD
BRANCH   8  10
ATOM     10  C3  NON d   1     -42.227  19.101  -5.358  0.00  0.00     0.108 A 
ATOM     11  N1  NON d   1     -41.422  18.653  -4.390  0.00  0.00    -0.211 NA
ATOM     12  C2  NON d   1     -41.906  17.737  -3.506  0.00  0.00     0.190 A 
ATOM     13  N6  NON d   1     -43.149  17.249  -3.520  0.00  0.00    -0.222 NA
ATOM     14  C19 NON d   1     -43.970  17.726  -4.490  0.00  0.00     0.074 A 
ATOM     15  C18 NON d   1     -43.529  18.652  -5.429  0.00  0.00     0.076 A 
BRANCH  12  16
ATOM     16  S1  NON d   1     -40.713  17.229  -2.306  0.00  0.00    -0.095 SA
ATOM     17  C1  NON d   1     -39.302  17.835  -2.426  0.00  0.00     0.099 C 
ENDBRANCH  12  16
BRANCH  14  18
ATOM     18  C20 NON d   1     -45.356  17.201  -4.489  0.00  0.00     0.010 A 
ATOM     19  C21 NON d   1     -46.074  16.891  -3.319  0.00  0.00     0.017 A 
ATOM     20  C22 NON d   1     -47.380  16.402  -3.380  0.00  0.00     0.020 A 
ATOM     21  C23 NON d   1     -47.955  16.228  -4.622  0.00  0.00     0.116 A 
ATOM     22  N5  NON d   1     -47.321  16.505  -5.776  0.00  0.00    -0.272 NA
ATOM     23  C24 NON d   1     -46.052  16.979  -5.680  0.00  0.00     0.130 A 
ENDBRANCH  14  18
ENDBRANCH   8  10
ENDBRANCH   7   8
ENDBRANCH   1   7
BRANCH   4  24
ATOM     24  C9  NON d   1     -40.677  24.597  -1.742  0.00  0.00     0.256 C 
ATOM     25  O1  NON d   1     -40.771  25.802  -1.970  0.00  0.00    -0.267 OA
ATOM     26  N3  NON d   1     -40.669  24.040  -0.471  0.00  0.00    -0.321 N 
ATOM     27  H9  NON d   1     -40.633  23.034  -0.358  0.00  0.00     0.169 HD
BRANCH  26  28
ATOM     28  C10 NON d   1     -40.816  24.734   0.768  0.00  0.00     0.056 A 
ATOM     29  C11 NON d   1     -40.948  26.123   0.879  0.00  0.00     0.031 A 
ATOM     30  C12 NON d   1     -41.141  26.731   2.126  0.00  0.00     0.002 A 
ATOM     31  C13 NON d   1     -41.206  25.959   3.281  0.00  0.00     0.002 A 
ATOM     32  C14 NON d   1     -41.065  24.576   3.193  0.00  0.00     0.025 A 
ATOM     33  C15 NON d   1     -40.858  23.958   1.949  0.00  0.00     0.033 A 
BRANCH  33  34
ATOM     34  N4  NON d   1     -40.639  22.557   1.895  0.00  0.00    -0.301 NA
ATOM     35  H14 NON d   1     -39.666  22.360   2.122  0.00  0.00     0.124 HD
ATOM     36  H15 NON d   1     -41.243  22.059   2.546  0.00  0.00     0.124 HD
ENDBRANCH  33  34
ENDBRANCH  26  28
ENDBRANCH   4  24
TORSDOF 8
ENDMDL
