MODEL 1
REMARK VINA RESULT:   -15.718      0.000      0.000
REMARK INTER + INTRA:         -22.228
REMARK INTER:                 -19.596
REMARK INTRA:                  -2.633
REMARK CONF_INDEPENDENT:        3.878
REMARK UNBOUND:                -2.633
REMARK  13 active torsions:
REMARK  status: ('A' for Active; 'I' for Inactive)
REMARK    1  A    between atoms: O1_2  and  C2_3 
REMARK    2  A    between atoms: C8_10  and  C9_11 
REMARK    3  A    between atoms: C9_11  and  N2_12 
REMARK    4  A    between atoms: C10_13  and  N2_12 
REMARK    5  A    between atoms: C10_13  and  C11_14 
REMARK    6  A    between atoms: C10_13  and  C18_22 
REMARK    7  A    between atoms: C11_14  and  C12_15 
REMARK    8  A    between atoms: C12_15  and  C13_16 
REMARK    9  A    between atoms: C13_16  and  C14_17 
REMARK   10  A    between atoms: C14_17  and  C15_18 
REMARK   11  A    between atoms: C15_18  and  C16_19 
REMARK       I    between atoms: C18_22  and  N3_24 
REMARK   12  A    between atoms: N3_24  and  C19_25 
REMARK   13  A    between atoms: C23_29  and  C24_30 
ROOT
ATOM      1  C10 NON d   1     -40.563  19.259  -2.447  0.00  0.00     0.277 C 
ENDROOT
BRANCH   1   2
ATOM      2  N2  NON d   1     -39.610  20.116  -1.568  0.00  0.00    -0.058 N 
ATOM      3  H12 NON d   1     -39.106  19.433  -0.964  0.00  0.00     0.278 HD
ATOM      4  H13 NON d   1     -38.878  20.545  -2.142  0.00  0.00     0.278 HD
BRANCH   2   5
ATOM      5  C9  NON d   1     -40.208  21.133  -0.648  0.00  0.00     0.274 C 
BRANCH   5   6
ATOM      6  C8  NON d   1     -40.306  22.576  -1.059  0.00  0.00     0.002 A 
ATOM      7  C6  NON d   1     -40.287  23.187  -2.308  0.00  0.00     0.014 A 
ATOM      8  N1  NON d   1     -40.523  24.538  -2.121  0.00  0.00    -0.359 N 
ATOM      9  C7  NON d   1     -40.099  22.687  -3.694  0.00  0.00     0.068 C 
ATOM     10  C5  NON d   1     -40.792  24.813  -0.804  0.00  0.00     0.043 A 
ATOM     11  H6  NON d   1     -40.567  25.232  -2.856  0.00  0.00     0.166 HD
ATOM     12  C4  NON d   1     -41.200  26.010  -0.202  0.00  0.00     0.033 A 
ATOM     13  C31 NON d   1     -40.603  23.630  -0.101  0.00  0.00     0.003 A 
ATOM     14  C3  NON d   1     -41.438  25.999   1.182  0.00  0.00     0.039 A 
ATOM     15  C2  NON d   1     -41.233  24.846   1.934  0.00  0.00     0.069 A 
ATOM     16  C32 NON d   1     -40.790  23.668   1.300  0.00  0.00     0.051 A 
BRANCH  15  17
ATOM     17  O1  NON d   1     -41.427  24.724   3.286  0.00  0.00    -0.356 OA
ATOM     18  C1  NON d   1     -41.117  25.866   4.086  0.00  0.00     0.210 C 
ENDBRANCH  15  17
ENDBRANCH   5   6
ENDBRANCH   2   5
ENDBRANCH   1   2
BRANCH   1  19
ATOM     19  C11 NON d   1     -41.852  18.356  -2.404  0.00  0.00     0.043 C 
BRANCH  19  20
ATOM     20  C12 NON d   1     -41.950  17.265  -3.508  0.00  0.00     0.002 C 
BRANCH  20  21
ATOM     21  C13 NON d   1     -43.109  17.457  -4.509  0.00  0.00     0.000 C 
BRANCH  21  22
ATOM     22  C14 NON d   1     -44.462  16.888  -4.042  0.00  0.00     0.007 C 
BRANCH  22  23
ATOM     23  C15 NON d   1     -45.580  17.178  -5.058  0.00  0.00     0.077 C 
BRANCH  23  24
ATOM     24  C16 NON d   1     -46.698  16.161  -5.203  0.00  0.00     0.123 C 
ATOM     25  C17 NON d   1     -47.817  16.132  -4.203  0.00  0.00     0.091 C 
ATOM     26  O2  NON d   1     -46.688  15.380  -6.156  0.00  0.00    -0.298 OA
ENDBRANCH  23  24
ENDBRANCH  22  23
ENDBRANCH  21  22
ENDBRANCH  20  21
ENDBRANCH  19  20
ENDBRANCH   1  19
BRANCH   1  27
ATOM     27  C18 NON d   1     -40.017  19.385  -3.881  0.00  0.00     0.253 C 
ATOM     28  O3  NON d   1     -38.774  19.291  -3.909  0.00  0.00    -0.271 OA
ATOM     29  N3  NON d   1     -40.769  19.582  -5.016  0.00  0.00    -0.325 N 
ATOM     30  H28 NON d   1     -41.775  19.666  -4.972  0.00  0.00     0.169 HD
BRANCH  29  31
ATOM     31  C19 NON d   1     -40.262  19.731  -6.349  0.00  0.00     0.035 A 
ATOM     32  C20 NON d   1     -39.723  18.682  -7.092  0.00  0.00     0.029 A 
ATOM     33  C21 NON d   1     -39.246  18.897  -8.378  0.00  0.00     0.003 A 
ATOM     34  C22 NON d   1     -39.299  20.170  -8.942  0.00  0.00     0.012 A 
ATOM     35  C23 NON d   1     -39.835  21.278  -8.260  0.00  0.00    -0.024 A 
ATOM     36  C30 NON d   1     -40.314  21.013  -6.949  0.00  0.00     0.042 A 
BRANCH  35  37
ATOM     37  C24 NON d   1     -39.873  22.640  -8.903  0.00  0.00    -0.026 A 
ATOM     38  C25 NON d   1     -40.212  23.805  -8.177  0.00  0.00     0.012 A 
ATOM     39  C26 NON d   1     -40.250  25.080  -8.759  0.00  0.00     0.001 A 
ATOM     40  C27 NON d   1     -39.943  25.239 -10.100  0.00  0.00     0.000 A 
ATOM     41  C28 NON d   1     -39.600  24.123 -10.851  0.00  0.00     0.001 A 
ATOM     42  C29 NON d   1     -39.565  22.848 -10.262  0.00  0.00     0.012 A 
ENDBRANCH  35  37
ENDBRANCH  29  31
ENDBRANCH   1  27
TORSDOF 13
ENDMDL
MODEL 2
REMARK VINA RESULT:   -15.573      2.332      7.655
REMARK INTER + INTRA:         -22.061
REMARK INTER:                 -19.451
REMARK INTRA:                  -2.610
REMARK CONF_INDEPENDENT:        3.878
REMARK UNBOUND:                -2.610
REMARK  13 active torsions:
REMARK  status: ('A' for Active; 'I' for Inactive)
REMARK    1  A    between atoms: O1_2  and  C2_3 
REMARK    2  A    between atoms: C8_10  and  C9_11 
REMARK    3  A    between atoms: C9_11  and  N2_12 
REMARK    4  A    between atoms: C10_13  and  N2_12 
REMARK    5  A    between atoms: C10_13  and  C11_14 
REMARK    6  A    between atoms: C10_13  and  C18_22 
REMARK    7  A    between atoms: C11_14  and  C12_15 
REMARK    8  A    between atoms: C12_15  and  C13_16 
REMARK    9  A    between atoms: C13_16  and  C14_17 
REMARK   10  A    between atoms: C14_17  and  C15_18 
REMARK   11  A    between atoms: C15_18  and  C16_19 
REMARK       I    between atoms: C18_22  and  N3_24 
REMARK   12  A    between atoms: N3_24  and  C19_25 
REMARK   13  A    between atoms: C23_29  and  C24_30 
ROOT
ATOM      1  C10 NON d   1     -40.212  18.279  -2.472  0.00  0.00     0.277 C 
ENDROOT
BRANCH   1   2
ATOM      2  N2  NON d   1     -38.699  18.105  -2.159  0.00  0.00    -0.058 N 
ATOM      3  H12 NON d   1     -38.528  18.678  -1.306  0.00  0.00     0.278 HD
ATOM      4  H13 NON d   1     -38.499  17.143  -1.871  0.00  0.00     0.278 HD
BRANCH   2   5
ATOM      5  C9  NON d   1     -37.702  18.557  -3.178  0.00  0.00     0.274 C 
BRANCH   5   6
ATOM      6  C8  NON d   1     -37.768  19.945  -3.754  0.00  0.00     0.002 A 
ATOM      7  C6  NON d   1     -37.157  21.135  -3.375  0.00  0.00     0.014 A 
ATOM      8  N1  NON d   1     -37.477  22.094  -4.320  0.00  0.00    -0.359 N 
ATOM      9  C7  NON d   1     -36.276  21.523  -2.243  0.00  0.00     0.068 C 
ATOM     10  C5  NON d   1     -38.193  21.547  -5.354  0.00  0.00     0.043 A 
ATOM     11  H6  NON d   1     -37.169  23.058  -4.304  0.00  0.00     0.166 HD
ATOM     12  C4  NON d   1     -38.609  22.122  -6.561  0.00  0.00     0.033 A 
ATOM     13  C31 NON d   1     -38.450  20.226  -5.007  0.00  0.00     0.003 A 
ATOM     14  C3  NON d   1     -39.313  21.309  -7.465  0.00  0.00     0.039 A 
ATOM     15  C2  NON d   1     -39.622  19.989  -7.151  0.00  0.00     0.069 A 
ATOM     16  C32 NON d   1     -39.215  19.453  -5.911  0.00  0.00     0.051 A 
BRANCH  15  17
ATOM     17  O1  NON d   1     -40.305  19.111  -7.951  0.00  0.00    -0.356 OA
ATOM     18  C1  NON d   1     -39.565  18.006  -8.471  0.00  0.00     0.210 C 
ENDBRANCH  15  17
ENDBRANCH   5   6
ENDBRANCH   2   5
ENDBRANCH   1   2
BRANCH   1  19
ATOM     19  C11 NON d   1     -41.532  17.489  -2.803  0.00  0.00     0.043 C 
BRANCH  19  20
ATOM     20  C12 NON d   1     -42.144  17.754  -4.208  0.00  0.00     0.002 C 
BRANCH  20  21
ATOM     21  C13 NON d   1     -43.376  16.889  -4.552  0.00  0.00     0.000 C 
BRANCH  21  22
ATOM     22  C14 NON d   1     -44.732  17.576  -4.301  0.00  0.00     0.007 C 
BRANCH  22  23
ATOM     23  C15 NON d   1     -45.728  17.296  -5.439  0.00  0.00     0.077 C 
BRANCH  23  24
ATOM     24  C16 NON d   1     -46.663  16.108  -5.298  0.00  0.00     0.123 C 
ATOM     25  C17 NON d   1     -47.554  15.997  -4.095  0.00  0.00     0.091 C 
ATOM     26  O2  NON d   1     -46.698  15.254  -6.186  0.00  0.00    -0.298 OA
ENDBRANCH  23  24
ENDBRANCH  22  23
ENDBRANCH  21  22
ENDBRANCH  20  21
ENDBRANCH  19  20
ENDBRANCH   1  19
BRANCH   1  27
ATOM     27  C18 NON d   1     -40.470  19.795  -2.403  0.00  0.00     0.253 C 
ATOM     28  O3  NON d   1     -41.063  20.207  -3.419  0.00  0.00    -0.271 OA
ATOM     29  N3  NON d   1     -40.106  20.628  -1.371  0.00  0.00    -0.325 N 
ATOM     30  H28 NON d   1     -39.617  20.279  -0.560  0.00  0.00     0.169 HD
BRANCH  29  31
ATOM     31  C19 NON d   1     -40.317  22.046  -1.317  0.00  0.00     0.035 A 
ATOM     32  C20 NON d   1     -40.276  22.876  -2.436  0.00  0.00     0.029 A 
ATOM     33  C21 NON d   1     -40.485  24.243  -2.311  0.00  0.00     0.003 A 
ATOM     34  C22 NON d   1     -40.739  24.803  -1.060  0.00  0.00     0.012 A 
ATOM     35  C23 NON d   1     -40.804  24.032   0.114  0.00  0.00    -0.024 A 
ATOM     36  C30 NON d   1     -40.586  22.638  -0.059  0.00  0.00     0.042 A 
BRANCH  35  37
ATOM     37  C24 NON d   1     -41.077  24.674   1.449  0.00  0.00    -0.026 A 
ATOM     38  C25 NON d   1     -41.376  26.050   1.576  0.00  0.00     0.012 A 
ATOM     39  C26 NON d   1     -41.635  26.662   2.810  0.00  0.00     0.001 A 
ATOM     40  C27 NON d   1     -41.610  25.913   3.974  0.00  0.00     0.000 A 
ATOM     41  C28 NON d   1     -41.326  24.556   3.898  0.00  0.00     0.001 A 
ATOM     42  C29 NON d   1     -41.065  23.949   2.658  0.00  0.00     0.012 A 
ENDBRANCH  35  37
ENDBRANCH  29  31
ENDBRANCH   1  27
TORSDOF 13
ENDMDL
MODEL 3
REMARK VINA RESULT:   -14.823      2.329      3.393
REMARK INTER + INTRA:         -21.942
REMARK INTER:                 -18.701
REMARK INTRA:                  -3.241
REMARK CONF_INDEPENDENT:        3.878
REMARK UNBOUND:                -3.241
REMARK  13 active torsions:
REMARK  status: ('A' for Active; 'I' for Inactive)
REMARK    1  A    between atoms: O1_2  and  C2_3 
REMARK    2  A    between atoms: C8_10  and  C9_11 
REMARK    3  A    between atoms: C9_11  and  N2_12 
REMARK    4  A    between atoms: C10_13  and  N2_12 
REMARK    5  A    between atoms: C10_13  and  C11_14 
REMARK    6  A    between atoms: C10_13  and  C18_22 
REMARK    7  A    between atoms: C11_14  and  C12_15 
REMARK    8  A    between atoms: C12_15  and  C13_16 
REMARK    9  A    between atoms: C13_16  and  C14_17 
REMARK   10  A    between atoms: C14_17  and  C15_18 
REMARK   11  A    between atoms: C15_18  and  C16_19 
REMARK       I    between atoms: C18_22  and  N3_24 
REMARK   12  A    between atoms: N3_24  and  C19_25 
REMARK   13  A    between atoms: C23_29  and  C24_30 
ROOT
ATOM      1  C10 NON d   1     -40.573  18.755  -3.220  0.00  0.00     0.277 C 
ENDROOT
BRANCH   1   2
ATOM      2  N2  NON d   1     -39.551  18.925  -2.060  0.00  0.00    -0.058 N 
ATOM      3  H12 NON d   1     -40.085  18.712  -1.191  0.00  0.00     0.278 HD
ATOM      4  H13 NON d   1     -38.829  18.200  -2.106  0.00  0.00     0.278 HD
BRANCH   2   5
ATOM      5  C9  NON d   1     -38.923  20.267  -1.853  0.00  0.00     0.274 C 
BRANCH   5   6
ATOM      6  C8  NON d   1     -39.774  21.496  -1.688  0.00  0.00     0.002 A 
ATOM      7  C6  NON d   1     -40.309  22.108  -0.560  0.00  0.00     0.014 A 
ATOM      8  N1  NON d   1     -40.925  23.279  -0.966  0.00  0.00    -0.359 N 
ATOM      9  C7  NON d   1     -40.316  21.770   0.886  0.00  0.00     0.068 C 
ATOM     10  C5  NON d   1     -40.726  23.501  -2.306  0.00  0.00     0.043 A 
ATOM     11  H6  NON d   1     -41.400  23.933  -0.358  0.00  0.00     0.166 HD
ATOM     12  C4  NON d   1     -41.063  24.609  -3.092  0.00  0.00     0.033 A 
ATOM     13  C31 NON d   1     -40.070  22.382  -2.803  0.00  0.00     0.003 A 
ATOM     14  C3  NON d   1     -40.707  24.581  -4.450  0.00  0.00     0.039 A 
ATOM     15  C2  NON d   1     -40.076  23.470  -5.002  0.00  0.00     0.069 A 
ATOM     16  C32 NON d   1     -39.781  22.359  -4.187  0.00  0.00     0.051 A 
BRANCH  15  17
ATOM     17  O1  NON d   1     -39.690  23.334  -6.310  0.00  0.00    -0.356 OA
ATOM     18  C1  NON d   1     -38.293  23.454  -6.584  0.00  0.00     0.210 C 
ENDBRANCH  15  17
ENDBRANCH   5   6
ENDBRANCH   2   5
ENDBRANCH   1   2
BRANCH   1  19
ATOM     19  C11 NON d   1     -42.095  18.511  -3.537  0.00  0.00     0.043 C 
BRANCH  19  20
ATOM     20  C12 NON d   1     -42.398  17.393  -4.575  0.00  0.00     0.002 C 
BRANCH  20  21
ATOM     21  C13 NON d   1     -43.711  16.619  -4.330  0.00  0.00     0.000 C 
BRANCH  21  22
ATOM     22  C14 NON d   1     -44.971  17.294  -4.903  0.00  0.00     0.007 C 
BRANCH  22  23
ATOM     23  C15 NON d   1     -46.254  16.732  -4.267  0.00  0.00     0.077 C 
BRANCH  23  24
ATOM     24  C16 NON d   1     -47.110  15.788  -5.092  0.00  0.00     0.123 C 
ATOM     25  C17 NON d   1     -48.466  15.379  -4.594  0.00  0.00     0.091 C 
ATOM     26  O2  NON d   1     -46.690  15.380  -6.177  0.00  0.00    -0.298 OA
ENDBRANCH  23  24
ENDBRANCH  22  23
ENDBRANCH  21  22
ENDBRANCH  20  21
ENDBRANCH  19  20
ENDBRANCH   1  19
BRANCH   1  27
ATOM     27  C18 NON d   1     -39.750  18.906  -4.512  0.00  0.00     0.253 C 
ATOM     28  O3  NON d   1     -38.584  18.490  -4.366  0.00  0.00    -0.271 OA
ATOM     29  N3  NON d   1     -40.203  19.434  -5.698  0.00  0.00    -0.325 N 
ATOM     30  H28 NON d   1     -41.148  19.777  -5.795  0.00  0.00     0.169 HD
BRANCH  29  31
ATOM     31  C19 NON d   1     -39.431  19.606  -6.896  0.00  0.00     0.035 A 
ATOM     32  C20 NON d   1     -38.371  18.776  -7.256  0.00  0.00     0.029 A 
ATOM     33  C21 NON d   1     -37.662  19.002  -8.429  0.00  0.00     0.003 A 
ATOM     34  C22 NON d   1     -38.004  20.066  -9.261  0.00  0.00     0.012 A 
ATOM     35  C23 NON d   1     -39.065  20.943  -8.971  0.00  0.00    -0.024 A 
ATOM     36  C30 NON d   1     -39.765  20.674  -7.763  0.00  0.00     0.042 A 
BRANCH  35  37
ATOM     37  C24 NON d   1     -39.403  22.084  -9.894  0.00  0.00    -0.026 A 
ATOM     38  C25 NON d   1     -39.949  23.299  -9.420  0.00  0.00     0.012 A 
ATOM     39  C26 NON d   1     -40.268  24.371 -10.266  0.00  0.00     0.001 A 
ATOM     40  C27 NON d   1     -40.045  24.269 -11.629  0.00  0.00     0.000 A 
ATOM     41  C28 NON d   1     -39.505  23.095 -12.139  0.00  0.00     0.001 A 
ATOM     42  C29 NON d   1     -39.190  22.024 -11.286  0.00  0.00     0.012 A 
ENDBRANCH  35  37
ENDBRANCH  29  31
ENDBRANCH   1  27
TORSDOF 13
ENDMDL
MODEL 4
REMARK VINA RESULT:   -14.739      1.552      2.301
REMARK INTER + INTRA:         -21.426
REMARK INTER:                 -18.617
REMARK INTRA:                  -2.808
REMARK CONF_INDEPENDENT:        3.878
REMARK UNBOUND:                -2.808
REMARK  13 active torsions:
REMARK  status: ('A' for Active; 'I' for Inactive)
REMARK    1  A    between atoms: O1_2  and  C2_3 
REMARK    2  A    between atoms: C8_10  and  C9_11 
REMARK    3  A    between atoms: C9_11  and  N2_12 
REMARK    4  A    between atoms: C10_13  and  N2_12 
REMARK    5  A    between atoms: C10_13  and  C11_14 
REMARK    6  A    between atoms: C10_13  and  C18_22 
REMARK    7  A    between atoms: C11_14  and  C12_15 
REMARK    8  A    between atoms: C12_15  and  C13_16 
REMARK    9  A    between atoms: C13_16  and  C14_17 
REMARK   10  A    between atoms: C14_17  and  C15_18 
REMARK   11  A    between atoms: C15_18  and  C16_19 
REMARK       I    between atoms: C18_22  and  N3_24 
REMARK   12  A    between atoms: N3_24  and  C19_25 
REMARK   13  A    between atoms: C23_29  and  C24_30 
ROOT
ATOM      1  C10 NON d   1     -40.489  18.558  -2.882  0.00  0.00     0.277 C 
ENDROOT
BRANCH   1   2
ATOM      2  N2  NON d   1     -39.200  18.843  -2.060  0.00  0.00    -0.058 N 
ATOM      3  H12 NON d   1     -39.520  19.377  -1.225  0.00  0.00     0.278 HD
ATOM      4  H13 NON d   1     -38.816  17.972  -1.679  0.00  0.00     0.278 HD
BRANCH   2   5
ATOM      5  C9  NON d   1     -38.114  19.654  -2.691  0.00  0.00     0.274 C 
BRANCH   5   6
ATOM      6  C8  NON d   1     -38.406  21.012  -3.267  0.00  0.00     0.002 A 
ATOM      7  C6  NON d   1     -38.102  21.581  -4.498  0.00  0.00     0.014 A 
ATOM      8  N1  NON d   1     -38.704  22.827  -4.549  0.00  0.00    -0.359 N 
ATOM      9  C7  NON d   1     -37.330  21.120  -5.681  0.00  0.00     0.068 C 
ATOM     10  C5  NON d   1     -39.471  23.048  -3.433  0.00  0.00     0.043 A 
ATOM     11  H6  NON d   1     -38.656  23.470  -5.328  0.00  0.00     0.166 HD
ATOM     12  C4  NON d   1     -40.337  24.107  -3.134  0.00  0.00     0.033 A 
ATOM     13  C31 NON d   1     -39.260  21.970  -2.582  0.00  0.00     0.003 A 
ATOM     14  C3  NON d   1     -41.030  24.063  -1.913  0.00  0.00     0.039 A 
ATOM     15  C2  NON d   1     -40.829  23.019  -1.014  0.00  0.00     0.069 A 
ATOM     16  C32 NON d   1     -39.925  21.987  -1.334  0.00  0.00     0.051 A 
BRANCH  15  17
ATOM     17  O1  NON d   1     -41.445  22.878   0.202  0.00  0.00    -0.356 OA
ATOM     18  C1  NON d   1     -40.605  22.569   1.316  0.00  0.00     0.210 C 
ENDBRANCH  15  17
ENDBRANCH   5   6
ENDBRANCH   2   5
ENDBRANCH   1   2
BRANCH   1  19
ATOM     19  C11 NON d   1     -42.001  18.140  -2.757  0.00  0.00     0.043 C 
BRANCH  19  20
ATOM     20  C12 NON d   1     -42.627  17.482  -4.020  0.00  0.00     0.002 C 
BRANCH  20  21
ATOM     21  C13 NON d   1     -44.071  17.926  -4.334  0.00  0.00     0.000 C 
BRANCH  21  22
ATOM     22  C14 NON d   1     -44.924  16.869  -5.059  0.00  0.00     0.007 C 
BRANCH  22  23
ATOM     23  C15 NON d   1     -46.221  16.563  -4.290  0.00  0.00     0.077 C 
BRANCH  23  24
ATOM     24  C16 NON d   1     -47.292  15.743  -4.988  0.00  0.00     0.123 C 
ATOM     25  C17 NON d   1     -48.563  15.404  -4.265  0.00  0.00     0.091 C 
ATOM     26  O2  NON d   1     -47.116  15.380  -6.152  0.00  0.00    -0.298 OA
ENDBRANCH  23  24
ENDBRANCH  22  23
ENDBRANCH  21  22
ENDBRANCH  20  21
ENDBRANCH  19  20
ENDBRANCH   1  19
BRANCH   1  27
ATOM     27  C18 NON d   1     -40.097  18.809  -4.351  0.00  0.00     0.253 C 
ATOM     28  O3  NON d   1     -39.143  18.088  -4.701  0.00  0.00    -0.271 OA
ATOM     29  N3  NON d   1     -40.695  19.709  -5.201  0.00  0.00    -0.325 N 
ATOM     30  H28 NON d   1     -41.461  20.293  -4.896  0.00  0.00     0.169 HD
BRANCH  29  31
ATOM     31  C19 NON d   1     -40.314  19.967  -6.560  0.00  0.00     0.035 A 
ATOM     32  C20 NON d   1     -39.942  18.971  -7.460  0.00  0.00     0.029 A 
ATOM     33  C21 NON d   1     -39.580  19.292  -8.762  0.00  0.00     0.003 A 
ATOM     34  C22 NON d   1     -39.583  20.620  -9.183  0.00  0.00     0.012 A 
ATOM     35  C23 NON d   1     -39.953  21.681  -8.337  0.00  0.00    -0.024 A 
ATOM     36  C30 NON d   1     -40.319  21.308  -7.015  0.00  0.00     0.042 A 
BRANCH  35  37
ATOM     37  C24 NON d   1     -39.942  23.105  -8.829  0.00  0.00    -0.026 A 
ATOM     38  C25 NON d   1     -39.941  23.426 -10.206  0.00  0.00     0.012 A 
ATOM     39  C26 NON d   1     -39.932  24.746 -10.680  0.00  0.00     0.001 A 
ATOM     40  C27 NON d   1     -39.929  25.803  -9.786  0.00  0.00     0.000 A 
ATOM     41  C28 NON d   1     -39.934  25.536  -8.423  0.00  0.00     0.001 A 
ATOM     42  C29 NON d   1     -39.941  24.211  -7.955  0.00  0.00     0.012 A 
ENDBRANCH  35  37
ENDBRANCH  29  31
ENDBRANCH   1  27
TORSDOF 13
ENDMDL
MODEL 5
REMARK VINA RESULT:   -14.502      1.941      2.705
REMARK INTER + INTRA:         -20.728
REMARK INTER:                 -18.379
REMARK INTRA:                  -2.349
REMARK CONF_INDEPENDENT:        3.878
REMARK UNBOUND:                -2.349
REMARK  13 active torsions:
REMARK  status: ('A' for Active; 'I' for Inactive)
REMARK    1  A    between atoms: O1_2  and  C2_3 
REMARK    2  A    between atoms: C8_10  and  C9_11 
REMARK    3  A    between atoms: C9_11  and  N2_12 
REMARK    4  A    between atoms: C10_13  and  N2_12 
REMARK    5  A    between atoms: C10_13  and  C11_14 
REMARK    6  A    between atoms: C10_13  and  C18_22 
REMARK    7  A    between atoms: C11_14  and  C12_15 
REMARK    8  A    between atoms: C12_15  and  C13_16 
REMARK    9  A    between atoms: C13_16  and  C14_17 
REMARK   10  A    between atoms: C14_17  and  C15_18 
REMARK   11  A    between atoms: C15_18  and  C16_19 
REMARK       I    between atoms: C18_22  and  N3_24 
REMARK   12  A    between atoms: N3_24  and  C19_25 
REMARK   13  A    between atoms: C23_29  and  C24_30 
ROOT
ATOM      1  C10 NON d   1     -40.933  18.901  -2.761  0.00  0.00     0.277 C 
ENDROOT
BRANCH   1   2
ATOM      2  N2  NON d   1     -39.810  19.432  -1.826  0.00  0.00    -0.058 N 
ATOM      3  H12 NON d   1     -40.257  19.531  -0.890  0.00  0.00     0.278 HD
ATOM      4  H13 NON d   1     -39.085  18.720  -1.693  0.00  0.00     0.278 HD
BRANCH   2   5
ATOM      5  C9  NON d   1     -39.184  20.753  -2.138  0.00  0.00     0.274 C 
BRANCH   5   6
ATOM      6  C8  NON d   1     -39.366  21.926  -1.215  0.00  0.00     0.002 A 
ATOM      7  C6  NON d   1     -38.897  22.176   0.070  0.00  0.00     0.014 A 
ATOM      8  N1  NON d   1     -39.272  23.463   0.414  0.00  0.00    -0.359 N 
ATOM      9  C7  NON d   1     -38.111  21.382   1.048  0.00  0.00     0.068 C 
ATOM     10  C5  NON d   1     -39.883  24.096  -0.639  0.00  0.00     0.043 A 
ATOM     11  H6  NON d   1     -39.066  23.918   1.294  0.00  0.00     0.166 HD
ATOM     12  C4  NON d   1     -40.303  25.426  -0.765  0.00  0.00     0.033 A 
ATOM     13  C31 NON d   1     -40.019  23.152  -1.649  0.00  0.00     0.003 A 
ATOM     14  C3  NON d   1     -40.880  25.817  -1.985  0.00  0.00     0.039 A 
ATOM     15  C2  NON d   1     -41.065  24.901  -3.016  0.00  0.00     0.069 A 
ATOM     16  C32 NON d   1     -40.660  23.562  -2.840  0.00  0.00     0.051 A 
BRANCH  15  17
ATOM     17  O1  NON d   1     -41.619  25.171  -4.240  0.00  0.00    -0.356 OA
ATOM     18  C1  NON d   1     -42.066  26.509  -4.463  0.00  0.00     0.210 C 
ENDBRANCH  15  17
ENDBRANCH   5   6
ENDBRANCH   2   5
ENDBRANCH   1   2
BRANCH   1  19
ATOM     19  C11 NON d   1     -42.200  17.969  -2.811  0.00  0.00     0.043 C 
BRANCH  19  20
ATOM     20  C12 NON d   1     -42.460  17.255  -4.168  0.00  0.00     0.002 C 
BRANCH  20  21
ATOM     21  C13 NON d   1     -43.810  16.513  -4.262  0.00  0.00     0.000 C 
BRANCH  21  22
ATOM     22  C14 NON d   1     -45.049  17.427  -4.229  0.00  0.00     0.007 C 
BRANCH  22  23
ATOM     23  C15 NON d   1     -45.973  17.173  -5.433  0.00  0.00     0.077 C 
BRANCH  23  24
ATOM     24  C16 NON d   1     -46.882  15.958  -5.396  0.00  0.00     0.123 C 
ATOM     25  C17 NON d   1     -48.020  15.906  -4.418  0.00  0.00     0.091 C 
ATOM     26  O2  NON d   1     -46.690  15.032  -6.185  0.00  0.00    -0.298 OA
ENDBRANCH  23  24
ENDBRANCH  22  23
ENDBRANCH  21  22
ENDBRANCH  20  21
ENDBRANCH  19  20
ENDBRANCH   1  19
BRANCH   1  27
ATOM     27  C18 NON d   1     -40.684  19.579  -4.121  0.00  0.00     0.253 C 
ATOM     28  O3  NON d   1     -41.310  20.652  -4.221  0.00  0.00    -0.271 OA
ATOM     29  N3  NON d   1     -39.883  19.094  -5.128  0.00  0.00    -0.325 N 
ATOM     30  H28 NON d   1     -39.391  18.217  -5.034  0.00  0.00     0.169 HD
BRANCH  29  31
ATOM     31  C19 NON d   1     -39.673  19.706  -6.409  0.00  0.00     0.035 A 
ATOM     32  C20 NON d   1     -39.300  18.999  -7.550  0.00  0.00     0.029 A 
ATOM     33  C21 NON d   1     -39.109  19.657  -8.759  0.00  0.00     0.003 A 
ATOM     34  C22 NON d   1     -39.288  21.036  -8.843  0.00  0.00     0.012 A 
ATOM     35  C23 NON d   1     -39.672  21.818  -7.739  0.00  0.00    -0.024 A 
ATOM     36  C30 NON d   1     -39.859  21.106  -6.523  0.00  0.00     0.042 A 
BRANCH  35  37
ATOM     37  C24 NON d   1     -39.853  23.307  -7.869  0.00  0.00    -0.026 A 
ATOM     38  C25 NON d   1     -39.732  24.180  -6.763  0.00  0.00     0.012 A 
ATOM     39  C26 NON d   1     -39.896  25.569  -6.867  0.00  0.00     0.001 A 
ATOM     40  C27 NON d   1     -40.185  26.142  -8.094  0.00  0.00     0.000 A 
ATOM     41  C28 NON d   1     -40.309  25.324  -9.209  0.00  0.00     0.001 A 
ATOM     42  C29 NON d   1     -40.145  23.934  -9.097  0.00  0.00     0.012 A 
ENDBRANCH  35  37
ENDBRANCH  29  31
ENDBRANCH   1  27
TORSDOF 13
ENDMDL
MODEL 6
REMARK VINA RESULT:   -14.266      2.649      3.292
REMARK INTER + INTRA:         -21.638
REMARK INTER:                 -18.143
REMARK INTRA:                  -3.495
REMARK CONF_INDEPENDENT:        3.878
REMARK UNBOUND:                -3.495
REMARK  13 active torsions:
REMARK  status: ('A' for Active; 'I' for Inactive)
REMARK    1  A    between atoms: O1_2  and  C2_3 
REMARK    2  A    between atoms: C8_10  and  C9_11 
REMARK    3  A    between atoms: C9_11  and  N2_12 
REMARK    4  A    between atoms: C10_13  and  N2_12 
REMARK    5  A    between atoms: C10_13  and  C11_14 
REMARK    6  A    between atoms: C10_13  and  C18_22 
REMARK    7  A    between atoms: C11_14  and  C12_15 
REMARK    8  A    between atoms: C12_15  and  C13_16 
REMARK    9  A    between atoms: C13_16  and  C14_17 
REMARK   10  A    between atoms: C14_17  and  C15_18 
REMARK   11  A    between atoms: C15_18  and  C16_19 
REMARK       I    between atoms: C18_22  and  N3_24 
REMARK   12  A    between atoms: N3_24  and  C19_25 
REMARK   13  A    between atoms: C23_29  and  C24_30 
ROOT
ATOM      1  C10 NON d   1     -41.200  18.390  -2.740  0.00  0.00     0.277 C 
ENDROOT
BRANCH   1   2
ATOM      2  N2  NON d   1     -40.217  18.971  -1.685  0.00  0.00    -0.058 N 
ATOM      3  H12 NON d   1     -40.645  18.753  -0.761  0.00  0.00     0.278 HD
ATOM      4  H13 NON d   1     -39.334  18.451  -1.691  0.00  0.00     0.278 HD
BRANCH   2   5
ATOM      5  C9  NON d   1     -39.950  20.442  -1.691  0.00  0.00     0.274 C 
BRANCH   5   6
ATOM      6  C8  NON d   1     -39.040  21.053  -2.721  0.00  0.00     0.002 A 
ATOM      7  C6  NON d   1     -37.852  20.607  -3.290  0.00  0.00     0.014 A 
ATOM      8  N1  NON d   1     -37.485  21.513  -4.269  0.00  0.00    -0.359 N 
ATOM      9  C7  NON d   1     -36.991  19.416  -3.068  0.00  0.00     0.068 C 
ATOM     10  C5  NON d   1     -38.443  22.482  -4.426  0.00  0.00     0.043 A 
ATOM     11  H6  NON d   1     -36.661  21.444  -4.852  0.00  0.00     0.166 HD
ATOM     12  C4  NON d   1     -38.535  23.508  -5.375  0.00  0.00     0.033 A 
ATOM     13  C31 NON d   1     -39.395  22.269  -3.437  0.00  0.00     0.003 A 
ATOM     14  C3  NON d   1     -39.657  24.352  -5.320  0.00  0.00     0.039 A 
ATOM     15  C2  NON d   1     -40.622  24.197  -4.330  0.00  0.00     0.069 A 
ATOM     16  C32 NON d   1     -40.479  23.174  -3.371  0.00  0.00     0.051 A 
BRANCH  15  17
ATOM     17  O1  NON d   1     -41.749  24.963  -4.179  0.00  0.00    -0.356 OA
ATOM     18  C1  NON d   1     -41.575  26.254  -3.595  0.00  0.00     0.210 C 
ENDBRANCH  15  17
ENDBRANCH   5   6
ENDBRANCH   2   5
ENDBRANCH   1   2
BRANCH   1  19
ATOM     19  C11 NON d   1     -42.621  17.734  -2.917  0.00  0.00     0.043 C 
BRANCH  19  20
ATOM     20  C12 NON d   1     -43.000  17.325  -4.369  0.00  0.00     0.002 C 
BRANCH  20  21
ATOM     21  C13 NON d   1     -44.501  17.446  -4.705  0.00  0.00     0.000 C 
BRANCH  21  22
ATOM     22  C14 NON d   1     -45.446  16.846  -3.647  0.00  0.00     0.007 C 
BRANCH  22  23
ATOM     23  C15 NON d   1     -46.912  16.878  -4.113  0.00  0.00     0.077 C 
BRANCH  23  24
ATOM     24  C16 NON d   1     -47.419  15.728  -4.965  0.00  0.00     0.123 C 
ATOM     25  C17 NON d   1     -48.711  15.049  -4.612  0.00  0.00     0.091 C 
ATOM     26  O2  NON d   1     -46.775  15.375  -5.954  0.00  0.00    -0.298 OA
ENDBRANCH  23  24
ENDBRANCH  22  23
ENDBRANCH  21  22
ENDBRANCH  20  21
ENDBRANCH  19  20
ENDBRANCH   1  19
BRANCH   1  27
ATOM     27  C18 NON d   1     -40.489  18.556  -4.095  0.00  0.00     0.253 C 
ATOM     28  O3  NON d   1     -39.366  18.015  -4.094  0.00  0.00    -0.271 OA
ATOM     29  N3  NON d   1     -40.990  19.216  -5.193  0.00  0.00    -0.325 N 
ATOM     30  H28 NON d   1     -41.898  19.658  -5.172  0.00  0.00     0.169 HD
BRANCH  29  31
ATOM     31  C19 NON d   1     -40.318  19.400  -6.447  0.00  0.00     0.035 A 
ATOM     32  C20 NON d   1     -39.654  18.379  -7.123  0.00  0.00     0.029 A 
ATOM     33  C21 NON d   1     -39.019  18.628  -8.333  0.00  0.00     0.003 A 
ATOM     34  C22 NON d   1     -39.039  19.907  -8.886  0.00  0.00     0.012 A 
ATOM     35  C23 NON d   1     -39.693  20.988  -8.268  0.00  0.00    -0.024 A 
ATOM     36  C30 NON d   1     -40.332  20.689  -7.034  0.00  0.00     0.042 A 
BRANCH  35  37
ATOM     37  C24 NON d   1     -39.690  22.357  -8.895  0.00  0.00    -0.026 A 
ATOM     38  C25 NON d   1     -39.065  22.615 -10.137  0.00  0.00     0.012 A 
ATOM     39  C26 NON d   1     -39.055  23.884 -10.735  0.00  0.00     0.001 A 
ATOM     40  C27 NON d   1     -39.679  24.950 -10.110  0.00  0.00     0.000 A 
ATOM     41  C28 NON d   1     -40.311  24.742  -8.891  0.00  0.00     0.001 A 
ATOM     42  C29 NON d   1     -40.316  23.469  -8.296  0.00  0.00     0.012 A 
ENDBRANCH  35  37
ENDBRANCH  29  31
ENDBRANCH   1  27
TORSDOF 13
ENDMDL
MODEL 7
REMARK VINA RESULT:   -13.887      2.435      6.354
REMARK INTER + INTRA:         -20.874
REMARK INTER:                 -17.765
REMARK INTRA:                  -3.109
REMARK CONF_INDEPENDENT:        3.878
REMARK UNBOUND:                -3.109
REMARK  13 active torsions:
REMARK  status: ('A' for Active; 'I' for Inactive)
REMARK    1  A    between atoms: O1_2  and  C2_3 
REMARK    2  A    between atoms: C8_10  and  C9_11 
REMARK    3  A    between atoms: C9_11  and  N2_12 
REMARK    4  A    between atoms: C10_13  and  N2_12 
REMARK    5  A    between atoms: C10_13  and  C11_14 
REMARK    6  A    between atoms: C10_13  and  C18_22 
REMARK    7  A    between atoms: C11_14  and  C12_15 
REMARK    8  A    between atoms: C12_15  and  C13_16 
REMARK    9  A    between atoms: C13_16  and  C14_17 
REMARK   10  A    between atoms: C14_17  and  C15_18 
REMARK   11  A    between atoms: C15_18  and  C16_19 
REMARK       I    between atoms: C18_22  and  N3_24 
REMARK   12  A    between atoms: N3_24  and  C19_25 
REMARK   13  A    between atoms: C23_29  and  C24_30 
ROOT
ATOM      1  C10 NON d   1     -39.792  18.197  -2.418  0.00  0.00     0.277 C 
ENDROOT
BRANCH   1   2
ATOM      2  N2  NON d   1     -38.242  18.193  -2.304  0.00  0.00    -0.058 N 
ATOM      3  H12 NON d   1     -38.032  18.659  -1.396  0.00  0.00     0.278 HD
ATOM      4  H13 NON d   1     -37.891  17.238  -2.192  0.00  0.00     0.278 HD
BRANCH   2   5
ATOM      5  C9  NON d   1     -37.448  18.917  -3.344  0.00  0.00     0.274 C 
BRANCH   5   6
ATOM      6  C8  NON d   1     -37.861  20.285  -3.812  0.00  0.00     0.002 A 
ATOM      7  C6  NON d   1     -37.500  21.558  -3.386  0.00  0.00     0.014 A 
ATOM      8  N1  NON d   1     -38.094  22.474  -4.236  0.00  0.00    -0.359 N 
ATOM      9  C7  NON d   1     -36.642  22.068  -2.285  0.00  0.00     0.068 C 
ATOM     10  C5  NON d   1     -38.749  21.840  -5.262  0.00  0.00     0.043 A 
ATOM     11  H6  NON d   1     -38.006  23.480  -4.169  0.00  0.00     0.166 HD
ATOM     12  C4  NON d   1     -39.373  22.374  -6.396  0.00  0.00     0.033 A 
ATOM     13  C31 NON d   1     -38.682  20.477  -4.997  0.00  0.00     0.003 A 
ATOM     14  C3  NON d   1     -39.948  21.478  -7.311  0.00  0.00     0.039 A 
ATOM     15  C2  NON d   1     -39.933  20.106  -7.076  0.00  0.00     0.069 A 
ATOM     16  C32 NON d   1     -39.325  19.606  -5.906  0.00  0.00     0.051 A 
BRANCH  15  17
ATOM     17  O1  NON d   1     -40.465  19.145  -7.894  0.00  0.00    -0.356 OA
ATOM     18  C1  NON d   1     -39.557  18.183  -8.432  0.00  0.00     0.210 C 
ENDBRANCH  15  17
ENDBRANCH   5   6
ENDBRANCH   2   5
ENDBRANCH   1   2
BRANCH   1  19
ATOM     19  C11 NON d   1     -41.040  17.282  -2.709  0.00  0.00     0.043 C 
BRANCH  19  20
ATOM     20  C12 NON d   1     -42.352  18.028  -3.084  0.00  0.00     0.002 C 
BRANCH  20  21
ATOM     21  C13 NON d   1     -42.696  18.018  -4.589  0.00  0.00     0.000 C 
BRANCH  21  22
ATOM     22  C14 NON d   1     -43.700  16.929  -5.011  0.00  0.00     0.007 C 
BRANCH  22  23
ATOM     23  C15 NON d   1     -44.986  16.988  -4.170  0.00  0.00     0.077 C 
BRANCH  23  24
ATOM     24  C16 NON d   1     -46.260  16.415  -4.766  0.00  0.00     0.123 C 
ATOM     25  C17 NON d   1     -47.578  16.662  -4.092  0.00  0.00     0.091 C 
ATOM     26  O2  NON d   1     -46.202  15.767  -5.812  0.00  0.00    -0.298 OA
ENDBRANCH  23  24
ENDBRANCH  22  23
ENDBRANCH  21  22
ENDBRANCH  20  21
ENDBRANCH  19  20
ENDBRANCH   1  19
BRANCH   1  27
ATOM     27  C18 NON d   1     -40.221  19.642  -2.103  0.00  0.00     0.253 C 
ATOM     28  O3  NON d   1     -40.863  20.146  -3.045  0.00  0.00    -0.271 OA
ATOM     29  N3  NON d   1     -39.945  20.329  -0.945  0.00  0.00    -0.325 N 
ATOM     30  H28 NON d   1     -39.413  19.908  -0.196  0.00  0.00     0.169 HD
BRANCH  29  31
ATOM     31  C19 NON d   1     -40.315  21.686  -0.660  0.00  0.00     0.035 A 
ATOM     32  C20 NON d   1     -40.590  22.158   0.622  0.00  0.00     0.029 A 
ATOM     33  C21 NON d   1     -40.947  23.484   0.827  0.00  0.00     0.003 A 
ATOM     34  C22 NON d   1     -41.035  24.361  -0.252  0.00  0.00     0.012 A 
ATOM     35  C23 NON d   1     -40.765  23.964  -1.574  0.00  0.00    -0.024 A 
ATOM     36  C30 NON d   1     -40.401  22.600  -1.738  0.00  0.00     0.042 A 
BRANCH  35  37
ATOM     37  C24 NON d   1     -40.873  24.941  -2.715  0.00  0.00    -0.026 A 
ATOM     38  C25 NON d   1     -40.438  24.623  -4.022  0.00  0.00     0.012 A 
ATOM     39  C26 NON d   1     -40.533  25.520  -5.096  0.00  0.00     0.001 A 
ATOM     40  C27 NON d   1     -41.076  26.779  -4.901  0.00  0.00     0.000 A 
ATOM     41  C28 NON d   1     -41.520  27.134  -3.634  0.00  0.00     0.001 A 
ATOM     42  C29 NON d   1     -41.420  26.231  -2.563  0.00  0.00     0.012 A 
ENDBRANCH  35  37
ENDBRANCH  29  31
ENDBRANCH   1  27
TORSDOF 13
ENDMDL
MODEL 8
REMARK VINA RESULT:   -13.738      2.390      3.473
REMARK INTER + INTRA:         -21.003
REMARK INTER:                 -17.616
REMARK INTRA:                  -3.387
REMARK CONF_INDEPENDENT:        3.878
REMARK UNBOUND:                -3.387
REMARK  13 active torsions:
REMARK  status: ('A' for Active; 'I' for Inactive)
REMARK    1  A    between atoms: O1_2  and  C2_3 
REMARK    2  A    between atoms: C8_10  and  C9_11 
REMARK    3  A    between atoms: C9_11  and  N2_12 
REMARK    4  A    between atoms: C10_13  and  N2_12 
REMARK    5  A    between atoms: C10_13  and  C11_14 
REMARK    6  A    between atoms: C10_13  and  C18_22 
REMARK    7  A    between atoms: C11_14  and  C12_15 
REMARK    8  A    between atoms: C12_15  and  C13_16 
REMARK    9  A    between atoms: C13_16  and  C14_17 
REMARK   10  A    between atoms: C14_17  and  C15_18 
REMARK   11  A    between atoms: C15_18  and  C16_19 
REMARK       I    between atoms: C18_22  and  N3_24 
REMARK   12  A    between atoms: N3_24  and  C19_25 
REMARK   13  A    between atoms: C23_29  and  C24_30 
ROOT
ATOM      1  C10 NON d   1     -40.862  17.955  -2.975  0.00  0.00     0.277 C 
ENDROOT
BRANCH   1   2
ATOM      2  N2  NON d   1     -39.608  18.049  -2.061  0.00  0.00    -0.058 N 
ATOM      3  H12 NON d   1     -39.676  18.978  -1.596  0.00  0.00     0.278 HD
ATOM      4  H13 NON d   1     -39.668  17.371  -1.295  0.00  0.00     0.278 HD
BRANCH   2   5
ATOM      5  C9  NON d   1     -38.255  17.992  -2.696  0.00  0.00     0.274 C 
BRANCH   5   6
ATOM      6  C8  NON d   1     -37.685  19.194  -3.396  0.00  0.00     0.002 A 
ATOM      7  C6  NON d   1     -37.007  19.330  -4.602  0.00  0.00     0.014 A 
ATOM      8  N1  NON d   1     -36.802  20.681  -4.823  0.00  0.00    -0.359 N 
ATOM      9  C7  NON d   1     -36.526  18.365  -5.624  0.00  0.00     0.068 C 
ATOM     10  C5  NON d   1     -37.408  21.436  -3.851  0.00  0.00     0.043 A 
ATOM     11  H6  NON d   1     -36.333  21.079  -5.627  0.00  0.00     0.166 HD
ATOM     12  C4  NON d   1     -37.554  22.825  -3.754  0.00  0.00     0.033 A 
ATOM     13  C31 NON d   1     -37.912  20.547  -2.910  0.00  0.00     0.003 A 
ATOM     14  C3  NON d   1     -38.257  23.335  -2.650  0.00  0.00     0.039 A 
ATOM     15  C2  NON d   1     -38.755  22.487  -1.665  0.00  0.00     0.069 A 
ATOM     16  C32 NON d   1     -38.560  21.095  -1.779  0.00  0.00     0.051 A 
BRANCH  15  17
ATOM     17  O1  NON d   1     -39.448  22.873  -0.548  0.00  0.00    -0.356 OA
ATOM     18  C1  NON d   1     -39.941  21.831   0.295  0.00  0.00     0.210 C 
ENDBRANCH  15  17
ENDBRANCH   5   6
ENDBRANCH   2   5
ENDBRANCH   1   2
BRANCH   1  19
ATOM     19  C11 NON d   1     -42.264  17.256  -3.128  0.00  0.00     0.043 C 
BRANCH  19  20
ATOM     20  C12 NON d   1     -42.976  17.461  -4.496  0.00  0.00     0.002 C 
BRANCH  20  21
ATOM     21  C13 NON d   1     -44.203  16.554  -4.730  0.00  0.00     0.000 C 
BRANCH  21  22
ATOM     22  C14 NON d   1     -45.544  17.304  -4.834  0.00  0.00     0.007 C 
BRANCH  22  23
ATOM     23  C15 NON d   1     -46.691  16.505  -4.191  0.00  0.00     0.077 C 
BRANCH  23  24
ATOM     24  C16 NON d   1     -47.501  15.576  -5.076  0.00  0.00     0.123 C 
ATOM     25  C17 NON d   1     -48.835  15.071  -4.608  0.00  0.00     0.091 C 
ATOM     26  O2  NON d   1     -47.065  15.259  -6.185  0.00  0.00    -0.298 OA
ENDBRANCH  23  24
ENDBRANCH  22  23
ENDBRANCH  21  22
ENDBRANCH  20  21
ENDBRANCH  19  20
ENDBRANCH   1  19
BRANCH   1  27
ATOM     27  C18 NON d   1     -40.599  18.938  -4.130  0.00  0.00     0.253 C 
ATOM     28  O3  NON d   1     -40.763  20.121  -3.773  0.00  0.00    -0.271 OA
ATOM     29  N3  NON d   1     -40.233  18.597  -5.411  0.00  0.00    -0.325 N 
ATOM     30  H28 NON d   1     -40.115  17.632  -5.685  0.00  0.00     0.169 HD
BRANCH  29  31
ATOM     31  C19 NON d   1     -40.017  19.508  -6.498  0.00  0.00     0.035 A 
ATOM     32  C20 NON d   1     -39.754  19.101  -7.805  0.00  0.00     0.029 A 
ATOM     33  C21 NON d   1     -39.550  20.037  -8.810  0.00  0.00     0.003 A 
ATOM     34  C22 NON d   1     -39.606  21.399  -8.522  0.00  0.00     0.012 A 
ATOM     35  C23 NON d   1     -39.874  21.889  -7.231  0.00  0.00    -0.024 A 
ATOM     36  C30 NON d   1     -40.078  20.898  -6.233  0.00  0.00     0.042 A 
BRANCH  35  37
ATOM     37  C24 NON d   1     -39.924  23.369  -6.958  0.00  0.00    -0.026 A 
ATOM     38  C25 NON d   1     -39.958  23.892  -5.644  0.00  0.00     0.012 A 
ATOM     39  C26 NON d   1     -40.002  25.267  -5.373  0.00  0.00     0.001 A 
ATOM     40  C27 NON d   1     -40.010  26.179  -6.414  0.00  0.00     0.000 A 
ATOM     41  C28 NON d   1     -39.973  25.712  -7.721  0.00  0.00     0.001 A 
ATOM     42  C29 NON d   1     -39.930  24.333  -7.986  0.00  0.00     0.012 A 
ENDBRANCH  35  37
ENDBRANCH  29  31
ENDBRANCH   1  27
TORSDOF 13
ENDMDL
MODEL 9
REMARK VINA RESULT:   -13.638      2.988      5.916
REMARK INTER + INTRA:         -21.854
REMARK INTER:                 -17.516
REMARK INTRA:                  -4.338
REMARK CONF_INDEPENDENT:        3.878
REMARK UNBOUND:                -4.338
REMARK  13 active torsions:
REMARK  status: ('A' for Active; 'I' for Inactive)
REMARK    1  A    between atoms: O1_2  and  C2_3 
REMARK    2  A    between atoms: C8_10  and  C9_11 
REMARK    3  A    between atoms: C9_11  and  N2_12 
REMARK    4  A    between atoms: C10_13  and  N2_12 
REMARK    5  A    between atoms: C10_13  and  C11_14 
REMARK    6  A    between atoms: C10_13  and  C18_22 
REMARK    7  A    between atoms: C11_14  and  C12_15 
REMARK    8  A    between atoms: C12_15  and  C13_16 
REMARK    9  A    between atoms: C13_16  and  C14_17 
REMARK   10  A    between atoms: C14_17  and  C15_18 
REMARK   11  A    between atoms: C15_18  and  C16_19 
REMARK       I    between atoms: C18_22  and  N3_24 
REMARK   12  A    between atoms: N3_24  and  C19_25 
REMARK   13  A    between atoms: C23_29  and  C24_30 
ROOT
ATOM      1  C10 NON d   1     -40.370  18.243  -3.234  0.00  0.00     0.277 C 
ENDROOT
BRANCH   1   2
ATOM      2  N2  NON d   1     -39.330  17.662  -2.235  0.00  0.00    -0.058 N 
ATOM      3  H12 NON d   1     -39.585  18.064  -1.309  0.00  0.00     0.278 HD
ATOM      4  H13 NON d   1     -39.462  16.652  -2.124  0.00  0.00     0.278 HD
BRANCH   2   5
ATOM      5  C9  NON d   1     -37.883  17.973  -2.448  0.00  0.00     0.274 C 
BRANCH   5   6
ATOM      6  C8  NON d   1     -37.449  19.343  -2.892  0.00  0.00     0.002 A 
ATOM      7  C6  NON d   1     -37.133  19.854  -4.145  0.00  0.00     0.014 A 
ATOM      8  N1  NON d   1     -36.903  21.212  -4.003  0.00  0.00    -0.359 N 
ATOM      9  C7  NON d   1     -37.031  19.258  -5.502  0.00  0.00     0.068 C 
ATOM     10  C5  NON d   1     -37.154  21.621  -2.717  0.00  0.00     0.043 A 
ATOM     11  H6  NON d   1     -36.654  21.846  -4.751  0.00  0.00     0.166 HD
ATOM     12  C4  NON d   1     -37.168  22.911  -2.172  0.00  0.00     0.033 A 
ATOM     13  C31 NON d   1     -37.433  20.477  -1.980  0.00  0.00     0.003 A 
ATOM     14  C3  NON d   1     -37.491  23.044  -0.812  0.00  0.00     0.039 A 
ATOM     15  C2  NON d   1     -37.749  21.925  -0.025  0.00  0.00     0.069 A 
ATOM     16  C32 NON d   1     -37.694  20.639  -0.600  0.00  0.00     0.051 A 
BRANCH  15  17
ATOM     17  O1  NON d   1     -38.069  21.937   1.308  0.00  0.00    -0.356 OA
ATOM     18  C1  NON d   1     -37.630  23.067   2.064  0.00  0.00     0.210 C 
ENDBRANCH  15  17
ENDBRANCH   5   6
ENDBRANCH   2   5
ENDBRANCH   1   2
BRANCH   1  19
ATOM     19  C11 NON d   1     -41.316  17.866  -4.435  0.00  0.00     0.043 C 
BRANCH  19  20
ATOM     20  C12 NON d   1     -42.787  18.355  -4.315  0.00  0.00     0.002 C 
BRANCH  20  21
ATOM     21  C13 NON d   1     -43.828  17.234  -4.109  0.00  0.00     0.000 C 
BRANCH  21  22
ATOM     22  C14 NON d   1     -45.079  17.350  -5.000  0.00  0.00     0.007 C 
BRANCH  22  23
ATOM     23  C15 NON d   1     -46.311  16.717  -4.330  0.00  0.00     0.077 C 
BRANCH  23  24
ATOM     24  C16 NON d   1     -47.147  15.743  -5.141  0.00  0.00     0.123 C 
ATOM     25  C17 NON d   1     -48.529  15.380  -4.681  0.00  0.00     0.091 C 
ATOM     26  O2  NON d   1     -46.690  15.274  -6.185  0.00  0.00    -0.298 OA
ENDBRANCH  23  24
ENDBRANCH  22  23
ENDBRANCH  21  22
ENDBRANCH  20  21
ENDBRANCH  19  20
ENDBRANCH   1  19
BRANCH   1  27
ATOM     27  C18 NON d   1     -40.505  19.731  -2.861  0.00  0.00     0.253 C 
ATOM     28  O3  NON d   1     -40.686  19.883  -1.638  0.00  0.00    -0.271 OA
ATOM     29  N3  NON d   1     -40.445  20.789  -3.737  0.00  0.00    -0.325 N 
ATOM     30  H28 NON d   1     -40.308  20.646  -4.728  0.00  0.00     0.169 HD
BRANCH  29  31
ATOM     31  C19 NON d   1     -40.601  22.175  -3.399  0.00  0.00     0.035 A 
ATOM     32  C20 NON d   1     -40.676  23.196  -4.344  0.00  0.00     0.029 A 
ATOM     33  C21 NON d   1     -40.824  24.518  -3.947  0.00  0.00     0.003 A 
ATOM     34  C22 NON d   1     -40.898  24.840  -2.593  0.00  0.00     0.012 A 
ATOM     35  C23 NON d   1     -40.838  23.866  -1.580  0.00  0.00    -0.024 A 
ATOM     36  C30 NON d   1     -40.689  22.526  -2.030  0.00  0.00     0.042 A 
BRANCH  35  37
ATOM     37  C24 NON d   1     -40.919  24.253  -0.127  0.00  0.00    -0.026 A 
ATOM     38  C25 NON d   1     -40.984  23.290   0.906  0.00  0.00     0.012 A 
ATOM     39  C26 NON d   1     -41.058  23.634   2.264  0.00  0.00     0.001 A 
ATOM     40  C27 NON d   1     -41.065  24.965   2.643  0.00  0.00     0.000 A 
ATOM     41  C28 NON d   1     -40.998  25.947   1.662  0.00  0.00     0.001 A 
ATOM     42  C29 NON d   1     -40.926  25.596   0.304  0.00  0.00     0.012 A 
ENDBRANCH  35  37
ENDBRANCH  29  31
ENDBRANCH   1  27
TORSDOF 13
ENDMDL
