MODEL 1
REMARK VINA RESULT:   -20.682      0.000      0.000
REMARK INTER + INTRA:         -23.295
REMARK INTER:                 -22.770
REMARK INTRA:                  -0.525
REMARK CONF_INDEPENDENT:        2.088
REMARK UNBOUND:                -0.525
REMARK  7 active torsions:
REMARK  status: ('A' for Active; 'I' for Inactive)
REMARK    1  A    between atoms: C2_2  and  C3_3 
REMARK    2  A    between atoms: C3_3  and  C4_4 
REMARK    3  A    between atoms: C4_4  and  S2_6 
REMARK    4  A    between atoms: S2_6  and  C5_7 
REMARK    5  A    between atoms: C5_7  and  C6_8 
REMARK    6  A    between atoms: C6_8  and  C7_10 
REMARK    7  A    between atoms: C10_13  and  O2_14 
ROOT
ATOM      1  C6  NON d   1     -43.380  17.210  -4.843  0.00  0.00     0.169 C 
ATOM      2  O1  NON d   1     -43.362  16.118  -5.407  0.00  0.00    -0.291 OA
ENDROOT
BRANCH   1   3
ATOM      3  C5  NON d   1     -44.655  18.006  -4.584  0.00  0.00     0.163 C 
BRANCH   3   4
ATOM      4  S2  NON d   1     -45.940  17.631  -5.810  0.00  0.00    -0.115 SA
BRANCH   4   5
ATOM      5  C4  NON d   1     -46.987  16.434  -5.019  0.00  0.00     0.045 C 
ATOM      6  S1  NON d   1     -48.022  15.380  -5.810  0.00  0.00    -0.077 SA
BRANCH   5   7
ATOM      7  C3  NON d   1     -46.828  16.486  -3.493  0.00  0.00     0.057 C 
BRANCH   7   8
ATOM      8  C2  NON d   1     -48.013  16.883  -2.606  0.00  0.00     0.001 C 
ATOM      9  C1  NON d   1     -49.272  16.035  -2.862  0.00  0.00     0.005 C 
ENDBRANCH   7   8
ENDBRANCH   5   7
ENDBRANCH   4   5
ENDBRANCH   3   4
ENDBRANCH   1   3
BRANCH   1  10
ATOM     10  C7  NON d   1     -42.082  17.769  -4.343  0.00  0.00     0.011 A 
ATOM     11  C8  NON d   1     -41.843  17.765  -2.960  0.00  0.00     0.018 A 
ATOM     12  C9  NON d   1     -40.642  18.260  -2.434  0.00  0.00     0.037 A 
ATOM     13  C10 NON d   1     -39.662  18.760  -3.287  0.00  0.00     0.068 A 
ATOM     14  C12 NON d   1     -39.905  18.783  -4.664  0.00  0.00     0.037 A 
ATOM     15  C13 NON d   1     -41.106  18.295  -5.194  0.00  0.00     0.018 A 
BRANCH  13  16
ATOM     16  O2  NON d   1     -38.441  19.248  -2.915  0.00  0.00    -0.356 OA
ATOM     17  C11 NON d   1     -37.352  18.333  -2.918  0.00  0.00     0.210 C 
ENDBRANCH  13  16
ENDBRANCH   1  10
TORSDOF 7
ENDMDL
MODEL 2
REMARK VINA RESULT:   -20.665      0.224      1.190
REMARK INTER + INTRA:         -23.285
REMARK INTER:                 -22.753
REMARK INTRA:                  -0.532
REMARK CONF_INDEPENDENT:        2.088
REMARK UNBOUND:                -0.532
REMARK  7 active torsions:
REMARK  status: ('A' for Active; 'I' for Inactive)
REMARK    1  A    between atoms: C2_2  and  C3_3 
REMARK    2  A    between atoms: C3_3  and  C4_4 
REMARK    3  A    between atoms: C4_4  and  S2_6 
REMARK    4  A    between atoms: S2_6  and  C5_7 
REMARK    5  A    between atoms: C5_7  and  C6_8 
REMARK    6  A    between atoms: C6_8  and  C7_10 
REMARK    7  A    between atoms: C10_13  and  O2_14 
ROOT
ATOM      1  C6  NON d   1     -43.408  17.185  -4.790  0.00  0.00     0.169 C 
ATOM      2  O1  NON d   1     -43.392  16.118  -5.400  0.00  0.00    -0.291 OA
ENDROOT
BRANCH   1   3
ATOM      3  C5  NON d   1     -44.667  18.020  -4.580  0.00  0.00     0.163 C 
BRANCH   3   4
ATOM      4  S2  NON d   1     -45.943  17.630  -5.811  0.00  0.00    -0.115 SA
BRANCH   4   5
ATOM      5  C4  NON d   1     -46.987  16.432  -5.020  0.00  0.00     0.045 C 
ATOM      6  S1  NON d   1     -48.019  15.374  -5.810  0.00  0.00    -0.077 SA
BRANCH   5   7
ATOM      7  C3  NON d   1     -46.828  16.486  -3.493  0.00  0.00     0.057 C 
BRANCH   7   8
ATOM      8  C2  NON d   1     -48.033  16.808  -2.603  0.00  0.00     0.001 C 
ATOM      9  C1  NON d   1     -49.200  15.820  -2.781  0.00  0.00     0.005 C 
ENDBRANCH   7   8
ENDBRANCH   5   7
ENDBRANCH   4   5
ENDBRANCH   3   4
ENDBRANCH   1   3
BRANCH   1  10
ATOM     10  C7  NON d   1     -42.126  17.670  -4.182  0.00  0.00     0.011 A 
ATOM     11  C8  NON d   1     -41.139  18.190  -5.033  0.00  0.00     0.018 A 
ATOM     12  C9  NON d   1     -39.926  18.672  -4.523  0.00  0.00     0.037 A 
ATOM     13  C10 NON d   1     -39.689  18.645  -3.151  0.00  0.00     0.068 A 
ATOM     14  C12 NON d   1     -40.663  18.111  -2.302  0.00  0.00     0.037 A 
ATOM     15  C13 NON d   1     -41.874  17.622  -2.808  0.00  0.00     0.018 A 
BRANCH  13  16
ATOM     16  O2  NON d   1     -38.568  19.103  -2.517  0.00  0.00    -0.356 OA
ATOM     17  C11 NON d   1     -37.496  18.183  -2.355  0.00  0.00     0.210 C 
ENDBRANCH  13  16
ENDBRANCH   1  10
TORSDOF 7
ENDMDL
MODEL 3
REMARK VINA RESULT:   -20.166      0.970      1.543
REMARK INTER + INTRA:         -22.725
REMARK INTER:                 -22.254
REMARK INTRA:                  -0.471
REMARK CONF_INDEPENDENT:        2.088
REMARK UNBOUND:                -0.471
REMARK  7 active torsions:
REMARK  status: ('A' for Active; 'I' for Inactive)
REMARK    1  A    between atoms: C2_2  and  C3_3 
REMARK    2  A    between atoms: C3_3  and  C4_4 
REMARK    3  A    between atoms: C4_4  and  S2_6 
REMARK    4  A    between atoms: S2_6  and  C5_7 
REMARK    5  A    between atoms: C5_7  and  C6_8 
REMARK    6  A    between atoms: C6_8  and  C7_10 
REMARK    7  A    between atoms: C10_13  and  O2_14 
ROOT
ATOM      1  C6  NON d   1     -43.366  17.359  -4.825  0.00  0.00     0.169 C 
ATOM      2  O1  NON d   1     -43.262  16.208  -5.246  0.00  0.00    -0.291 OA
ENDROOT
BRANCH   1   3
ATOM      3  C5  NON d   1     -44.702  18.041  -4.550  0.00  0.00     0.163 C 
BRANCH   3   4
ATOM      4  S2  NON d   1     -45.940  17.622  -5.810  0.00  0.00    -0.115 SA
BRANCH   4   5
ATOM      5  C4  NON d   1     -47.017  16.454  -5.017  0.00  0.00     0.045 C 
ATOM      6  S1  NON d   1     -48.035  15.383  -5.809  0.00  0.00    -0.077 SA
BRANCH   5   7
ATOM      7  C3  NON d   1     -46.903  16.548  -3.489  0.00  0.00     0.057 C 
BRANCH   7   8
ATOM      8  C2  NON d   1     -48.124  16.935  -2.647  0.00  0.00     0.001 C 
ATOM      9  C1  NON d   1     -49.420  16.240  -3.104  0.00  0.00     0.005 C 
ENDBRANCH   7   8
ENDBRANCH   5   7
ENDBRANCH   4   5
ENDBRANCH   3   4
ENDBRANCH   1   3
BRANCH   1  10
ATOM     10  C7  NON d   1     -42.108  18.117  -4.526  0.00  0.00     0.011 A 
ATOM     11  C8  NON d   1     -41.706  19.123  -5.419  0.00  0.00     0.018 A 
ATOM     12  C9  NON d   1     -40.548  19.875  -5.185  0.00  0.00     0.037 A 
ATOM     13  C10 NON d   1     -39.779  19.635  -4.049  0.00  0.00     0.068 A 
ATOM     14  C12 NON d   1     -40.166  18.622  -3.168  0.00  0.00     0.037 A 
ATOM     15  C13 NON d   1     -41.320  17.863  -3.400  0.00  0.00     0.018 A 
BRANCH  13  16
ATOM     16  O2  NON d   1     -38.646  20.308  -3.685  0.00  0.00    -0.356 OA
ATOM     17  C11 NON d   1     -38.811  21.634  -3.199  0.00  0.00     0.210 C 
ENDBRANCH  13  16
ENDBRANCH   1  10
TORSDOF 7
ENDMDL
MODEL 4
REMARK VINA RESULT:   -19.262      1.122      1.367
REMARK INTER + INTRA:         -21.929
REMARK INTER:                 -21.350
REMARK INTRA:                  -0.579
REMARK CONF_INDEPENDENT:        2.088
REMARK UNBOUND:                -0.579
REMARK  7 active torsions:
REMARK  status: ('A' for Active; 'I' for Inactive)
REMARK    1  A    between atoms: C2_2  and  C3_3 
REMARK    2  A    between atoms: C3_3  and  C4_4 
REMARK    3  A    between atoms: C4_4  and  S2_6 
REMARK    4  A    between atoms: S2_6  and  C5_7 
REMARK    5  A    between atoms: C5_7  and  C6_8 
REMARK    6  A    between atoms: C6_8  and  C7_10 
REMARK    7  A    between atoms: C10_13  and  O2_14 
ROOT
ATOM      1  C6  NON d   1     -43.547  17.488  -4.082  0.00  0.00     0.169 C 
ATOM      2  O1  NON d   1     -43.615  16.348  -3.626  0.00  0.00    -0.291 OA
ENDROOT
BRANCH   1   3
ATOM      3  C5  NON d   1     -44.769  18.328  -4.442  0.00  0.00     0.163 C 
BRANCH   3   4
ATOM      4  S2  NON d   1     -45.708  17.594  -5.811  0.00  0.00    -0.115 SA
BRANCH   4   5
ATOM      5  C4  NON d   1     -46.894  16.528  -5.029  0.00  0.00     0.045 C 
ATOM      6  S1  NON d   1     -47.826  15.377  -5.812  0.00  0.00    -0.077 SA
BRANCH   5   7
ATOM      7  C3  NON d   1     -46.965  16.799  -3.519  0.00  0.00     0.057 C 
BRANCH   7   8
ATOM      8  C2  NON d   1     -48.081  16.173  -2.675  0.00  0.00     0.001 C 
ATOM      9  C1  NON d   1     -49.484  16.678  -3.056  0.00  0.00     0.005 C 
ENDBRANCH   7   8
ENDBRANCH   5   7
ENDBRANCH   4   5
ENDBRANCH   3   4
ENDBRANCH   1   3
BRANCH   1  10
ATOM     10  C7  NON d   1     -42.190  18.102  -4.253  0.00  0.00     0.011 A 
ATOM     11  C8  NON d   1     -41.121  17.572  -3.513  0.00  0.00     0.018 A 
ATOM     12  C9  NON d   1     -39.827  18.093  -3.640  0.00  0.00     0.037 A 
ATOM     13  C10 NON d   1     -39.585  19.149  -4.516  0.00  0.00     0.068 A 
ATOM     14  C12 NON d   1     -40.651  19.691  -5.240  0.00  0.00     0.037 A 
ATOM     15  C13 NON d   1     -41.948  19.177  -5.112  0.00  0.00     0.018 A 
BRANCH  13  16
ATOM     16  O2  NON d   1     -38.374  19.735  -4.758  0.00  0.00    -0.356 OA
ATOM     17  C11 NON d   1     -38.274  20.556  -5.914  0.00  0.00     0.210 C 
ENDBRANCH  13  16
ENDBRANCH   1  10
TORSDOF 7
ENDMDL
MODEL 5
REMARK VINA RESULT:   -18.361      4.354      8.643
REMARK INTER + INTRA:         -21.064
REMARK INTER:                 -20.449
REMARK INTRA:                  -0.615
REMARK CONF_INDEPENDENT:        2.088
REMARK UNBOUND:                -0.615
REMARK  7 active torsions:
REMARK  status: ('A' for Active; 'I' for Inactive)
REMARK    1  A    between atoms: C2_2  and  C3_3 
REMARK    2  A    between atoms: C3_3  and  C4_4 
REMARK    3  A    between atoms: C4_4  and  S2_6 
REMARK    4  A    between atoms: S2_6  and  C5_7 
REMARK    5  A    between atoms: C5_7  and  C6_8 
REMARK    6  A    between atoms: C6_8  and  C7_10 
REMARK    7  A    between atoms: C10_13  and  O2_14 
ROOT
ATOM      1  C6  NON d   1     -49.379  14.784  -3.653  0.00  0.00     0.169 C 
ATOM      2  O1  NON d   1     -50.093  14.018  -4.297  0.00  0.00    -0.291 OA
ENDROOT
BRANCH   1   3
ATOM      3  C5  NON d   1     -47.859  14.832  -3.783  0.00  0.00     0.163 C 
BRANCH   3   4
ATOM      4  S2  NON d   1     -47.344  15.380  -5.435  0.00  0.00    -0.115 SA
BRANCH   4   5
ATOM      5  C4  NON d   1     -46.224  16.726  -5.138  0.00  0.00     0.045 C 
ATOM      6  S1  NON d   1     -45.948  18.005  -6.185  0.00  0.00    -0.077 SA
BRANCH   5   7
ATOM      7  C3  NON d   1     -45.524  16.570  -3.780  0.00  0.00     0.057 C 
BRANCH   7   8
ATOM      8  C2  NON d   1     -44.144  17.194  -3.548  0.00  0.00     0.001 C 
ATOM      9  C1  NON d   1     -43.115  16.809  -4.627  0.00  0.00     0.005 C 
ENDBRANCH   7   8
ENDBRANCH   5   7
ENDBRANCH   4   5
ENDBRANCH   3   4
ENDBRANCH   1   3
BRANCH   1  10
ATOM     10  C7  NON d   1     -50.042  15.754  -2.722  0.00  0.00     0.011 A 
ATOM     11  C8  NON d   1     -49.271  16.331  -1.701  0.00  0.00     0.018 A 
ATOM     12  C9  NON d   1     -49.830  17.255  -0.809  0.00  0.00     0.037 A 
ATOM     13  C10 NON d   1     -51.169  17.619  -0.933  0.00  0.00     0.068 A 
ATOM     14  C12 NON d   1     -51.944  17.032  -1.937  0.00  0.00     0.037 A 
ATOM     15  C13 NON d   1     -51.391  16.103  -2.827  0.00  0.00     0.018 A 
BRANCH  13  16
ATOM     16  O2  NON d   1     -51.835  18.523  -0.153  0.00  0.00    -0.356 OA
ATOM     17  C11 NON d   1     -53.254  18.429  -0.124  0.00  0.00     0.210 C 
ENDBRANCH  13  16
ENDBRANCH   1  10
TORSDOF 7
ENDMDL
