MODEL 1
REMARK VINA RESULT:   -34.145      0.000      0.000
REMARK INTER + INTRA:         -37.762
REMARK INTER:                 -35.934
REMARK INTRA:                  -1.828
REMARK CONF_INDEPENDENT:        1.790
REMARK UNBOUND:                -1.828
REMARK  6 active torsions:
REMARK  status: ('A' for Active; 'I' for Inactive)
REMARK    1  A    between atoms: C4_6  and  S1_7 
REMARK    2  A    between atoms: S1_7  and  C5_8 
REMARK    3  A    between atoms: C5_8  and  C6_9 
REMARK    4  A    between atoms: C9_12  and  C10_13 
REMARK       I    between atoms: C10_13  and  N3_15 
REMARK    5  A    between atoms: N3_15  and  C11_16 
REMARK    6  A    between atoms: C16_21  and  N4_22 
ROOT
ATOM      1  C6  NON d   1     -40.979  18.902  -4.263  0.00  0.00    -0.048 A 
ATOM      2  C7  NON d   1     -41.373  17.743  -3.564  0.00  0.00     0.009 A 
ATOM      3  C8  NON d   1     -42.679  17.228  -3.663  0.00  0.00     0.017 A 
ATOM      4  C9  NON d   1     -43.625  17.876  -4.460  0.00  0.00     0.032 A 
ATOM      5  C17 NON d   1     -43.242  19.036  -5.148  0.00  0.00     0.017 A 
ATOM      6  C18 NON d   1     -41.945  19.545  -5.043  0.00  0.00     0.009 A 
ENDROOT
BRANCH   4   7
ATOM      7  C10 NON d   1     -45.030  17.404  -4.665  0.00  0.00     0.256 C 
ATOM      8  O1  NON d   1     -45.464  17.426  -5.815  0.00  0.00    -0.267 OA
ATOM      9  N3  NON d   1     -45.732  16.965  -3.559  0.00  0.00    -0.321 N 
ATOM     10  H10 NON d   1     -45.218  16.854  -2.699  0.00  0.00     0.169 HD
BRANCH   9  11
ATOM     11  C11 NON d   1     -47.093  16.543  -3.504  0.00  0.00     0.056 A 
ATOM     12  C12 NON d   1     -47.708  16.658  -2.243  0.00  0.00     0.031 A 
ATOM     13  C13 NON d   1     -49.035  16.270  -2.041  0.00  0.00     0.002 A 
ATOM     14  C14 NON d   1     -49.785  15.794  -3.106  0.00  0.00     0.002 A 
ATOM     15  C15 NON d   1     -49.207  15.711  -4.371  0.00  0.00     0.025 A 
ATOM     16  C16 NON d   1     -47.855  16.044  -4.587  0.00  0.00     0.033 A 
BRANCH  16  17
ATOM     17  N4  NON d   1     -47.439  16.130  -5.933  0.00  0.00    -0.301 NA
ATOM     18  H15 NON d   1     -47.417  17.110  -6.235  0.00  0.00     0.124 HD
ATOM     19  H16 NON d   1     -46.532  15.708  -6.097  0.00  0.00     0.124 HD
ENDBRANCH  16  17
ENDBRANCH   9  11
ENDBRANCH   4   7
BRANCH   1  20
ATOM     20  C5  NON d   1     -39.570  19.436  -4.062  0.00  0.00     0.121 C 
BRANCH  20  21
ATOM     21  S1  NON d   1     -38.397  19.312  -5.454  0.00  0.00    -0.087 SA
BRANCH  21  22
ATOM     22  C4  NON d   1     -39.327  19.984  -6.752  0.00  0.00     0.168 A 
ATOM     23  N2  NON d   1     -39.955  19.287  -7.672  0.00  0.00    -0.235 NA
ATOM     24  C3  NON d   1     -40.516  20.211  -8.515  0.00  0.00     0.136 A 
ATOM     25  C2  NON d   1     -40.237  21.488  -8.094  0.00  0.00     0.112 A 
ATOM     26  N1  NON d   1     -39.467  21.333  -6.970  0.00  0.00    -0.339 N 
ATOM     27  C1  NON d   1     -38.950  22.477  -6.079  0.00  0.00     0.158 C 
ENDBRANCH  21  22
ENDBRANCH  20  21
ENDBRANCH   1  20
TORSDOF 6
ENDMDL
MODEL 2
REMARK VINA RESULT:   -34.047      1.048      1.735
REMARK INTER + INTRA:         -37.721
REMARK INTER:                 -35.837
REMARK INTRA:                  -1.884
REMARK CONF_INDEPENDENT:        1.790
REMARK UNBOUND:                -1.884
REMARK  6 active torsions:
REMARK  status: ('A' for Active; 'I' for Inactive)
REMARK    1  A    between atoms: C4_6  and  S1_7 
REMARK    2  A    between atoms: S1_7  and  C5_8 
REMARK    3  A    between atoms: C5_8  and  C6_9 
REMARK    4  A    between atoms: C9_12  and  C10_13 
REMARK       I    between atoms: C10_13  and  N3_15 
REMARK    5  A    between atoms: N3_15  and  C11_16 
REMARK    6  A    between atoms: C16_21  and  N4_22 
ROOT
ATOM      1  C6  NON d   1     -41.038  18.878  -3.998  0.00  0.00    -0.048 A 
ATOM      2  C7  NON d   1     -41.841  19.569  -4.928  0.00  0.00     0.009 A 
ATOM      3  C8  NON d   1     -43.157  19.163  -5.214  0.00  0.00     0.017 A 
ATOM      4  C9  NON d   1     -43.695  18.042  -4.578  0.00  0.00     0.032 A 
ATOM      5  C17 NON d   1     -42.897  17.344  -3.661  0.00  0.00     0.017 A 
ATOM      6  C18 NON d   1     -41.588  17.749  -3.384  0.00  0.00     0.009 A 
ENDROOT
BRANCH   4   7
ATOM      7  C10 NON d   1     -45.089  17.538  -4.779  0.00  0.00     0.256 C 
ATOM      8  O1  NON d   1     -45.566  17.648  -5.906  0.00  0.00    -0.267 OA
ATOM      9  N3  NON d   1     -45.735  16.975  -3.694  0.00  0.00    -0.321 N 
ATOM     10  H10 NON d   1     -45.186  16.806  -2.865  0.00  0.00     0.169 HD
BRANCH   9  11
ATOM     11  C11 NON d   1     -47.078  16.499  -3.632  0.00  0.00     0.056 A 
ATOM     12  C12 NON d   1     -47.679  16.560  -2.361  0.00  0.00     0.031 A 
ATOM     13  C13 NON d   1     -48.988  16.116  -2.153  0.00  0.00     0.002 A 
ATOM     14  C14 NON d   1     -49.733  15.637  -3.220  0.00  0.00     0.002 A 
ATOM     15  C15 NON d   1     -49.169  15.607  -4.493  0.00  0.00     0.025 A 
ATOM     16  C16 NON d   1     -47.834  15.996  -4.717  0.00  0.00     0.033 A 
BRANCH  16  17
ATOM     17  N4  NON d   1     -47.440  16.130  -6.067  0.00  0.00    -0.301 NA
ATOM     18  H15 NON d   1     -47.442  17.119  -6.339  0.00  0.00     0.124 HD
ATOM     19  H16 NON d   1     -46.526  15.734  -6.255  0.00  0.00     0.124 HD
ENDBRANCH  16  17
ENDBRANCH   9  11
ENDBRANCH   4   7
BRANCH   1  20
ATOM     20  C5  NON d   1     -39.604  19.336  -3.784  0.00  0.00     0.121 C 
BRANCH  20  21
ATOM     21  S1  NON d   1     -38.934  20.612  -4.901  0.00  0.00    -0.087 SA
BRANCH  21  22
ATOM     22  C4  NON d   1     -38.920  19.774  -6.417  0.00  0.00     0.168 A 
ATOM     23  N2  NON d   1     -39.826  19.902  -7.360  0.00  0.00    -0.235 NA
ATOM     24  C3  NON d   1     -39.451  19.034  -8.352  0.00  0.00     0.136 A 
ATOM     25  C2  NON d   1     -38.291  18.379  -8.014  0.00  0.00     0.112 A 
ATOM     26  N1  NON d   1     -37.964  18.853  -6.769  0.00  0.00    -0.339 N 
ATOM     27  C1  NON d   1     -36.699  18.476  -5.977  0.00  0.00     0.158 C 
ENDBRANCH  21  22
ENDBRANCH  20  21
ENDBRANCH   1  20
TORSDOF 6
ENDMDL
MODEL 3
REMARK VINA RESULT:   -34.027      0.972      1.700
REMARK INTER + INTRA:         -37.568
REMARK INTER:                 -35.817
REMARK INTRA:                  -1.751
REMARK CONF_INDEPENDENT:        1.790
REMARK UNBOUND:                -1.751
REMARK  6 active torsions:
REMARK  status: ('A' for Active; 'I' for Inactive)
REMARK    1  A    between atoms: C4_6  and  S1_7 
REMARK    2  A    between atoms: S1_7  and  C5_8 
REMARK    3  A    between atoms: C5_8  and  C6_9 
REMARK    4  A    between atoms: C9_12  and  C10_13 
REMARK       I    between atoms: C10_13  and  N3_15 
REMARK    5  A    between atoms: N3_15  and  C11_16 
REMARK    6  A    between atoms: C16_21  and  N4_22 
ROOT
ATOM      1  C6  NON d   1     -41.146  19.100  -4.080  0.00  0.00    -0.048 A 
ATOM      2  C7  NON d   1     -42.002  19.538  -5.112  0.00  0.00     0.009 A 
ATOM      3  C8  NON d   1     -43.238  18.914  -5.362  0.00  0.00     0.017 A 
ATOM      4  C9  NON d   1     -43.640  17.825  -4.585  0.00  0.00     0.032 A 
ATOM      5  C17 NON d   1     -42.788  17.379  -3.566  0.00  0.00     0.017 A 
ATOM      6  C18 NON d   1     -41.558  17.998  -3.324  0.00  0.00     0.009 A 
ENDROOT
BRANCH   4   7
ATOM      7  C10 NON d   1     -44.943  17.106  -4.738  0.00  0.00     0.256 C 
ATOM      8  O1  NON d   1     -45.140  16.529  -5.804  0.00  0.00    -0.267 OA
ATOM      9  N3  NON d   1     -45.822  17.129  -3.671  0.00  0.00    -0.321 N 
ATOM     10  H10 NON d   1     -45.483  17.507  -2.800  0.00  0.00     0.169 HD
BRANCH   9  11
ATOM     11  C11 NON d   1     -47.137  16.581  -3.617  0.00  0.00     0.056 A 
ATOM     12  C12 NON d   1     -47.761  16.640  -2.357  0.00  0.00     0.031 A 
ATOM     13  C13 NON d   1     -49.047  16.130  -2.156  0.00  0.00     0.002 A 
ATOM     14  C14 NON d   1     -49.747  15.583  -3.221  0.00  0.00     0.002 A 
ATOM     15  C15 NON d   1     -49.162  15.552  -4.484  0.00  0.00     0.025 A 
ATOM     16  C16 NON d   1     -47.848  16.010  -4.699  0.00  0.00     0.033 A 
BRANCH  16  17
ATOM     17  N4  NON d   1     -47.440  16.132  -6.046  0.00  0.00    -0.301 NA
ATOM     18  H15 NON d   1     -46.964  17.029  -6.191  0.00  0.00     0.124 HD
ATOM     19  H16 NON d   1     -46.834  15.378  -6.347  0.00  0.00     0.124 HD
ENDBRANCH  16  17
ENDBRANCH   9  11
ENDBRANCH   4   7
BRANCH   1  20
ATOM     20  C5  NON d   1     -39.799  19.781  -3.907  0.00  0.00     0.121 C 
BRANCH  20  21
ATOM     21  S1  NON d   1     -39.245  20.934  -5.207  0.00  0.00    -0.087 SA
BRANCH  21  22
ATOM     22  C4  NON d   1     -38.824  19.842  -6.484  0.00  0.00     0.168 A 
ATOM     23  N2  NON d   1     -37.789  19.032  -6.476  0.00  0.00    -0.235 NA
ATOM     24  C3  NON d   1     -37.813  18.391  -7.687  0.00  0.00     0.136 A 
ATOM     25  C2  NON d   1     -38.887  18.806  -8.438  0.00  0.00     0.112 A 
ATOM     26  N1  NON d   1     -39.523  19.742  -7.662  0.00  0.00    -0.339 N 
ATOM     27  C1  NON d   1     -40.833  20.462  -8.031  0.00  0.00     0.158 C 
ENDBRANCH  21  22
ENDBRANCH  20  21
ENDBRANCH   1  20
TORSDOF 6
ENDMDL
MODEL 4
REMARK VINA RESULT:   -33.994      0.588      1.242
REMARK INTER + INTRA:         -37.661
REMARK INTER:                 -35.783
REMARK INTRA:                  -1.877
REMARK CONF_INDEPENDENT:        1.790
REMARK UNBOUND:                -1.877
REMARK  6 active torsions:
REMARK  status: ('A' for Active; 'I' for Inactive)
REMARK    1  A    between atoms: C4_6  and  S1_7 
REMARK    2  A    between atoms: S1_7  and  C5_8 
REMARK    3  A    between atoms: C5_8  and  C6_9 
REMARK    4  A    between atoms: C9_12  and  C10_13 
REMARK       I    between atoms: C10_13  and  N3_15 
REMARK    5  A    between atoms: N3_15  and  C11_16 
REMARK    6  A    between atoms: C16_21  and  N4_22 
ROOT
ATOM      1  C6  NON d   1     -41.110  19.131  -4.274  0.00  0.00    -0.048 A 
ATOM      2  C7  NON d   1     -41.531  18.043  -3.483  0.00  0.00     0.009 A 
ATOM      3  C8  NON d   1     -42.824  17.500  -3.599  0.00  0.00     0.017 A 
ATOM      4  C9  NON d   1     -43.731  18.049  -4.509  0.00  0.00     0.032 A 
ATOM      5  C17 NON d   1     -43.321  19.138  -5.290  0.00  0.00     0.017 A 
ATOM      6  C18 NON d   1     -42.037  19.676  -5.168  0.00  0.00     0.009 A 
ENDROOT
BRANCH   4   7
ATOM      7  C10 NON d   1     -45.117  17.536  -4.741  0.00  0.00     0.256 C 
ATOM      8  O1  NON d   1     -45.561  17.626  -5.883  0.00  0.00    -0.267 OA
ATOM      9  N3  NON d   1     -45.791  16.987  -3.667  0.00  0.00    -0.321 N 
ATOM     10  H10 NON d   1     -45.265  16.833  -2.821  0.00  0.00     0.169 HD
BRANCH   9  11
ATOM     11  C11 NON d   1     -47.133  16.506  -3.636  0.00  0.00     0.056 A 
ATOM     12  C12 NON d   1     -47.764  16.565  -2.379  0.00  0.00     0.031 A 
ATOM     13  C13 NON d   1     -49.076  16.117  -2.201  0.00  0.00     0.002 A 
ATOM     14  C14 NON d   1     -49.794  15.635  -3.284  0.00  0.00     0.002 A 
ATOM     15  C15 NON d   1     -49.201  15.606  -4.544  0.00  0.00     0.025 A 
ATOM     16  C16 NON d   1     -47.863  16.000  -4.738  0.00  0.00     0.033 A 
BRANCH  16  17
ATOM     17  N4  NON d   1     -47.438  16.135  -6.078  0.00  0.00    -0.301 NA
ATOM     18  H15 NON d   1     -47.586  17.098  -6.400  0.00  0.00     0.124 HD
ATOM     19  H16 NON d   1     -46.466  15.883  -6.214  0.00  0.00     0.124 HD
ENDBRANCH  16  17
ENDBRANCH   9  11
ENDBRANCH   4   7
BRANCH   1  20
ATOM     20  C5  NON d   1     -39.720  19.705  -4.053  0.00  0.00     0.121 C 
BRANCH  20  21
ATOM     21  S1  NON d   1     -38.464  19.440  -5.348  0.00  0.00    -0.087 SA
BRANCH  21  22
ATOM     22  C4  NON d   1     -39.216  20.187  -6.719  0.00  0.00     0.168 A 
ATOM     23  N2  NON d   1     -39.815  21.356  -6.709  0.00  0.00    -0.235 NA
ATOM     24  C3  NON d   1     -40.298  21.534  -7.979  0.00  0.00     0.136 A 
ATOM     25  C2  NON d   1     -39.977  20.463  -8.777  0.00  0.00     0.112 A 
ATOM     26  N1  NON d   1     -39.292  19.601  -7.959  0.00  0.00    -0.339 N 
ATOM     27  C1  NON d   1     -38.652  18.273  -8.401  0.00  0.00     0.158 C 
ENDBRANCH  21  22
ENDBRANCH  20  21
ENDBRANCH   1  20
TORSDOF 6
ENDMDL
MODEL 5
REMARK VINA RESULT:   -33.973      2.365      3.150
REMARK INTER + INTRA:         -37.301
REMARK INTER:                 -35.763
REMARK INTRA:                  -1.538
REMARK CONF_INDEPENDENT:        1.790
REMARK UNBOUND:                -1.538
REMARK  6 active torsions:
REMARK  status: ('A' for Active; 'I' for Inactive)
REMARK    1  A    between atoms: C4_6  and  S1_7 
REMARK    2  A    between atoms: S1_7  and  C5_8 
REMARK    3  A    between atoms: C5_8  and  C6_9 
REMARK    4  A    between atoms: C9_12  and  C10_13 
REMARK       I    between atoms: C10_13  and  N3_15 
REMARK    5  A    between atoms: N3_15  and  C11_16 
REMARK    6  A    between atoms: C16_21  and  N4_22 
ROOT
ATOM      1  C6  NON d   1     -41.062  18.940  -3.898  0.00  0.00    -0.048 A 
ATOM      2  C7  NON d   1     -41.885  19.550  -4.866  0.00  0.00     0.009 A 
ATOM      3  C8  NON d   1     -43.178  19.072  -5.146  0.00  0.00     0.017 A 
ATOM      4  C9  NON d   1     -43.671  17.957  -4.463  0.00  0.00     0.032 A 
ATOM      5  C17 NON d   1     -42.853  17.339  -3.508  0.00  0.00     0.017 A 
ATOM      6  C18 NON d   1     -41.567  17.816  -3.237  0.00  0.00     0.009 A 
ENDROOT
BRANCH   4   7
ATOM      7  C10 NON d   1     -45.039  17.381  -4.654  0.00  0.00     0.256 C 
ATOM      8  O1  NON d   1     -45.415  17.207  -5.810  0.00  0.00    -0.267 OA
ATOM      9  N3  NON d   1     -45.773  17.073  -3.524  0.00  0.00    -0.321 N 
ATOM     10  H10 NON d   1     -45.297  17.121  -2.636  0.00  0.00     0.169 HD
BRANCH   9  11
ATOM     11  C11 NON d   1     -47.113  16.587  -3.463  0.00  0.00     0.056 A 
ATOM     12  C12 NON d   1     -47.731  16.688  -2.202  0.00  0.00     0.031 A 
ATOM     13  C13 NON d   1     -49.039  16.240  -1.995  0.00  0.00     0.002 A 
ATOM     14  C14 NON d   1     -49.765  15.717  -3.054  0.00  0.00     0.002 A 
ATOM     15  C15 NON d   1     -49.185  15.647  -4.318  0.00  0.00     0.025 A 
ATOM     16  C16 NON d   1     -47.850  16.040  -4.539  0.00  0.00     0.033 A 
BRANCH  16  17
ATOM     17  N4  NON d   1     -47.440  16.130  -5.887  0.00  0.00    -0.301 NA
ATOM     18  H15 NON d   1     -47.129  17.085  -6.099  0.00  0.00     0.124 HD
ATOM     19  H16 NON d   1     -46.700  15.477  -6.121  0.00  0.00     0.124 HD
ENDBRANCH  16  17
ENDBRANCH   9  11
ENDBRANCH   4   7
BRANCH   1  20
ATOM     20  C5  NON d   1     -39.653  19.473  -3.691  0.00  0.00     0.121 C 
BRANCH  20  21
ATOM     21  S1  NON d   1     -39.298  20.391  -2.156  0.00  0.00    -0.087 SA
BRANCH  21  22
ATOM     22  C4  NON d   1     -40.176  21.862  -2.420  0.00  0.00     0.168 A 
ATOM     23  N2  NON d   1     -40.726  22.220  -3.558  0.00  0.00    -0.235 NA
ATOM     24  C3  NON d   1     -41.271  23.457  -3.331  0.00  0.00     0.136 A 
ATOM     25  C2  NON d   1     -41.061  23.851  -2.031  0.00  0.00     0.112 A 
ATOM     26  N1  NON d   1     -40.350  22.827  -1.459  0.00  0.00    -0.339 N 
ATOM     27  C1  NON d   1     -39.925  22.756   0.019  0.00  0.00     0.158 C 
ENDBRANCH  21  22
ENDBRANCH  20  21
ENDBRANCH   1  20
TORSDOF 6
ENDMDL
MODEL 6
REMARK VINA RESULT:   -33.798      1.969      2.600
REMARK INTER + INTRA:         -36.384
REMARK INTER:                 -35.587
REMARK INTRA:                  -0.796
REMARK CONF_INDEPENDENT:        1.790
REMARK UNBOUND:                -0.796
REMARK  6 active torsions:
REMARK  status: ('A' for Active; 'I' for Inactive)
REMARK    1  A    between atoms: C4_6  and  S1_7 
REMARK    2  A    between atoms: S1_7  and  C5_8 
REMARK    3  A    between atoms: C5_8  and  C6_9 
REMARK    4  A    between atoms: C9_12  and  C10_13 
REMARK       I    between atoms: C10_13  and  N3_15 
REMARK    5  A    between atoms: N3_15  and  C11_16 
REMARK    6  A    between atoms: C16_21  and  N4_22 
ROOT
ATOM      1  C6  NON d   1     -41.183  19.233  -3.935  0.00  0.00    -0.048 A 
ATOM      2  C7  NON d   1     -41.984  19.676  -5.007  0.00  0.00     0.009 A 
ATOM      3  C8  NON d   1     -43.243  19.107  -5.273  0.00  0.00     0.017 A 
ATOM      4  C9  NON d   1     -43.722  18.067  -4.473  0.00  0.00     0.032 A 
ATOM      5  C17 NON d   1     -42.924  17.615  -3.413  0.00  0.00     0.017 A 
ATOM      6  C18 NON d   1     -41.672  18.181  -3.155  0.00  0.00     0.009 A 
ENDROOT
BRANCH   4   7
ATOM      7  C10 NON d   1     -45.055  17.409  -4.641  0.00  0.00     0.256 C 
ATOM      8  O1  NON d   1     -45.366  17.062  -5.778  0.00  0.00    -0.267 OA
ATOM      9  N3  NON d   1     -45.832  17.225  -3.513  0.00  0.00    -0.321 N 
ATOM     10  H10 NON d   1     -45.404  17.415  -2.621  0.00  0.00     0.169 HD
BRANCH   9  11
ATOM     11  C11 NON d   1     -47.153  16.692  -3.445  0.00  0.00     0.056 A 
ATOM     12  C12 NON d   1     -47.787  16.818  -2.194  0.00  0.00     0.031 A 
ATOM     13  C13 NON d   1     -49.080  16.329  -1.981  0.00  0.00     0.002 A 
ATOM     14  C14 NON d   1     -49.776  15.740  -3.024  0.00  0.00     0.002 A 
ATOM     15  C15 NON d   1     -49.181  15.643  -4.280  0.00  0.00     0.025 A 
ATOM     16  C16 NON d   1     -47.860  16.078  -4.505  0.00  0.00     0.033 A 
BRANCH  16  17
ATOM     17  N4  NON d   1     -47.440  16.132  -5.852  0.00  0.00    -0.301 NA
ATOM     18  H15 NON d   1     -48.248  16.040  -6.478  0.00  0.00     0.124 HD
ATOM     19  H16 NON d   1     -46.937  16.982  -6.077  0.00  0.00     0.124 HD
ENDBRANCH  16  17
ENDBRANCH   9  11
ENDBRANCH   4   7
BRANCH   1  20
ATOM     20  C5  NON d   1     -39.808  19.852  -3.743  0.00  0.00     0.121 C 
BRANCH  20  21
ATOM     21  S1  NON d   1     -39.271  21.135  -4.922  0.00  0.00    -0.087 SA
BRANCH  21  22
ATOM     22  C4  NON d   1     -39.925  22.567  -4.198  0.00  0.00     0.168 A 
ATOM     23  N2  NON d   1     -40.901  22.592  -3.319  0.00  0.00    -0.235 NA
ATOM     24  C3  NON d   1     -41.124  23.918  -3.052  0.00  0.00     0.136 A 
ATOM     25  C2  NON d   1     -40.261  24.711  -3.769  0.00  0.00     0.112 A 
ATOM     26  N1  NON d   1     -39.503  23.837  -4.507  0.00  0.00    -0.339 N 
ATOM     27  C1  NON d   1     -38.336  24.231  -5.430  0.00  0.00     0.158 C 
ENDBRANCH  21  22
ENDBRANCH  20  21
ENDBRANCH   1  20
TORSDOF 6
ENDMDL
MODEL 7
REMARK VINA RESULT:   -32.823      4.065      8.844
REMARK INTER + INTRA:         -36.327
REMARK INTER:                 -34.612
REMARK INTRA:                  -1.715
REMARK CONF_INDEPENDENT:        1.790
REMARK UNBOUND:                -1.715
REMARK  6 active torsions:
REMARK  status: ('A' for Active; 'I' for Inactive)
REMARK    1  A    between atoms: C4_6  and  S1_7 
REMARK    2  A    between atoms: S1_7  and  C5_8 
REMARK    3  A    between atoms: C5_8  and  C6_9 
REMARK    4  A    between atoms: C9_12  and  C10_13 
REMARK       I    between atoms: C10_13  and  N3_15 
REMARK    5  A    between atoms: N3_15  and  C11_16 
REMARK    6  A    between atoms: C16_21  and  N4_22 
ROOT
ATOM      1  C6  NON d   1     -42.878  17.699  -4.401  0.00  0.00    -0.048 A 
ATOM      2  C7  NON d   1     -42.260  18.763  -5.089  0.00  0.00     0.009 A 
ATOM      3  C8  NON d   1     -41.255  19.547  -4.491  0.00  0.00     0.017 A 
ATOM      4  C9  NON d   1     -40.855  19.284  -3.179  0.00  0.00     0.032 A 
ATOM      5  C17 NON d   1     -41.474  18.235  -2.486  0.00  0.00     0.017 A 
ATOM      6  C18 NON d   1     -42.475  17.462  -3.083  0.00  0.00     0.009 A 
ENDROOT
BRANCH   4   7
ATOM      7  C10 NON d   1     -39.778  20.028  -2.454  0.00  0.00     0.256 C 
ATOM      8  O1  NON d   1     -38.645  19.967  -2.924  0.00  0.00    -0.267 OA
ATOM      9  N3  NON d   1     -40.133  20.738  -1.322  0.00  0.00    -0.321 N 
ATOM     10  H10 NON d   1     -41.117  20.833  -1.125  0.00  0.00     0.169 HD
BRANCH   9  11
ATOM     11  C11 NON d   1     -39.271  21.454  -0.440  0.00  0.00     0.056 A 
ATOM     12  C12 NON d   1     -39.903  22.426   0.359  0.00  0.00     0.031 A 
ATOM     13  C13 NON d   1     -39.178  23.211   1.261  0.00  0.00     0.002 A 
ATOM     14  C14 NON d   1     -37.814  23.012   1.408  0.00  0.00     0.002 A 
ATOM     15  C15 NON d   1     -37.178  22.026   0.656  0.00  0.00     0.025 A 
ATOM     16  C16 NON d   1     -37.876  21.262  -0.299  0.00  0.00     0.033 A 
BRANCH  16  17
ATOM     17  N4  NON d   1     -37.186  20.155  -0.840  0.00  0.00    -0.301 NA
ATOM     18  H15 NON d   1     -37.799  19.332  -0.861  0.00  0.00     0.124 HD
ATOM     19  H16 NON d   1     -36.827  20.328  -1.772  0.00  0.00     0.124 HD
ENDBRANCH  16  17
ENDBRANCH   9  11
ENDBRANCH   4   7
BRANCH   1  20
ATOM     20  C5  NON d   1     -43.998  16.935  -5.087  0.00  0.00     0.121 C 
BRANCH  20  21
ATOM     21  S1  NON d   1     -45.422  17.882  -5.721  0.00  0.00    -0.087 SA
BRANCH  21  22
ATOM     22  C4  NON d   1     -46.743  16.836  -5.314  0.00  0.00     0.168 A 
ATOM     23  N2  NON d   1     -47.441  16.131  -6.175  0.00  0.00    -0.235 NA
ATOM     24  C3  NON d   1     -48.402  15.492  -5.435  0.00  0.00     0.136 A 
ATOM     25  C2  NON d   1     -48.277  15.802  -4.102  0.00  0.00     0.112 A 
ATOM     26  N1  NON d   1     -47.218  16.671  -4.036  0.00  0.00    -0.339 N 
ATOM     27  C1  NON d   1     -46.630  17.261  -2.741  0.00  0.00     0.158 C 
ENDBRANCH  21  22
ENDBRANCH  20  21
ENDBRANCH   1  20
TORSDOF 6
ENDMDL
MODEL 8
REMARK VINA RESULT:   -32.711      2.131      3.231
REMARK INTER + INTRA:         -35.534
REMARK INTER:                 -34.501
REMARK INTRA:                  -1.033
REMARK CONF_INDEPENDENT:        1.790
REMARK UNBOUND:                -1.033
REMARK  6 active torsions:
REMARK  status: ('A' for Active; 'I' for Inactive)
REMARK    1  A    between atoms: C4_6  and  S1_7 
REMARK    2  A    between atoms: S1_7  and  C5_8 
REMARK    3  A    between atoms: C5_8  and  C6_9 
REMARK    4  A    between atoms: C9_12  and  C10_13 
REMARK       I    between atoms: C10_13  and  N3_15 
REMARK    5  A    between atoms: N3_15  and  C11_16 
REMARK    6  A    between atoms: C16_21  and  N4_22 
ROOT
ATOM      1  C6  NON d   1     -41.098  19.294  -4.980  0.00  0.00    -0.048 A 
ATOM      2  C7  NON d   1     -41.130  17.997  -4.429  0.00  0.00     0.009 A 
ATOM      3  C8  NON d   1     -42.321  17.250  -4.364  0.00  0.00     0.017 A 
ATOM      4  C9  NON d   1     -43.514  17.798  -4.841  0.00  0.00     0.032 A 
ATOM      5  C17 NON d   1     -43.490  19.092  -5.378  0.00  0.00     0.017 A 
ATOM      6  C18 NON d   1     -42.305  19.831  -5.438  0.00  0.00     0.009 A 
ENDROOT
BRANCH   4   7
ATOM      7  C10 NON d   1     -44.830  17.087  -4.852  0.00  0.00     0.256 C 
ATOM      8  O1  NON d   1     -45.060  16.353  -5.810  0.00  0.00    -0.267 OA
ATOM      9  N3  NON d   1     -45.685  17.293  -3.785  0.00  0.00    -0.321 N 
ATOM     10  H10 NON d   1     -45.320  17.797  -2.992  0.00  0.00     0.169 HD
BRANCH   9  11
ATOM     11  C11 NON d   1     -47.006  16.783  -3.618  0.00  0.00     0.056 A 
ATOM     12  C12 NON d   1     -47.564  16.969  -2.340  0.00  0.00     0.031 A 
ATOM     13  C13 NON d   1     -48.848  16.509  -2.032  0.00  0.00     0.002 A 
ATOM     14  C14 NON d   1     -49.612  15.888  -3.008  0.00  0.00     0.002 A 
ATOM     15  C15 NON d   1     -49.092  15.732  -4.291  0.00  0.00     0.025 A 
ATOM     16  C16 NON d   1     -47.781  16.137  -4.610  0.00  0.00     0.033 A 
BRANCH  16  17
ATOM     17  N4  NON d   1     -47.440  16.130  -5.980  0.00  0.00    -0.301 NA
ATOM     18  H15 NON d   1     -48.266  15.914  -6.549  0.00  0.00     0.124 HD
ATOM     19  H16 NON d   1     -47.037  17.006  -6.293  0.00  0.00     0.124 HD
ENDBRANCH  16  17
ENDBRANCH   9  11
ENDBRANCH   4   7
BRANCH   1  20
ATOM     20  C5  NON d   1     -39.788  20.066  -4.963  0.00  0.00     0.121 C 
BRANCH  20  21
ATOM     21  S1  NON d   1     -38.233  19.117  -4.865  0.00  0.00    -0.087 SA
BRANCH  21  22
ATOM     22  C4  NON d   1     -37.599  19.648  -3.342  0.00  0.00     0.168 A 
ATOM     23  N2  NON d   1     -37.603  20.890  -2.913  0.00  0.00    -0.235 NA
ATOM     24  C3  NON d   1     -36.971  20.862  -1.697  0.00  0.00     0.136 A 
ATOM     25  C2  NON d   1     -36.589  19.582  -1.376  0.00  0.00     0.112 A 
ATOM     26  N1  NON d   1     -36.987  18.813  -2.440  0.00  0.00    -0.339 N 
ATOM     27  C1  NON d   1     -36.848  17.283  -2.534  0.00  0.00     0.158 C 
ENDBRANCH  21  22
ENDBRANCH  20  21
ENDBRANCH   1  20
TORSDOF 6
ENDMDL
MODEL 9
REMARK VINA RESULT:   -32.392      0.909      1.637
REMARK INTER + INTRA:         -36.101
REMARK INTER:                 -34.182
REMARK INTRA:                  -1.919
REMARK CONF_INDEPENDENT:        1.790
REMARK UNBOUND:                -1.919
REMARK  6 active torsions:
REMARK  status: ('A' for Active; 'I' for Inactive)
REMARK    1  A    between atoms: C4_6  and  S1_7 
REMARK    2  A    between atoms: S1_7  and  C5_8 
REMARK    3  A    between atoms: C5_8  and  C6_9 
REMARK    4  A    between atoms: C9_12  and  C10_13 
REMARK       I    between atoms: C10_13  and  N3_15 
REMARK    5  A    between atoms: N3_15  and  C11_16 
REMARK    6  A    between atoms: C16_21  and  N4_22 
ROOT
ATOM      1  C6  NON d   1     -40.879  18.438  -4.009  0.00  0.00    -0.048 A 
ATOM      2  C7  NON d   1     -41.459  17.426  -3.218  0.00  0.00     0.009 A 
ATOM      3  C8  NON d   1     -42.807  17.051  -3.368  0.00  0.00     0.017 A 
ATOM      4  C9  NON d   1     -43.609  17.696  -4.312  0.00  0.00     0.032 A 
ATOM      5  C17 NON d   1     -43.040  18.711  -5.093  0.00  0.00     0.017 A 
ATOM      6  C18 NON d   1     -41.702  19.082  -4.938  0.00  0.00     0.009 A 
ENDROOT
BRANCH   4   7
ATOM      7  C10 NON d   1     -45.042  17.361  -4.581  0.00  0.00     0.256 C 
ATOM      8  O1  NON d   1     -45.483  17.645  -5.692  0.00  0.00    -0.267 OA
ATOM      9  N3  NON d   1     -45.762  16.746  -3.573  0.00  0.00    -0.321 N 
ATOM     10  H10 NON d   1     -45.249  16.430  -2.765  0.00  0.00     0.169 HD
BRANCH   9  11
ATOM     11  C11 NON d   1     -47.146  16.404  -3.579  0.00  0.00     0.056 A 
ATOM     12  C12 NON d   1     -47.792  16.495  -2.331  0.00  0.00     0.031 A 
ATOM     13  C13 NON d   1     -49.146  16.178  -2.187  0.00  0.00     0.002 A 
ATOM     14  C14 NON d   1     -49.888  15.799  -3.296  0.00  0.00     0.002 A 
ATOM     15  C15 NON d   1     -49.277  15.743  -4.546  0.00  0.00     0.025 A 
ATOM     16  C16 NON d   1     -47.902  16.004  -4.706  0.00  0.00     0.033 A 
BRANCH  16  17
ATOM     17  N4  NON d   1     -47.440  16.129  -6.035  0.00  0.00    -0.301 NA
ATOM     18  H15 NON d   1     -47.418  17.118  -6.310  0.00  0.00     0.124 HD
ATOM     19  H16 NON d   1     -46.522  15.723  -6.176  0.00  0.00     0.124 HD
ENDBRANCH  16  17
ENDBRANCH   9  11
ENDBRANCH   4   7
BRANCH   1  20
ATOM     20  C5  NON d   1     -39.434  18.833  -3.751  0.00  0.00     0.121 C 
BRANCH  20  21
ATOM     21  S1  NON d   1     -38.483  19.560  -5.127  0.00  0.00    -0.087 SA
BRANCH  21  22
ATOM     22  C4  NON d   1     -39.078  21.187  -5.139  0.00  0.00     0.168 A 
ATOM     23  N2  NON d   1     -39.196  21.956  -4.080  0.00  0.00    -0.235 NA
ATOM     24  C3  NON d   1     -39.741  23.129  -4.535  0.00  0.00     0.136 A 
ATOM     25  C2  NON d   1     -39.943  23.078  -5.893  0.00  0.00     0.112 A 
ATOM     26  N1  NON d   1     -39.524  21.827  -6.269  0.00  0.00    -0.339 N 
ATOM     27  C1  NON d   1     -39.483  21.299  -7.715  0.00  0.00     0.158 C 
ENDBRANCH  21  22
ENDBRANCH  20  21
ENDBRANCH   1  20
TORSDOF 6
ENDMDL
