MODEL 1
REMARK VINA RESULT:   -11.361      0.000      0.000
REMARK INTER + INTRA:         -14.395
REMARK INTER:                 -13.151
REMARK INTRA:                  -1.244
REMARK CONF_INDEPENDENT:        1.790
REMARK UNBOUND:                -1.244
REMARK  6 active torsions:
REMARK  status: ('A' for Active; 'I' for Inactive)
REMARK    1  A    between atoms: N1_1  and  C1_2 
REMARK    2  A    between atoms: C4_5  and  C5_6 
REMARK    3  A    between atoms: C10_12  and  N2_13 
REMARK       I    between atoms: N2_13  and  C11_14 
REMARK    4  A    between atoms: C11_14  and  C12_16 
REMARK    5  A    between atoms: C15_19  and  C16_20 
REMARK    6  A    between atoms: C16_20  and  N3_21 
ROOT
ATOM      1  C12 non d   1     -44.267  17.843  -4.275  0.00  0.00     0.018 A 
ATOM      2  C13 non d   1     -43.289  17.247  -3.244  0.00  0.00     0.016 A 
ATOM      3  C14 non d   1     -41.867  17.820  -3.112  0.00  0.00     0.010 A 
ATOM      4  C15 non d   1     -41.421  18.989  -4.011  0.00  0.00    -0.041 A 
ATOM      5  C25 non d   1     -42.398  19.585  -5.041  0.00  0.00     0.010 A 
ATOM      6  C26 non d   1     -43.821  19.011  -5.173  0.00  0.00     0.016 A 
ENDROOT
BRANCH   1   7
ATOM      7  C11 non d   1     -45.691  17.269  -4.407  0.00  0.00     0.189 C 
ATOM      8  N2  non d   1     -46.534  17.005  -3.147  0.00  0.00    -0.332 N 
ATOM      9  H9  non d   1     -45.955  17.313  -1.754  0.00  0.00     0.168 HD
ATOM     10  O1  non d   1     -46.270  16.961  -5.800  0.00  0.00    -0.171 OA
BRANCH   8  11
ATOM     11  C10 non d   1     -47.957  16.432  -3.279  0.00  0.00     0.061 A 
ATOM     12  C9  non d   1     -49.113  17.046  -2.468  0.00  0.00     0.044 A 
ATOM     13  C4  non d   1     -50.537  16.473  -2.600  0.00  0.00    -0.017 A 
ATOM     14  C3  non d   1     -50.804  15.286  -3.543  0.00  0.00     0.015 A 
ATOM     15  C2  non d   1     -49.648  14.672  -4.354  0.00  0.00     0.032 A 
ATOM     16  C1  non d   1     -48.225  15.244  -4.223  0.00  0.00     0.052 A 
BRANCH  13  17
ATOM     17  C5  non d   1     -51.692  17.087  -1.789  0.00  0.00     0.015 A 
ATOM     18  C6  non d   1     -51.548  18.005  -0.560  0.00  0.00     0.020 A 
ATOM     19  C7  non d   1     -52.962  18.377  -0.076  0.00  0.00     0.008 A 
ATOM     20  C8  non d   1     -53.980  17.689  -1.004  0.00  0.00     0.050 A 
ATOM     21  S1  non d   1     -53.195  16.892  -2.063  0.00  0.00    -0.101 SA
ENDBRANCH  13  17
BRANCH  16  22
ATOM     22  N1  non d   1     -47.069  14.630  -5.034  0.00  0.00    -0.397 N 
ATOM     23  H1  non d   1     -46.489  15.387  -6.242  0.00  0.00     0.156 HD
ATOM     24  H2  non d   1     -46.494  13.258  -4.636  0.00  0.00     0.156 HD
ENDBRANCH  16  22
ENDBRANCH   8  11
ENDBRANCH   1   7
BRANCH   4  25
ATOM     25  C16 non d   1     -39.997  19.562  -3.878  0.00  0.00     0.155 C 
BRANCH  25  26
ATOM     26  N3  non d   1     -39.637  20.459  -2.680  0.00  0.00    -0.408 N 
ATOM     27  C17 non d   1     -38.608  21.593  -2.848  0.00  0.00     0.119 A 
ATOM     28  C18 non d   1     -38.248  22.490  -1.649  0.00  0.00     0.058 A 
ATOM     29  C19 non d   1     -38.916  22.254  -0.282  0.00  0.00     0.129 A 
ATOM     30  C20 non d   1     -37.912  23.421  -0.295  0.00  0.00     0.040 A 
ATOM     31  N4  non d   1     -39.497  22.141   1.139  0.00  0.00    -0.066 N 
ATOM     32  C23 non d   1     -39.945  21.120  -0.114  0.00  0.00     0.058 A 
ATOM     33  C21 non d   1     -37.872  24.030   1.119  0.00  0.00     0.030 A 
ATOM     34  C22 non d   1     -38.852  23.239   2.006  0.00  0.00     0.233 A 
ATOM     35  H24 non d   1     -40.387  21.543   2.246  0.00  0.00     0.278 HD
ATOM     36  H25 non d   1     -40.426  20.946   0.857  0.00  0.00     0.278 HD
ATOM     37  C24 non d   1     -40.306  20.223  -1.312  0.00  0.00     0.119 A 
ENDBRANCH  25  26
ENDBRANCH   4  25
TORSDOF 6
ENDMDL
MODEL 2
REMARK VINA RESULT:   -11.146      3.168      4.879
REMARK INTER + INTRA:         -14.120
REMARK INTER:                 -12.936
REMARK INTRA:                  -1.184
REMARK CONF_INDEPENDENT:        1.790
REMARK UNBOUND:                -1.184
REMARK  6 active torsions:
REMARK  status: ('A' for Active; 'I' for Inactive)
REMARK    1  A    between atoms: N1_1  and  C1_2 
REMARK    2  A    between atoms: C4_5  and  C5_6 
REMARK    3  A    between atoms: C10_12  and  N2_13 
REMARK       I    between atoms: N2_13  and  C11_14 
REMARK    4  A    between atoms: C11_14  and  C12_16 
REMARK    5  A    between atoms: C15_19  and  C16_20 
REMARK    6  A    between atoms: C16_20  and  N3_21 
ROOT
ATOM      1  C12 non d   1     -44.711  17.653  -4.396  0.00  0.00     0.018 A 
ATOM      2  C13 non d   1     -43.580  17.075  -3.524  0.00  0.00     0.016 A 
ATOM      3  C14 non d   1     -42.179  17.713  -3.559  0.00  0.00     0.010 A 
ATOM      4  C15 non d   1     -41.908  18.928  -4.466  0.00  0.00    -0.041 A 
ATOM      5  C25 non d   1     -43.038  19.505  -5.338  0.00  0.00     0.010 A 
ATOM      6  C26 non d   1     -44.440  18.867  -5.303  0.00  0.00     0.016 A 
ENDROOT
BRANCH   1   7
ATOM      7  C11 non d   1     -46.112  17.015  -4.362  0.00  0.00     0.189 C 
ATOM      8  N2  non d   1     -46.934  17.034  -3.060  0.00  0.00    -0.332 N 
ATOM      9  H9  non d   1     -46.356  17.691  -1.793  0.00  0.00     0.168 HD
ATOM     10  O1  non d   1     -46.691  16.358  -5.629  0.00  0.00    -0.171 OA
BRANCH   8  11
ATOM     11  C10 non d   1     -48.336  16.396  -3.025  0.00  0.00     0.061 A 
ATOM     12  C9  non d   1     -49.507  17.147  -2.366  0.00  0.00     0.044 A 
ATOM     13  C4  non d   1     -50.909  16.509  -2.332  0.00  0.00    -0.017 A 
ATOM     14  C3  non d   1     -51.138  15.121  -2.956  0.00  0.00     0.015 A 
ATOM     15  C2  non d   1     -49.966  14.369  -3.615  0.00  0.00     0.032 A 
ATOM     16  C1  non d   1     -48.566  15.007  -3.650  0.00  0.00     0.052 A 
BRANCH  13  17
ATOM     17  C5  non d   1     -52.081  17.261  -1.673  0.00  0.00     0.015 A 
ATOM     18  C6  non d   1     -51.972  18.270  -0.515  0.00  0.00     0.020 A 
ATOM     19  C7  non d   1     -53.391  18.768  -0.182  0.00  0.00     0.008 A 
ATOM     20  C8  non d   1     -54.377  18.066  -1.135  0.00  0.00     0.050 A 
ATOM     21  S1  non d   1     -53.567  17.134  -2.056  0.00  0.00    -0.101 SA
ENDBRANCH  13  17
BRANCH  16  22
ATOM     22  N1  non d   1     -47.394  14.255  -4.309  0.00  0.00    -0.397 N 
ATOM     23  H1  non d   1     -46.722  13.080  -3.575  0.00  0.00     0.156 HD
ATOM     24  H2  non d   1     -46.894  14.679  -5.702  0.00  0.00     0.156 HD
ENDBRANCH  16  22
ENDBRANCH   8  11
ENDBRANCH   1   7
BRANCH   4  25
ATOM     25  C16 non d   1     -40.507  19.566  -4.501  0.00  0.00     0.155 C 
BRANCH  25  26
ATOM     26  N3  non d   1     -39.854  19.918  -5.851  0.00  0.00    -0.408 N 
ATOM     27  C17 non d   1     -38.402  19.492  -6.138  0.00  0.00     0.119 A 
ATOM     28  C18 non d   1     -37.749  19.844  -7.488  0.00  0.00     0.058 A 
ATOM     29  C19 non d   1     -38.549  20.621  -8.551  0.00  0.00     0.129 A 
ATOM     30  C20 non d   1     -37.114  20.266  -8.982  0.00  0.00     0.040 A 
ATOM     31  N4  non d   1     -39.217  21.389  -9.706  0.00  0.00    -0.066 N 
ATOM     32  C23 non d   1     -40.001  21.046  -8.264  0.00  0.00     0.058 A 
ATOM     33  C21 non d   1     -36.895  20.815 -10.404  0.00  0.00     0.030 A 
ATOM     34  C22 non d   1     -38.195  21.509 -10.852  0.00  0.00     0.233 A 
ATOM     35  H24 non d   1     -40.363  22.139 -10.413  0.00  0.00     0.278 HD
ATOM     36  H25 non d   1     -40.577  21.600  -9.016  0.00  0.00     0.278 HD
ATOM     37  C24 non d   1     -40.654  20.695  -6.914  0.00  0.00     0.119 A 
ENDBRANCH  25  26
ENDBRANCH   4  25
TORSDOF 6
ENDMDL
MODEL 3
REMARK VINA RESULT:   -10.828      2.869      4.374
REMARK INTER + INTRA:         -13.797
REMARK INTER:                 -12.618
REMARK INTRA:                  -1.179
REMARK CONF_INDEPENDENT:        1.790
REMARK UNBOUND:                -1.179
REMARK  6 active torsions:
REMARK  status: ('A' for Active; 'I' for Inactive)
REMARK    1  A    between atoms: N1_1  and  C1_2 
REMARK    2  A    between atoms: C4_5  and  C5_6 
REMARK    3  A    between atoms: C10_12  and  N2_13 
REMARK       I    between atoms: N2_13  and  C11_14 
REMARK    4  A    between atoms: C11_14  and  C12_16 
REMARK    5  A    between atoms: C15_19  and  C16_20 
REMARK    6  A    between atoms: C16_20  and  N3_21 
ROOT
ATOM      1  C12 non d   1     -44.723  17.627  -4.366  0.00  0.00     0.018 A 
ATOM      2  C13 non d   1     -44.459  18.873  -5.231  0.00  0.00     0.016 A 
ATOM      3  C14 non d   1     -43.057  19.509  -5.258  0.00  0.00     0.010 A 
ATOM      4  C15 non d   1     -41.919  18.898  -4.420  0.00  0.00    -0.041 A 
ATOM      5  C25 non d   1     -42.182  17.652  -3.555  0.00  0.00     0.010 A 
ATOM      6  C26 non d   1     -43.585  17.016  -3.528  0.00  0.00     0.016 A 
ENDROOT
BRANCH   1   7
ATOM      7  C11 non d   1     -46.126  16.991  -4.340  0.00  0.00     0.189 C 
ATOM      8  N2  non d   1     -46.963  17.027  -3.048  0.00  0.00    -0.332 N 
ATOM      9  H9  non d   1     -46.397  17.698  -1.782  0.00  0.00     0.168 HD
ATOM     10  O1  non d   1     -46.691  16.320  -5.605  0.00  0.00    -0.171 OA
BRANCH   8  11
ATOM     11  C10 non d   1     -48.365  16.391  -3.021  0.00  0.00     0.061 A 
ATOM     12  C9  non d   1     -49.538  17.141  -2.362  0.00  0.00     0.044 A 
ATOM     13  C4  non d   1     -50.941  16.505  -2.335  0.00  0.00    -0.017 A 
ATOM     14  C3  non d   1     -51.170  15.120  -2.967  0.00  0.00     0.015 A 
ATOM     15  C2  non d   1     -49.997  14.370  -3.625  0.00  0.00     0.032 A 
ATOM     16  C1  non d   1     -48.595  15.005  -3.653  0.00  0.00     0.052 A 
BRANCH  13  17
ATOM     17  C5  non d   1     -52.113  17.255  -1.677  0.00  0.00     0.015 A 
ATOM     18  C6  non d   1     -52.008  18.253  -0.509  0.00  0.00     0.020 A 
ATOM     19  C7  non d   1     -53.427  18.754  -0.181  0.00  0.00     0.008 A 
ATOM     20  C8  non d   1     -54.409  18.065  -1.146  0.00  0.00     0.050 A 
ATOM     21  S1  non d   1     -53.597  17.139  -2.071  0.00  0.00    -0.101 SA
ENDBRANCH  13  17
BRANCH  16  22
ATOM     22  N1  non d   1     -47.422  14.255  -4.311  0.00  0.00    -0.397 N 
ATOM     23  H1  non d   1     -46.948  14.653  -5.720  0.00  0.00     0.156 HD
ATOM     24  H2  non d   1     -46.724  13.106  -3.560  0.00  0.00     0.156 HD
ENDBRANCH  16  22
ENDBRANCH   8  11
ENDBRANCH   1   7
BRANCH   4  25
ATOM     25  C16 non d   1     -40.516  19.533  -4.447  0.00  0.00     0.155 C 
BRANCH  25  26
ATOM     26  N3  non d   1     -40.178  20.608  -5.496  0.00  0.00    -0.408 N 
ATOM     27  C17 non d   1     -39.424  21.884  -5.077  0.00  0.00     0.119 A 
ATOM     28  C18 non d   1     -39.085  22.959  -6.126  0.00  0.00     0.058 A 
ATOM     29  C19 non d   1     -39.502  22.758  -7.596  0.00  0.00     0.129 A 
ATOM     30  C20 non d   1     -38.756  24.079  -7.330  0.00  0.00     0.040 A 
ATOM     31  N4  non d   1     -39.850  22.700  -9.095  0.00  0.00    -0.066 N 
ATOM     32  C23 non d   1     -40.256  21.482  -8.015  0.00  0.00     0.058 A 
ATOM     33  C21 non d   1     -38.644  24.838  -8.666  0.00  0.00     0.030 A 
ATOM     34  C22 non d   1     -39.319  23.986  -9.756  0.00  0.00     0.233 A 
ATOM     35  H24 non d   1     -40.445  22.077 -10.372  0.00  0.00     0.278 HD
ATOM     36  H25 non d   1     -40.555  21.333  -9.060  0.00  0.00     0.278 HD
ATOM     37  C24 non d   1     -40.594  20.407  -6.966  0.00  0.00     0.119 A 
ENDBRANCH  25  26
ENDBRANCH   4  25
TORSDOF 6
ENDMDL
MODEL 4
REMARK VINA RESULT:    -9.977      1.649      2.010
REMARK INTER + INTRA:         -12.949
REMARK INTER:                 -11.767
REMARK INTRA:                  -1.183
REMARK CONF_INDEPENDENT:        1.790
REMARK UNBOUND:                -1.183
REMARK  6 active torsions:
REMARK  status: ('A' for Active; 'I' for Inactive)
REMARK    1  A    between atoms: N1_1  and  C1_2 
REMARK    2  A    between atoms: C4_5  and  C5_6 
REMARK    3  A    between atoms: C10_12  and  N2_13 
REMARK       I    between atoms: N2_13  and  C11_14 
REMARK    4  A    between atoms: C11_14  and  C12_16 
REMARK    5  A    between atoms: C15_19  and  C16_20 
REMARK    6  A    between atoms: C16_20  and  N3_21 
ROOT
ATOM      1  C12 non d   1     -44.622  17.590  -4.233  0.00  0.00     0.018 A 
ATOM      2  C13 non d   1     -43.509  16.954  -3.378  0.00  0.00     0.016 A 
ATOM      3  C14 non d   1     -42.100  17.574  -3.365  0.00  0.00     0.010 A 
ATOM      4  C15 non d   1     -41.803  18.829  -4.206  0.00  0.00    -0.041 A 
ATOM      5  C25 non d   1     -42.914  19.465  -5.060  0.00  0.00     0.010 A 
ATOM      6  C26 non d   1     -44.325  18.845  -5.074  0.00  0.00     0.016 A 
ENDROOT
BRANCH   1   7
ATOM      7  C11 non d   1     -46.032  16.971  -4.246  0.00  0.00     0.189 C 
ATOM      8  N2  non d   1     -46.893  16.990  -2.970  0.00  0.00    -0.332 N 
ATOM      9  H9  non d   1     -46.345  17.628  -1.681  0.00  0.00     0.168 HD
ATOM     10  O1  non d   1     -46.580  16.332  -5.536  0.00  0.00    -0.171 OA
BRANCH   8  11
ATOM     11  C10 non d   1     -48.304  16.370  -2.984  0.00  0.00     0.061 A 
ATOM     12  C9  non d   1     -49.479  17.118  -2.328  0.00  0.00     0.044 A 
ATOM     13  C4  non d   1     -50.889  16.498  -2.342  0.00  0.00    -0.017 A 
ATOM     14  C3  non d   1     -51.123  15.132  -3.011  0.00  0.00     0.015 A 
ATOM     15  C2  non d   1     -49.947  14.384  -3.667  0.00  0.00     0.032 A 
ATOM     16  C1  non d   1     -48.538  15.003  -3.654  0.00  0.00     0.052 A 
BRANCH  13  17
ATOM     17  C5  non d   1     -52.065  17.246  -1.686  0.00  0.00     0.015 A 
ATOM     18  C6  non d   1     -51.959  18.276  -0.546  0.00  0.00     0.020 A 
ATOM     19  C7  non d   1     -53.382  18.761  -0.210  0.00  0.00     0.008 A 
ATOM     20  C8  non d   1     -54.367  18.031  -1.142  0.00  0.00     0.050 A 
ATOM     21  S1  non d   1     -53.553  17.095  -2.054  0.00  0.00    -0.101 SA
ENDBRANCH  13  17
BRANCH  16  22
ATOM     22  N1  non d   1     -47.362  14.255  -4.310  0.00  0.00    -0.397 N 
ATOM     23  H1  non d   1     -46.697  13.074  -3.579  0.00  0.00     0.156 HD
ATOM     24  H2  non d   1     -46.852  14.689  -5.697  0.00  0.00     0.156 HD
ENDBRANCH  16  22
ENDBRANCH   8  11
ENDBRANCH   1   7
BRANCH   4  25
ATOM     25  C16 non d   1     -40.393  19.449  -4.193  0.00  0.00     0.155 C 
BRANCH  25  26
ATOM     26  N3  non d   1     -40.193  20.897  -3.708  0.00  0.00    -0.408 N 
ATOM     27  C17 non d   1     -41.299  21.944  -3.934  0.00  0.00     0.119 A 
ATOM     28  C18 non d   1     -41.099  23.392  -3.449  0.00  0.00     0.058 A 
ATOM     29  C19 non d   1     -39.792  23.793  -2.738  0.00  0.00     0.129 A 
ATOM     30  C20 non d   1     -40.801  24.946  -2.891  0.00  0.00     0.040 A 
ATOM     31  N4  non d   1     -38.548  24.341  -2.015  0.00  0.00    -0.066 N 
ATOM     32  C23 non d   1     -38.686  22.745  -2.511  0.00  0.00     0.058 A 
ATOM     33  C21 non d   1     -40.181  26.208  -2.262  0.00  0.00     0.030 A 
ATOM     34  C22 non d   1     -38.788  25.834  -1.721  0.00  0.00     0.233 A 
ATOM     35  H24 non d   1     -37.143  24.261  -1.388  0.00  0.00     0.278 HD
ATOM     36  H25 non d   1     -37.753  23.023  -2.005  0.00  0.00     0.278 HD
ATOM     37  C24 non d   1     -38.886  21.297  -2.996  0.00  0.00     0.119 A 
ENDBRANCH  25  26
ENDBRANCH   4  25
TORSDOF 6
ENDMDL
MODEL 5
REMARK VINA RESULT:    -9.133      3.784     11.449
REMARK INTER + INTRA:         -12.241
REMARK INTER:                 -10.923
REMARK INTRA:                  -1.318
REMARK CONF_INDEPENDENT:        1.790
REMARK UNBOUND:                -1.318
REMARK  6 active torsions:
REMARK  status: ('A' for Active; 'I' for Inactive)
REMARK    1  A    between atoms: N1_1  and  C1_2 
REMARK    2  A    between atoms: C4_5  and  C5_6 
REMARK    3  A    between atoms: C10_12  and  N2_13 
REMARK       I    between atoms: N2_13  and  C11_14 
REMARK    4  A    between atoms: C11_14  and  C12_16 
REMARK    5  A    between atoms: C15_19  and  C16_20 
REMARK    6  A    between atoms: C16_20  and  N3_21 
ROOT
ATOM      1  C12 non d   1     -40.719  19.889  -2.522  0.00  0.00     0.018 A 
ATOM      2  C13 non d   1     -41.146  20.350  -3.928  0.00  0.00     0.016 A 
ATOM      3  C14 non d   1     -42.041  19.447  -4.796  0.00  0.00     0.010 A 
ATOM      4  C15 non d   1     -42.510  18.082  -4.258  0.00  0.00    -0.041 A 
ATOM      5  C25 non d   1     -42.084  17.621  -2.852  0.00  0.00     0.010 A 
ATOM      6  C26 non d   1     -41.189  18.525  -1.984  0.00  0.00     0.016 A 
ENDROOT
BRANCH   1   7
ATOM      7  C11 non d   1     -39.824  20.793  -1.654  0.00  0.00     0.189 C 
ATOM      8  N2  non d   1     -40.155  21.002  -0.165  0.00  0.00    -0.332 N 
ATOM      9  H9  non d   1     -41.381  20.308   0.456  0.00  0.00     0.168 HD
ATOM     10  O1  non d   1     -38.597  21.486  -2.275  0.00  0.00    -0.171 OA
BRANCH   8  11
ATOM     11  C10 non d   1     -39.259  21.905   0.704  0.00  0.00     0.061 A 
ATOM     12  C9  non d   1     -39.888  23.028   1.550  0.00  0.00     0.044 A 
ATOM     13  C4  non d   1     -38.992  23.931   2.418  0.00  0.00    -0.017 A 
ATOM     14  C3  non d   1     -37.469  23.712   2.440  0.00  0.00     0.015 A 
ATOM     15  C2  non d   1     -36.840  22.590   1.593  0.00  0.00     0.032 A 
ATOM     16  C1  non d   1     -37.735  21.686   0.725  0.00  0.00     0.052 A 
BRANCH  13  17
ATOM     17  C5  non d   1     -39.621  25.054   3.265  0.00  0.00     0.015 A 
ATOM     18  C6  non d   1     -38.888  26.291   3.815  0.00  0.00     0.020 A 
ATOM     19  C7  non d   1     -39.908  27.138   4.600  0.00  0.00     0.008 A 
ATOM     20  C8  non d   1     -41.270  26.424   4.535  0.00  0.00     0.050 A 
ATOM     21  S1  non d   1     -41.093  25.135   3.709  0.00  0.00    -0.101 SA
ENDBRANCH  13  17
BRANCH  16  22
ATOM     22  N1  non d   1     -37.106  20.564  -0.121  0.00  0.00    -0.397 N 
ATOM     23  H1  non d   1     -36.942  19.153   0.471  0.00  0.00     0.156 HD
ATOM     24  H2  non d   1     -36.641  20.854  -1.561  0.00  0.00     0.156 HD
ENDBRANCH  16  22
ENDBRANCH   8  11
ENDBRANCH   1   7
BRANCH   4  25
ATOM     25  C16 non d   1     -43.406  17.179  -5.126  0.00  0.00     0.155 C 
BRANCH  25  26
ATOM     26  N3  non d   1     -44.842  16.855  -4.673  0.00  0.00    -0.408 N 
ATOM     27  C17 non d   1     -45.313  17.255  -3.263  0.00  0.00     0.119 A 
ATOM     28  C18 non d   1     -46.749  16.931  -2.810  0.00  0.00     0.058 A 
ATOM     29  C19 non d   1     -47.713  16.206  -3.768  0.00  0.00     0.129 A 
ATOM     30  C20 non d   1     -48.327  16.541  -2.396  0.00  0.00     0.040 A 
ATOM     31  N4  non d   1     -48.787  15.490  -4.608  0.00  0.00    -0.066 N 
ATOM     32  C23 non d   1     -47.242  15.806  -5.179  0.00  0.00     0.058 A 
ATOM     33  C21 non d   1     -49.781  16.031  -2.388  0.00  0.00     0.030 A 
ATOM     34  C22 non d   1     -50.065  15.382  -3.755  0.00  0.00     0.233 A 
ATOM     35  H24 non d   1     -49.350  14.789  -5.859  0.00  0.00     0.278 HD
ATOM     36  H25 non d   1     -47.923  15.289  -5.866  0.00  0.00     0.278 HD
ATOM     37  C24 non d   1     -45.806  16.130  -5.631  0.00  0.00     0.119 A 
ENDBRANCH  25  26
ENDBRANCH   4  25
TORSDOF 6
ENDMDL
MODEL 6
REMARK VINA RESULT:    -8.463      3.999     11.696
REMARK INTER + INTRA:         -10.873
REMARK INTER:                 -10.253
REMARK INTRA:                  -0.620
REMARK CONF_INDEPENDENT:        1.790
REMARK UNBOUND:                -0.620
REMARK  6 active torsions:
REMARK  status: ('A' for Active; 'I' for Inactive)
REMARK    1  A    between atoms: N1_1  and  C1_2 
REMARK    2  A    between atoms: C4_5  and  C5_6 
REMARK    3  A    between atoms: C10_12  and  N2_13 
REMARK       I    between atoms: N2_13  and  C11_14 
REMARK    4  A    between atoms: C11_14  and  C12_16 
REMARK    5  A    between atoms: C15_19  and  C16_20 
REMARK    6  A    between atoms: C16_20  and  N3_21 
ROOT
ATOM      1  C12 non d   1     -45.885  16.962  -4.025  0.00  0.00     0.018 A 
ATOM      2  C13 non d   1     -46.556  16.021  -5.043  0.00  0.00     0.016 A 
ATOM      3  C14 non d   1     -47.914  15.374  -4.714  0.00  0.00     0.010 A 
ATOM      4  C15 non d   1     -48.601  15.667  -3.367  0.00  0.00    -0.041 A 
ATOM      5  C25 non d   1     -47.930  16.608  -2.349  0.00  0.00     0.010 A 
ATOM      6  C26 non d   1     -46.572  17.256  -2.678  0.00  0.00     0.016 A 
ENDROOT
BRANCH   1   7
ATOM      7  C11 non d   1     -44.527  17.610  -4.354  0.00  0.00     0.189 C 
ATOM      8  N2  non d   1     -43.259  17.161  -3.606  0.00  0.00    -0.332 N 
ATOM      9  H9  non d   1     -43.348  16.064  -2.529  0.00  0.00     0.168 HD
ATOM     10  O1  non d   1     -44.438  18.707  -5.431  0.00  0.00    -0.171 OA
BRANCH   8  11
ATOM     11  C10 non d   1     -41.901  17.808  -3.935  0.00  0.00     0.061 A 
ATOM     12  C9  non d   1     -41.641  18.380  -5.341  0.00  0.00     0.044 A 
ATOM     13  C4  non d   1     -40.283  19.028  -5.670  0.00  0.00    -0.017 A 
ATOM     14  C3  non d   1     -39.185  19.104  -4.594  0.00  0.00     0.015 A 
ATOM     15  C2  non d   1     -39.445  18.532  -3.187  0.00  0.00     0.032 A 
ATOM     16  C1  non d   1     -40.802  17.885  -2.858  0.00  0.00     0.052 A 
BRANCH  13  17
ATOM     17  C5  non d   1     -40.023  19.599  -7.077  0.00  0.00     0.015 A 
ATOM     18  C6  non d   1     -38.669  19.616  -7.811  0.00  0.00     0.020 A 
ATOM     19  C7  non d   1     -38.881  20.282  -9.184  0.00  0.00     0.008 A 
ATOM     20  C8  non d   1     -40.365  20.677  -9.298  0.00  0.00     0.050 A 
ATOM     21  S1  non d   1     -41.071  20.255  -7.995  0.00  0.00    -0.101 SA
ENDBRANCH  13  17
BRANCH  16  22
ATOM     22  N1  non d   1     -41.062  17.313  -1.452  0.00  0.00    -0.397 N 
ATOM     23  H1  non d   1     -42.178  17.907  -0.573  0.00  0.00     0.156 HD
ATOM     24  H2  non d   1     -40.205  16.147  -0.924  0.00  0.00     0.156 HD
ENDBRANCH  16  22
ENDBRANCH   8  11
ENDBRANCH   1   7
BRANCH   4  25
ATOM     25  C16 non d   1     -49.959  15.019  -3.038  0.00  0.00     0.155 C 
BRANCH  25  26
ATOM     26  N3  non d   1     -51.106  15.880  -2.476  0.00  0.00    -0.408 N 
ATOM     27  C17 non d   1     -50.791  17.092  -1.579  0.00  0.00     0.119 A 
ATOM     28  C18 non d   1     -51.938  17.952  -1.017  0.00  0.00     0.058 A 
ATOM     29  C19 non d   1     -53.400  17.600  -1.351  0.00  0.00     0.129 A 
ATOM     30  C20 non d   1     -53.245  18.836  -0.446  0.00  0.00     0.040 A 
ATOM     31  N4  non d   1     -54.904  17.374  -1.595  0.00  0.00    -0.066 N 
ATOM     32  C23 non d   1     -53.715  16.387  -2.247  0.00  0.00     0.058 A 
ATOM     33  C21 non d   1     -54.653  19.375  -0.131  0.00  0.00     0.030 A 
ATOM     34  C22 non d   1     -55.678  18.472  -0.841  0.00  0.00     0.233 A 
ATOM     35  H24 non d   1     -56.136  16.659  -2.180  0.00  0.00     0.278 HD
ATOM     36  H25 non d   1     -54.754  16.130  -2.490  0.00  0.00     0.278 HD
ATOM     37  C24 non d   1     -52.568  15.527  -2.810  0.00  0.00     0.119 A 
ENDBRANCH  25  26
ENDBRANCH   4  25
TORSDOF 6
ENDMDL
