MODEL 1
REMARK VINA RESULT:   -15.092      0.000      0.000
REMARK INTER + INTRA:         -18.908
REMARK INTER:                 -17.777
REMARK INTRA:                  -1.131
REMARK CONF_INDEPENDENT:        2.685
REMARK UNBOUND:                -1.131
REMARK  9 active torsions:
REMARK  status: ('A' for Active; 'I' for Inactive)
REMARK    1  A    between atoms: C1_2  and  C2_3 
REMARK       I    between atoms: C1_2  and  N1_20 
REMARK    2  A    between atoms: C2_3  and  C3_4 
REMARK    3  A    between atoms: C3_4  and  C4_5 
REMARK    4  A    between atoms: C4_5  and  C5_6 
REMARK    5  A    between atoms: C5_6  and  C6_7 
REMARK    6  A    between atoms: C6_7  and  C7_8 
REMARK    7  A    between atoms: C7_8  and  O2_9 
REMARK    8  A    between atoms: O2_9  and  C8_10 
REMARK    9  A    between atoms: N1_20  and  O3_21 
ROOT
ATOM      1  C7  NON d   1     -44.781  17.921  -4.309  0.00  0.00     0.175 C 
ENDROOT
BRANCH   1   2
ATOM      2  C6  NON d   1     -45.483  16.789  -3.558  0.00  0.00     0.027 C 
BRANCH   2   3
ATOM      3  C5  NON d   1     -46.752  17.255  -2.834  0.00  0.00     0.002 C 
BRANCH   3   4
ATOM      4  C4  NON d   1     -47.781  16.137  -2.612  0.00  0.00     0.001 C 
BRANCH   4   5
ATOM      5  C3  NON d   1     -48.977  16.141  -3.581  0.00  0.00     0.009 C 
BRANCH   5   6
ATOM      6  C2  NON d   1     -48.750  15.329  -4.853  0.00  0.00     0.105 C 
BRANCH   6   7
ATOM      7  C1  NON d   1     -47.544  15.776  -5.665  0.00  0.00     0.240 C 
ATOM      8  O1  NON d   1     -46.758  15.005  -6.202  0.00  0.00    -0.271 OA
ATOM      9  N1  NON d   1     -47.412  17.155  -5.650  0.00  0.00    -0.237 N 
ATOM     10  H20 NON d   1     -48.239  17.732  -5.537  0.00  0.00     0.197 HD
BRANCH   9  11
ATOM     11  O3  NON d   1     -46.442  17.680  -6.533  0.00  0.00    -0.287 OA
ATOM     12  H21 NON d   1     -46.315  16.945  -7.161  0.00  0.00     0.244 HD
ENDBRANCH   9  11
ENDBRANCH   6   7
ENDBRANCH   5   6
ENDBRANCH   4   5
ENDBRANCH   3   4
ENDBRANCH   2   3
ENDBRANCH   1   2
BRANCH   1  13
ATOM     13  O2  NON d   1     -43.681  17.405  -5.061  0.00  0.00    -0.351 OA
BRANCH  13  14
ATOM     14  C8  NON d   1     -42.432  17.733  -4.602  0.00  0.00     0.069 A 
ATOM     15  C9  NON d   1     -42.176  17.380  -3.276  0.00  0.00     0.037 A 
ATOM     16  C10 NON d   1     -40.941  17.670  -2.687  0.00  0.00     0.015 A 
ATOM     17  C11 NON d   1     -39.933  18.317  -3.418  0.00  0.00    -0.026 A 
ATOM     18  C12 NON d   1     -38.687  18.620  -2.847  0.00  0.00     0.012 A 
ATOM     19  C16 NON d   1     -40.181  18.671  -4.763  0.00  0.00    -0.023 A 
ATOM     20  C13 NON d   1     -37.697  19.266  -3.590  0.00  0.00     0.001 A 
ATOM     21  C14 NON d   1     -37.940  19.616  -4.914  0.00  0.00     0.001 A 
ATOM     22  C15 NON d   1     -39.173  19.322  -5.498  0.00  0.00     0.012 A 
ATOM     23  C17 NON d   1     -41.431  18.368  -5.339  0.00  0.00     0.049 A 
ENDBRANCH  13  14
ENDBRANCH   1  13
TORSDOF 9
ENDMDL
MODEL 2
REMARK VINA RESULT:   -14.004      3.048      4.886
REMARK INTER + INTRA:         -18.057
REMARK INTER:                 -16.689
REMARK INTRA:                  -1.367
REMARK CONF_INDEPENDENT:        2.685
REMARK UNBOUND:                -1.367
REMARK  9 active torsions:
REMARK  status: ('A' for Active; 'I' for Inactive)
REMARK    1  A    between atoms: C1_2  and  C2_3 
REMARK       I    between atoms: C1_2  and  N1_20 
REMARK    2  A    between atoms: C2_3  and  C3_4 
REMARK    3  A    between atoms: C3_4  and  C4_5 
REMARK    4  A    between atoms: C4_5  and  C5_6 
REMARK    5  A    between atoms: C5_6  and  C6_7 
REMARK    6  A    between atoms: C6_7  and  C7_8 
REMARK    7  A    between atoms: C7_8  and  O2_9 
REMARK    8  A    between atoms: O2_9  and  C8_10 
REMARK    9  A    between atoms: N1_20  and  O3_21 
ROOT
ATOM      1  C7  NON d   1     -40.326  18.310  -5.025  0.00  0.00     0.175 C 
ENDROOT
BRANCH   1   2
ATOM      2  C6  NON d   1     -41.343  19.288  -4.432  0.00  0.00     0.027 C 
BRANCH   2   3
ATOM      3  C5  NON d   1     -42.783  18.975  -4.854  0.00  0.00     0.002 C 
BRANCH   3   4
ATOM      4  C4  NON d   1     -43.077  17.472  -4.974  0.00  0.00     0.001 C 
BRANCH   4   5
ATOM      5  C3  NON d   1     -43.956  16.881  -3.858  0.00  0.00     0.009 C 
BRANCH   5   6
ATOM      6  C2  NON d   1     -45.416  17.318  -3.919  0.00  0.00     0.105 C 
BRANCH   6   7
ATOM      7  C1  NON d   1     -46.141  16.879  -5.182  0.00  0.00     0.240 C 
ATOM      8  O1  NON d   1     -46.232  17.567  -6.192  0.00  0.00    -0.271 OA
ATOM      9  N1  NON d   1     -46.743  15.643  -5.011  0.00  0.00    -0.237 N 
ATOM     10  H20 NON d   1     -46.344  14.983  -4.353  0.00  0.00     0.197 HD
BRANCH   9  11
ATOM     11  O3  NON d   1     -47.273  15.060  -6.184  0.00  0.00    -0.287 OA
ATOM     12  H21 NON d   1     -47.186  15.784  -6.831  0.00  0.00     0.244 HD
ENDBRANCH   9  11
ENDBRANCH   6   7
ENDBRANCH   5   6
ENDBRANCH   4   5
ENDBRANCH   3   4
ENDBRANCH   2   3
ENDBRANCH   1   2
BRANCH   1  13
ATOM     13  O2  NON d   1     -40.610  18.083  -6.407  0.00  0.00    -0.351 OA
BRANCH  13  14
ATOM     14  C8  NON d   1     -39.962  18.900  -7.296  0.00  0.00     0.069 A 
ATOM     15  C9  NON d   1     -40.681  20.025  -7.701  0.00  0.00     0.037 A 
ATOM     16  C10 NON d   1     -40.133  20.930  -8.615  0.00  0.00     0.015 A 
ATOM     17  C11 NON d   1     -38.847  20.728  -9.140  0.00  0.00    -0.026 A 
ATOM     18  C12 NON d   1     -38.277  21.623 -10.061  0.00  0.00     0.012 A 
ATOM     19  C16 NON d   1     -38.109  19.596  -8.730  0.00  0.00    -0.023 A 
ATOM     20  C13 NON d   1     -36.997  21.404 -10.573  0.00  0.00     0.001 A 
ATOM     21  C14 NON d   1     -36.270  20.288 -10.170  0.00  0.00     0.001 A 
ATOM     22  C15 NON d   1     -36.821  19.390  -9.256  0.00  0.00     0.012 A 
ATOM     23  C17 NON d   1     -38.678  18.696  -7.806  0.00  0.00     0.049 A 
ENDBRANCH  13  14
ENDBRANCH   1  13
TORSDOF 9
ENDMDL
MODEL 3
REMARK VINA RESULT:   -13.866      2.155      4.362
REMARK INTER + INTRA:         -17.923
REMARK INTER:                 -16.551
REMARK INTRA:                  -1.372
REMARK CONF_INDEPENDENT:        2.685
REMARK UNBOUND:                -1.372
REMARK  9 active torsions:
REMARK  status: ('A' for Active; 'I' for Inactive)
REMARK    1  A    between atoms: C1_2  and  C2_3 
REMARK       I    between atoms: C1_2  and  N1_20 
REMARK    2  A    between atoms: C2_3  and  C3_4 
REMARK    3  A    between atoms: C3_4  and  C4_5 
REMARK    4  A    between atoms: C4_5  and  C5_6 
REMARK    5  A    between atoms: C5_6  and  C6_7 
REMARK    6  A    between atoms: C6_7  and  C7_8 
REMARK    7  A    between atoms: C7_8  and  O2_9 
REMARK    8  A    between atoms: O2_9  and  C8_10 
REMARK    9  A    between atoms: N1_20  and  O3_21 
ROOT
ATOM      1  C7  NON d   1     -39.746  18.410  -2.450  0.00  0.00     0.175 C 
ENDROOT
BRANCH   1   2
ATOM      2  C6  NON d   1     -40.834  17.345  -2.598  0.00  0.00     0.027 C 
BRANCH   2   3
ATOM      3  C5  NON d   1     -42.226  17.947  -2.827  0.00  0.00     0.002 C 
BRANCH   3   4
ATOM      4  C4  NON d   1     -42.653  17.964  -4.302  0.00  0.00     0.001 C 
BRANCH   4   5
ATOM      5  C3  NON d   1     -43.636  16.855  -4.717  0.00  0.00     0.009 C 
BRANCH   5   6
ATOM      6  C2  NON d   1     -45.072  17.092  -4.258  0.00  0.00     0.105 C 
BRANCH   6   7
ATOM      7  C1  NON d   1     -46.112  16.880  -5.347  0.00  0.00     0.240 C 
ATOM      8  O1  NON d   1     -46.320  17.672  -6.258  0.00  0.00    -0.271 OA
ATOM      9  N1  NON d   1     -46.838  15.721  -5.128  0.00  0.00    -0.237 N 
ATOM     10  H20 NON d   1     -46.407  14.951  -4.628  0.00  0.00     0.197 HD
BRANCH   9  11
ATOM     11  O3  NON d   1     -47.692  15.332  -6.185  0.00  0.00    -0.287 OA
ATOM     12  H21 NON d   1     -47.948  16.191  -6.569  0.00  0.00     0.244 HD
ENDBRANCH   9  11
ENDBRANCH   6   7
ENDBRANCH   5   6
ENDBRANCH   4   5
ENDBRANCH   3   4
ENDBRANCH   2   3
ENDBRANCH   1   2
BRANCH   1  13
ATOM     13  O2  NON d   1     -38.658  18.128  -3.331  0.00  0.00    -0.351 OA
BRANCH  13  14
ATOM     14  C8  NON d   1     -38.756  18.648  -4.595  0.00  0.00     0.069 A 
ATOM     15  C9  NON d   1     -37.558  18.705  -5.309  0.00  0.00     0.037 A 
ATOM     16  C10 NON d   1     -37.526  19.225  -6.605  0.00  0.00     0.015 A 
ATOM     17  C11 NON d   1     -38.697  19.696  -7.218  0.00  0.00    -0.026 A 
ATOM     18  C12 NON d   1     -38.687  20.225  -8.520  0.00  0.00     0.012 A 
ATOM     19  C16 NON d   1     -39.916  19.635  -6.506  0.00  0.00    -0.023 A 
ATOM     20  C13 NON d   1     -39.863  20.690  -9.112  0.00  0.00     0.001 A 
ATOM     21  C14 NON d   1     -41.064  20.631  -8.411  0.00  0.00     0.001 A 
ATOM     22  C15 NON d   1     -41.091  20.108  -7.118  0.00  0.00     0.012 A 
ATOM     23  C17 NON d   1     -39.929  19.105  -5.201  0.00  0.00     0.049 A 
ENDBRANCH  13  14
ENDBRANCH   1  13
TORSDOF 9
ENDMDL
MODEL 4
REMARK VINA RESULT:   -13.855      3.143      4.910
REMARK INTER + INTRA:         -17.911
REMARK INTER:                 -16.540
REMARK INTRA:                  -1.371
REMARK CONF_INDEPENDENT:        2.685
REMARK UNBOUND:                -1.371
REMARK  9 active torsions:
REMARK  status: ('A' for Active; 'I' for Inactive)
REMARK    1  A    between atoms: C1_2  and  C2_3 
REMARK       I    between atoms: C1_2  and  N1_20 
REMARK    2  A    between atoms: C2_3  and  C3_4 
REMARK    3  A    between atoms: C3_4  and  C4_5 
REMARK    4  A    between atoms: C4_5  and  C5_6 
REMARK    5  A    between atoms: C5_6  and  C6_7 
REMARK    6  A    between atoms: C6_7  and  C7_8 
REMARK    7  A    between atoms: C7_8  and  O2_9 
REMARK    8  A    between atoms: O2_9  and  C8_10 
REMARK    9  A    between atoms: N1_20  and  O3_21 
ROOT
ATOM      1  C7  NON d   1     -40.751  18.674  -5.141  0.00  0.00     0.175 C 
ENDROOT
BRANCH   1   2
ATOM      2  C6  NON d   1     -41.942  19.567  -4.789  0.00  0.00     0.027 C 
BRANCH   2   3
ATOM      3  C5  NON d   1     -43.290  18.871  -5.007  0.00  0.00     0.002 C 
BRANCH   3   4
ATOM      4  C4  NON d   1     -43.252  17.358  -4.743  0.00  0.00     0.001 C 
BRANCH   4   5
ATOM      5  C3  NON d   1     -44.179  16.862  -3.620  0.00  0.00     0.009 C 
BRANCH   5   6
ATOM      6  C2  NON d   1     -45.641  17.256  -3.799  0.00  0.00     0.105 C 
BRANCH   6   7
ATOM      7  C1  NON d   1     -46.244  16.811  -5.123  0.00  0.00     0.240 C 
ATOM      8  O1  NON d   1     -46.160  17.453  -6.163  0.00  0.00    -0.271 OA
ATOM      9  N1  NON d   1     -46.958  15.633  -4.978  0.00  0.00    -0.237 N 
ATOM     10  H20 NON d   1     -46.694  14.977  -4.250  0.00  0.00     0.197 HD
BRANCH   9  11
ATOM     11  O3  NON d   1     -47.390  15.034  -6.183  0.00  0.00    -0.287 OA
ATOM     12  H21 NON d   1     -47.264  15.754  -6.827  0.00  0.00     0.244 HD
ENDBRANCH   9  11
ENDBRANCH   6   7
ENDBRANCH   5   6
ENDBRANCH   4   5
ENDBRANCH   3   4
ENDBRANCH   2   3
ENDBRANCH   1   2
BRANCH   1  13
ATOM     13  O2  NON d   1     -40.784  18.332  -6.528  0.00  0.00    -0.351 OA
BRANCH  13  14
ATOM     14  C8  NON d   1     -40.091  19.161  -7.369  0.00  0.00     0.069 A 
ATOM     15  C9  NON d   1     -38.840  18.689  -7.771  0.00  0.00     0.037 A 
ATOM     16  C10 NON d   1     -38.031  19.448  -8.621  0.00  0.00     0.015 A 
ATOM     17  C11 NON d   1     -38.460  20.699  -9.091  0.00  0.00    -0.026 A 
ATOM     18  C12 NON d   1     -37.663  21.480  -9.943  0.00  0.00     0.012 A 
ATOM     19  C16 NON d   1     -39.727  21.183  -8.695  0.00  0.00    -0.023 A 
ATOM     20  C13 NON d   1     -38.107  22.723 -10.399  0.00  0.00     0.001 A 
ATOM     21  C14 NON d   1     -39.354  23.200 -10.009  0.00  0.00     0.001 A 
ATOM     22  C15 NON d   1     -40.159  22.437  -9.163  0.00  0.00     0.012 A 
ATOM     23  C17 NON d   1     -40.529  20.401  -7.840  0.00  0.00     0.049 A 
ENDBRANCH  13  14
ENDBRANCH   1  13
TORSDOF 9
ENDMDL
MODEL 5
REMARK VINA RESULT:   -13.788      2.497      4.402
REMARK INTER + INTRA:         -17.878
REMARK INTER:                 -16.472
REMARK INTRA:                  -1.406
REMARK CONF_INDEPENDENT:        2.685
REMARK UNBOUND:                -1.406
REMARK  9 active torsions:
REMARK  status: ('A' for Active; 'I' for Inactive)
REMARK    1  A    between atoms: C1_2  and  C2_3 
REMARK       I    between atoms: C1_2  and  N1_20 
REMARK    2  A    between atoms: C2_3  and  C3_4 
REMARK    3  A    between atoms: C3_4  and  C4_5 
REMARK    4  A    between atoms: C4_5  and  C5_6 
REMARK    5  A    between atoms: C5_6  and  C6_7 
REMARK    6  A    between atoms: C6_7  and  C7_8 
REMARK    7  A    between atoms: C7_8  and  O2_9 
REMARK    8  A    between atoms: O2_9  and  C8_10 
REMARK    9  A    between atoms: N1_20  and  O3_21 
ROOT
ATOM      1  C7  NON d   1     -40.005  19.275  -2.736  0.00  0.00     0.175 C 
ENDROOT
BRANCH   1   2
ATOM      2  C6  NON d   1     -40.543  17.845  -2.651  0.00  0.00     0.027 C 
BRANCH   2   3
ATOM      3  C5  NON d   1     -42.073  17.781  -2.721  0.00  0.00     0.002 C 
BRANCH   3   4
ATOM      4  C4  NON d   1     -42.604  17.118  -4.000  0.00  0.00     0.001 C 
BRANCH   4   5
ATOM      5  C3  NON d   1     -43.817  17.811  -4.647  0.00  0.00     0.009 C 
BRANCH   5   6
ATOM      6  C2  NON d   1     -45.165  17.268  -4.182  0.00  0.00     0.105 C 
BRANCH   6   7
ATOM      7  C1  NON d   1     -46.126  16.945  -5.316  0.00  0.00     0.240 C 
ATOM      8  O1  NON d   1     -46.345  17.693  -6.261  0.00  0.00    -0.271 OA
ATOM      9  N1  NON d   1     -46.770  15.738  -5.098  0.00  0.00    -0.237 N 
ATOM     10  H20 NON d   1     -46.308  15.019  -4.552  0.00  0.00     0.197 HD
BRANCH   9  11
ATOM     11  O3  NON d   1     -47.534  15.255  -6.185  0.00  0.00    -0.287 OA
ATOM     12  H21 NON d   1     -47.633  16.052  -6.737  0.00  0.00     0.244 HD
ENDBRANCH   9  11
ENDBRANCH   6   7
ENDBRANCH   5   6
ENDBRANCH   4   5
ENDBRANCH   3   4
ENDBRANCH   2   3
ENDBRANCH   1   2
BRANCH   1  13
ATOM     13  O2  NON d   1     -40.916  20.100  -3.465  0.00  0.00    -0.351 OA
BRANCH  13  14
ATOM     14  C8  NON d   1     -40.644  20.264  -4.798  0.00  0.00     0.069 A 
ATOM     15  C9  NON d   1     -40.614  19.087  -5.547  0.00  0.00     0.037 A 
ATOM     16  C10 NON d   1     -40.337  19.121  -6.917  0.00  0.00     0.015 A 
ATOM     17  C11 NON d   1     -40.087  20.339  -7.568  0.00  0.00    -0.026 A 
ATOM     18  C12 NON d   1     -39.805  20.396  -8.942  0.00  0.00     0.012 A 
ATOM     19  C16 NON d   1     -40.123  21.536  -6.819  0.00  0.00    -0.023 A 
ATOM     20  C13 NON d   1     -39.558  21.618  -9.572  0.00  0.00     0.001 A 
ATOM     21  C14 NON d   1     -39.592  22.798  -8.835  0.00  0.00     0.001 A 
ATOM     22  C15 NON d   1     -39.873  22.758  -7.469  0.00  0.00     0.012 A 
ATOM     23  C17 NON d   1     -40.407  21.482  -5.440  0.00  0.00     0.049 A 
ENDBRANCH  13  14
ENDBRANCH   1  13
TORSDOF 9
ENDMDL
MODEL 6
REMARK VINA RESULT:   -13.738      3.730      4.986
REMARK INTER + INTRA:         -17.814
REMARK INTER:                 -16.423
REMARK INTRA:                  -1.390
REMARK CONF_INDEPENDENT:        2.685
REMARK UNBOUND:                -1.390
REMARK  9 active torsions:
REMARK  status: ('A' for Active; 'I' for Inactive)
REMARK    1  A    between atoms: C1_2  and  C2_3 
REMARK       I    between atoms: C1_2  and  N1_20 
REMARK    2  A    between atoms: C2_3  and  C3_4 
REMARK    3  A    between atoms: C3_4  and  C4_5 
REMARK    4  A    between atoms: C4_5  and  C5_6 
REMARK    5  A    between atoms: C5_6  and  C6_7 
REMARK    6  A    between atoms: C6_7  and  C7_8 
REMARK    7  A    between atoms: C7_8  and  O2_9 
REMARK    8  A    between atoms: O2_9  and  C8_10 
REMARK    9  A    between atoms: N1_20  and  O3_21 
ROOT
ATOM      1  C7  NON d   1     -40.312  18.250  -2.775  0.00  0.00     0.175 C 
ENDROOT
BRANCH   1   2
ATOM      2  C6  NON d   1     -41.822  18.359  -2.990  0.00  0.00     0.027 C 
BRANCH   2   3
ATOM      3  C5  NON d   1     -42.199  18.566  -4.462  0.00  0.00     0.002 C 
BRANCH   3   4
ATOM      4  C4  NON d   1     -43.293  17.610  -4.958  0.00  0.00     0.001 C 
BRANCH   4   5
ATOM      5  C3  NON d   1     -44.108  16.912  -3.855  0.00  0.00     0.009 C 
BRANCH   5   6
ATOM      6  C2  NON d   1     -45.592  17.263  -3.860  0.00  0.00     0.105 C 
BRANCH   6   7
ATOM      7  C1  NON d   1     -46.314  16.883  -5.144  0.00  0.00     0.240 C 
ATOM      8  O1  NON d   1     -46.325  17.578  -6.153  0.00  0.00    -0.271 OA
ATOM      9  N1  NON d   1     -47.011  15.695  -4.995  0.00  0.00    -0.237 N 
ATOM     10  H20 NON d   1     -46.680  15.005  -4.329  0.00  0.00     0.197 HD
BRANCH   9  11
ATOM     11  O3  NON d   1     -47.550  15.157  -6.185  0.00  0.00    -0.287 OA
ATOM     12  H21 NON d   1     -47.167  15.738  -6.867  0.00  0.00     0.244 HD
ENDBRANCH   9  11
ENDBRANCH   6   7
ENDBRANCH   5   6
ENDBRANCH   4   5
ENDBRANCH   3   4
ENDBRANCH   2   3
ENDBRANCH   1   2
BRANCH   1  13
ATOM     13  O2  NON d   1     -39.656  19.412  -3.286  0.00  0.00    -0.351 OA
BRANCH  13  14
ATOM     14  C8  NON d   1     -39.996  20.602  -2.697  0.00  0.00     0.069 A 
ATOM     15  C9  NON d   1     -40.417  21.601  -3.577  0.00  0.00     0.037 A 
ATOM     16  C10 NON d   1     -40.781  22.863  -3.101  0.00  0.00     0.015 A 
ATOM     17  C11 NON d   1     -40.735  23.152  -1.728  0.00  0.00    -0.026 A 
ATOM     18  C12 NON d   1     -41.094  24.414  -1.227  0.00  0.00     0.012 A 
ATOM     19  C16 NON d   1     -40.318  22.145  -0.829  0.00  0.00    -0.023 A 
ATOM     20  C13 NON d   1     -41.041  24.682   0.142  0.00  0.00     0.001 A 
ATOM     21  C14 NON d   1     -40.630  23.691   1.028  0.00  0.00     0.001 A 
ATOM     22  C15 NON d   1     -40.270  22.432   0.547  0.00  0.00     0.012 A 
ATOM     23  C17 NON d   1     -39.958  20.878  -1.329  0.00  0.00     0.049 A 
ENDBRANCH  13  14
ENDBRANCH   1  13
TORSDOF 9
ENDMDL
MODEL 7
REMARK VINA RESULT:   -13.647      4.476      5.611
REMARK INTER + INTRA:         -17.548
REMARK INTER:                 -16.331
REMARK INTRA:                  -1.217
REMARK CONF_INDEPENDENT:        2.685
REMARK UNBOUND:                -1.217
REMARK  9 active torsions:
REMARK  status: ('A' for Active; 'I' for Inactive)
REMARK    1  A    between atoms: C1_2  and  C2_3 
REMARK       I    between atoms: C1_2  and  N1_20 
REMARK    2  A    between atoms: C2_3  and  C3_4 
REMARK    3  A    between atoms: C3_4  and  C4_5 
REMARK    4  A    between atoms: C4_5  and  C5_6 
REMARK    5  A    between atoms: C5_6  and  C6_7 
REMARK    6  A    between atoms: C6_7  and  C7_8 
REMARK    7  A    between atoms: C7_8  and  O2_9 
REMARK    8  A    between atoms: O2_9  and  C8_10 
REMARK    9  A    between atoms: N1_20  and  O3_21 
ROOT
ATOM      1  C7  NON d   1     -40.511  20.100  -3.660  0.00  0.00     0.175 C 
ENDROOT
BRANCH   1   2
ATOM      2  C6  NON d   1     -41.635  20.006  -4.694  0.00  0.00     0.027 C 
BRANCH   2   3
ATOM      3  C5  NON d   1     -42.000  18.558  -5.041  0.00  0.00     0.002 C 
BRANCH   3   4
ATOM      4  C4  NON d   1     -42.625  17.783  -3.872  0.00  0.00     0.001 C 
BRANCH   4   5
ATOM      5  C3  NON d   1     -43.691  16.744  -4.265  0.00  0.00     0.009 C 
BRANCH   5   6
ATOM      6  C2  NON d   1     -45.126  17.218  -4.061  0.00  0.00     0.105 C 
BRANCH   6   7
ATOM      7  C1  NON d   1     -46.045  16.931  -5.239  0.00  0.00     0.240 C 
ATOM      8  O1  NON d   1     -46.201  17.693  -6.185  0.00  0.00    -0.271 OA
ATOM      9  N1  NON d   1     -46.732  15.742  -5.061  0.00  0.00    -0.237 N 
ATOM     10  H20 NON d   1     -46.315  15.005  -4.502  0.00  0.00     0.197 HD
BRANCH   9  11
ATOM     11  O3  NON d   1     -47.460  15.289  -6.185  0.00  0.00    -0.287 OA
ATOM     12  H21 NON d   1     -47.394  16.049  -6.792  0.00  0.00     0.244 HD
ENDBRANCH   9  11
ENDBRANCH   6   7
ENDBRANCH   5   6
ENDBRANCH   4   5
ENDBRANCH   3   4
ENDBRANCH   2   3
ENDBRANCH   1   2
BRANCH   1  13
ATOM     13  O2  NON d   1     -40.103  21.460  -3.499  0.00  0.00    -0.351 OA
BRANCH  13  14
ATOM     14  C8  NON d   1     -40.245  21.987  -2.242  0.00  0.00     0.069 A 
ATOM     15  C9  NON d   1     -39.945  21.114  -1.195  0.00  0.00     0.037 A 
ATOM     16  C10 NON d   1     -40.061  21.529   0.134  0.00  0.00     0.015 A 
ATOM     17  C11 NON d   1     -40.478  22.832   0.444  0.00  0.00    -0.026 A 
ATOM     18  C12 NON d   1     -40.604  23.270   1.773  0.00  0.00     0.012 A 
ATOM     19  C16 NON d   1     -40.777  23.726  -0.609  0.00  0.00    -0.023 A 
ATOM     20  C13 NON d   1     -41.021  24.571   2.061  0.00  0.00     0.001 A 
ATOM     21  C14 NON d   1     -41.316  25.451   1.024  0.00  0.00     0.001 A 
ATOM     22  C15 NON d   1     -41.196  25.032  -0.301  0.00  0.00     0.012 A 
ATOM     23  C17 NON d   1     -40.651  23.289  -1.943  0.00  0.00     0.049 A 
ENDBRANCH  13  14
ENDBRANCH   1  13
TORSDOF 9
ENDMDL
MODEL 8
REMARK VINA RESULT:   -13.581      2.172      4.189
REMARK INTER + INTRA:         -17.982
REMARK INTER:                 -16.266
REMARK INTRA:                  -1.716
REMARK CONF_INDEPENDENT:        2.685
REMARK UNBOUND:                -1.716
REMARK  9 active torsions:
REMARK  status: ('A' for Active; 'I' for Inactive)
REMARK    1  A    between atoms: C1_2  and  C2_3 
REMARK       I    between atoms: C1_2  and  N1_20 
REMARK    2  A    between atoms: C2_3  and  C3_4 
REMARK    3  A    between atoms: C3_4  and  C4_5 
REMARK    4  A    between atoms: C4_5  and  C5_6 
REMARK    5  A    between atoms: C5_6  and  C6_7 
REMARK    6  A    between atoms: C6_7  and  C7_8 
REMARK    7  A    between atoms: C7_8  and  O2_9 
REMARK    8  A    between atoms: O2_9  and  C8_10 
REMARK    9  A    between atoms: N1_20  and  O3_21 
ROOT
ATOM      1  C7  NON d   1     -39.949  18.110  -2.166  0.00  0.00     0.175 C 
ENDROOT
BRANCH   1   2
ATOM      2  C6  NON d   1     -41.448  18.302  -2.402  0.00  0.00     0.027 C 
BRANCH   2   3
ATOM      3  C5  NON d   1     -42.042  17.242  -3.337  0.00  0.00     0.002 C 
BRANCH   3   4
ATOM      4  C4  NON d   1     -42.583  17.815  -4.655  0.00  0.00     0.001 C 
BRANCH   4   5
ATOM      5  C3  NON d   1     -44.051  18.274  -4.620  0.00  0.00     0.009 C 
BRANCH   5   6
ATOM      6  C2  NON d   1     -45.043  17.165  -4.285  0.00  0.00     0.105 C 
BRANCH   6   7
ATOM      7  C1  NON d   1     -46.115  16.953  -5.342  0.00  0.00     0.240 C 
ATOM      8  O1  NON d   1     -46.377  17.764  -6.222  0.00  0.00    -0.271 OA
ATOM      9  N1  NON d   1     -46.799  15.767  -5.133  0.00  0.00    -0.237 N 
ATOM     10  H20 NON d   1     -46.328  14.996  -4.670  0.00  0.00     0.197 HD
BRANCH   9  11
ATOM     11  O3  NON d   1     -47.679  15.384  -6.170  0.00  0.00    -0.287 OA
ATOM     12  H21 NON d   1     -47.477  16.038  -6.864  0.00  0.00     0.244 HD
ENDBRANCH   9  11
ENDBRANCH   6   7
ENDBRANCH   5   6
ENDBRANCH   4   5
ENDBRANCH   3   4
ENDBRANCH   2   3
ENDBRANCH   1   2
BRANCH   1  13
ATOM     13  O2  NON d   1     -39.226  19.251  -2.631  0.00  0.00    -0.351 OA
BRANCH  13  14
ATOM     14  C8  NON d   1     -39.514  19.667  -3.904  0.00  0.00     0.069 A 
ATOM     15  C9  NON d   1     -40.131  20.916  -3.995  0.00  0.00     0.037 A 
ATOM     16  C10 NON d   1     -40.485  21.447  -5.239  0.00  0.00     0.015 A 
ATOM     17  C11 NON d   1     -40.223  20.738  -6.422  0.00  0.00    -0.026 A 
ATOM     18  C12 NON d   1     -40.572  21.251  -7.682  0.00  0.00     0.012 A 
ATOM     19  C16 NON d   1     -39.592  19.477  -6.340  0.00  0.00    -0.023 A 
ATOM     20  C13 NON d   1     -40.304  20.530  -8.847  0.00  0.00     0.001 A 
ATOM     21  C14 NON d   1     -39.684  19.287  -8.767  0.00  0.00     0.001 A 
ATOM     22  C15 NON d   1     -39.330  18.763  -7.523  0.00  0.00     0.012 A 
ATOM     23  C17 NON d   1     -39.241  18.960  -5.077  0.00  0.00     0.049 A 
ENDBRANCH  13  14
ENDBRANCH   1  13
TORSDOF 9
ENDMDL
