MODEL 1
REMARK VINA RESULT:   -26.693      0.000      0.000
REMARK INTER + INTRA:         -29.816
REMARK INTER:                 -28.483
REMARK INTRA:                  -1.333
REMARK CONF_INDEPENDENT:        1.790
REMARK UNBOUND:                -1.333
REMARK  6 active torsions:
REMARK  status: ('A' for Active; 'I' for Inactive)
REMARK    1  A    between atoms: C1_2  and  C2_3 
REMARK       I    between atoms: C1_2  and  N3_22 
REMARK    2  A    between atoms: C3_4  and  C4_5 
REMARK    3  A    between atoms: C8_10  and  C9_11 
REMARK    4  A    between atoms: C9_11  and  C10_12 
REMARK    5  A    between atoms: C10_12  and  C11_13 
REMARK    6  A    between atoms: N3_22  and  O2_23 
ROOT
ATOM      1  C4  NON d   1     -44.043  18.298  -5.088  0.00  0.00    -0.034 A 
ATOM      2  C5  NON d   1     -43.813  17.771  -3.803  0.00  0.00     0.014 A 
ATOM      3  C6  NON d   1     -44.706  16.880  -3.185  0.00  0.00     0.033 A 
ATOM      4  C7  NON d   1     -45.845  16.536  -3.908  0.00  0.00     0.062 A 
ATOM      5  N1  NON d   1     -46.901  15.707  -3.629  0.00  0.00    -0.343 N 
ATOM      6  C8  NON d   1     -47.747  15.698  -4.713  0.00  0.00     0.105 A 
ATOM      7  N2  NON d   1     -47.296  16.505  -5.654  0.00  0.00    -0.233 NA
ATOM      8  C17 NON d   1     -46.117  17.027  -5.176  0.00  0.00     0.086 A 
ATOM      9  C18 NON d   1     -45.212  17.920  -5.775  0.00  0.00     0.045 A 
ATOM     10  H5  NON d   1     -47.009  15.159  -2.787  0.00  0.00     0.167 HD
ENDROOT
BRANCH   1  11
ATOM     11  C3  NON d   1     -43.115  19.238  -5.755  0.00  0.00     0.017 C 
ATOM     12  C2  NON d   1     -41.805  19.037  -5.978  0.00  0.00     0.077 C 
BRANCH  12  13
ATOM     13  C1  NON d   1     -40.973  20.083  -6.645  0.00  0.00     0.264 C 
ATOM     14  O1  NON d   1     -40.624  19.994  -7.814  0.00  0.00    -0.266 OA
ATOM     15  N3  NON d   1     -40.676  21.116  -5.788  0.00  0.00    -0.234 N 
ATOM     16  H16 NON d   1     -40.945  21.144  -4.812  0.00  0.00     0.197 HD
BRANCH  15  17
ATOM     17  O2  NON d   1     -39.932  22.194  -6.305  0.00  0.00    -0.287 OA
ATOM     18  H17 NON d   1     -39.826  21.973  -7.247  0.00  0.00     0.244 HD
ENDBRANCH  15  17
ENDBRANCH  12  13
ENDBRANCH   1  11
BRANCH   6  19
ATOM     19  C9  NON d   1     -48.987  14.862  -4.823  0.00  0.00     0.083 C 
BRANCH  19  20
ATOM     20  C10 NON d   1     -49.672  14.483  -3.505  0.00  0.00     0.046 C 
BRANCH  20  21
ATOM     21  C11 NON d   1     -50.320  15.576  -2.678  0.00  0.00    -0.058 A 
ATOM     22  C12 NON d   1     -49.524  16.242  -1.730  0.00  0.00     0.007 A 
ATOM     23  C13 NON d   1     -50.053  17.255  -0.928  0.00  0.00     0.001 A 
ATOM     24  C14 NON d   1     -51.392  17.615  -1.056  0.00  0.00     0.000 A 
ATOM     25  C15 NON d   1     -52.193  16.973  -1.996  0.00  0.00     0.001 A 
ATOM     26  C16 NON d   1     -51.659  15.969  -2.809  0.00  0.00     0.007 A 
ENDBRANCH  20  21
ENDBRANCH  19  20
ENDBRANCH   6  19
TORSDOF 6
ENDMDL
