MODEL 1
REMARK VINA RESULT:   -18.558      0.000      0.000
REMARK INTER + INTRA:         -23.980
REMARK INTER:                 -22.735
REMARK INTRA:                  -1.246
REMARK CONF_INDEPENDENT:        4.176
REMARK UNBOUND:                -1.246
REMARK  14 active torsions:
REMARK  status: ('A' for Active; 'I' for Inactive)
REMARK    1  A    between atoms: C2_2  and  S1_4 
REMARK    2  A    between atoms: S1_4  and  C3_5 
REMARK    3  A    between atoms: C3_5  and  C4_6 
REMARK    4  A    between atoms: C4_6  and  C5_7 
REMARK    5  A    between atoms: C5_7  and  C6_8 
REMARK    6  A    between atoms: C6_8  and  C7_9 
REMARK    7  A    between atoms: C8_10  and  C7_9 
REMARK    8  A    between atoms: C15_21  and  C16_22 
REMARK    9  A    between atoms: C16_22  and  C17_23 
REMARK   10  A    between atoms: C17_23  and  O4_24 
REMARK   11  A    between atoms: O4_24  and  C18_25 
REMARK   12  A    between atoms: C18_25  and  C19_26 
REMARK   13  A    between atoms: C19_26  and  S2_27 
REMARK   14  A    between atoms: S2_27  and  C20_28 
ROOT
ATOM      1  C8  NON d   1     -39.891  23.082  -7.045  0.00  0.00     0.155 C 
ATOM      2  N1  NON d   1     -39.835  22.955  -5.584  0.00  0.00    -0.248 NA
ATOM      3  C9  NON d   1     -40.181  23.961  -4.703  0.00  0.00     0.221 C 
ATOM      4  O2  NON d   1     -40.186  25.148  -5.015  0.00  0.00    -0.278 OA
ATOM      5  C10 NON d   1     -40.820  23.438  -3.377  0.00  0.00     0.173 C 
ATOM      6  C11 NON d   1     -40.649  24.439  -2.241  0.00  0.00     0.036 C 
ATOM      7  C12 NON d   1     -41.059  23.607  -1.037  0.00  0.00     0.022 C 
ATOM      8  C13 NON d   1     -40.482  22.222  -1.339  0.00  0.00     0.127 C 
ATOM      9  N2  NON d   1     -40.333  22.161  -2.791  0.00  0.00    -0.337 N 
ATOM     10  C14 NON d   1     -40.663  20.965  -3.407  0.00  0.00     0.243 C 
ATOM     11  O3  NON d   1     -41.501  20.967  -4.322  0.00  0.00    -0.271 OA
ATOM     12  C15 NON d   1     -39.729  19.712  -3.227  0.00  0.00     0.179 C 
ATOM     13  N3  NON d   1     -39.519  19.419  -4.670  0.00  0.00    -0.346 N 
ATOM     14  C22 NON d   1     -38.511  18.909  -5.488  0.00  0.00     0.246 C 
ATOM     15  O6  NON d   1     -37.491  18.361  -5.107  0.00  0.00    -0.271 OA
ATOM     16  C23 NON d   1     -38.956  19.148  -6.976  0.00  0.00     0.106 C 
ATOM     17  C24 NON d   1     -40.262  18.345  -7.235  0.00  0.00     0.048 C 
ATOM     18  C25 NON d   1     -38.340  19.280  -8.381  0.00  0.00     0.048 C 
ATOM     19  N4  NON d   1     -39.318  20.683  -6.763  0.00  0.00    -0.342 N 
ATOM     20  C26 NON d   1     -39.693  21.658  -7.683  0.00  0.00     0.236 C 
ATOM     21  O7  NON d   1     -39.882  21.442  -8.875  0.00  0.00    -0.272 OA
ATOM     22  H15 NON d   1     -40.295  22.095  -5.304  0.00  0.00     0.131 HD
ATOM     23  H35 NON d   1     -40.314  19.775  -5.210  0.00  0.00     0.163 HD
ATOM     24  H42 NON d   1     -38.805  21.098  -5.986  0.00  0.00     0.163 HD
ENDROOT
BRANCH   1  25
ATOM     25  C7  NON d   1     -39.143  24.238  -7.760  0.00  0.00     0.029 C 
BRANCH  25  26
ATOM     26  C6  NON d   1     -39.831  25.041  -8.875  0.00  0.00     0.002 C 
BRANCH  26  27
ATOM     27  C5  NON d   1     -39.073  24.973 -10.232  0.00  0.00     0.001 C 
BRANCH  27  28
ATOM     28  C4  NON d   1     -39.290  23.705 -11.079  0.00  0.00     0.010 C 
BRANCH  28  29
ATOM     29  C3  NON d   1     -39.743  23.978 -12.514  0.00  0.00     0.082 C 
BRANCH  29  30
ATOM     30  S1  NON d   1     -41.433  24.660 -12.558  0.00  0.00    -0.093 SA
BRANCH  30  31
ATOM     31  C2  NON d   1     -41.462  25.409 -14.148  0.00  0.00     0.182 C 
ATOM     32  C1  NON d   1     -42.303  26.657 -14.227  0.00  0.00     0.104 C 
ATOM     33  O1  NON d   1     -40.889  24.927 -15.118  0.00  0.00    -0.286 OA
ENDBRANCH  30  31
ENDBRANCH  29  30
ENDBRANCH  28  29
ENDBRANCH  27  28
ENDBRANCH  26  27
ENDBRANCH  25  26
ENDBRANCH   1  25
BRANCH  12  34
ATOM     34  C16 NON d   1     -40.486  18.540  -2.599  0.00  0.00     0.061 C 
BRANCH  34  35
ATOM     35  C17 NON d   1     -41.255  17.707  -3.614  0.00  0.00     0.170 C 
BRANCH  35  36
ATOM     36  O4  NON d   1     -42.521  18.302  -3.874  0.00  0.00    -0.390 OA
BRANCH  36  37
ATOM     37  C18 NON d   1     -43.435  17.439  -4.568  0.00  0.00     0.178 C 
BRANCH  37  38
ATOM     38  C19 NON d   1     -44.922  17.721  -4.308  0.00  0.00     0.108 C 
BRANCH  38  39
ATOM     39  S2  NON d   1     -45.943  17.534  -5.811  0.00  0.00    -0.091 SA
BRANCH  39  40
ATOM     40  C20 NON d   1     -46.733  16.007  -5.430  0.00  0.00     0.182 C 
ATOM     41  C21 NON d   1     -47.434  15.991  -4.102  0.00  0.00     0.104 C 
ATOM     42  O5  NON d   1     -46.691  15.044  -6.183  0.00  0.00    -0.286 OA
ENDBRANCH  39  40
ENDBRANCH  38  39
ENDBRANCH  37  38
ENDBRANCH  36  37
ENDBRANCH  35  36
ENDBRANCH  34  35
ENDBRANCH  12  34
TORSDOF 14
ENDMDL
MODEL 2
REMARK VINA RESULT:   -18.505      1.712      8.156
REMARK INTER + INTRA:         -24.194
REMARK INTER:                 -22.682
REMARK INTRA:                  -1.512
REMARK CONF_INDEPENDENT:        4.176
REMARK UNBOUND:                -1.512
REMARK  14 active torsions:
REMARK  status: ('A' for Active; 'I' for Inactive)
REMARK    1  A    between atoms: C2_2  and  S1_4 
REMARK    2  A    between atoms: S1_4  and  C3_5 
REMARK    3  A    between atoms: C3_5  and  C4_6 
REMARK    4  A    between atoms: C4_6  and  C5_7 
REMARK    5  A    between atoms: C5_7  and  C6_8 
REMARK    6  A    between atoms: C6_8  and  C7_9 
REMARK    7  A    between atoms: C8_10  and  C7_9 
REMARK    8  A    between atoms: C15_21  and  C16_22 
REMARK    9  A    between atoms: C16_22  and  C17_23 
REMARK   10  A    between atoms: C17_23  and  O4_24 
REMARK   11  A    between atoms: O4_24  and  C18_25 
REMARK   12  A    between atoms: C18_25  and  C19_26 
REMARK   13  A    between atoms: C19_26  and  S2_27 
REMARK   14  A    between atoms: S2_27  and  C20_28 
ROOT
ATOM      1  C8  NON d   1     -39.862  20.023  -3.513  0.00  0.00     0.155 C 
ATOM      2  N1  NON d   1     -40.275  21.399  -3.817  0.00  0.00    -0.248 NA
ATOM      3  C9  NON d   1     -40.459  22.382  -2.865  0.00  0.00     0.221 C 
ATOM      4  O2  NON d   1     -40.683  22.135  -1.684  0.00  0.00    -0.278 OA
ATOM      5  C10 NON d   1     -40.087  23.815  -3.367  0.00  0.00     0.173 C 
ATOM      6  C11 NON d   1     -40.817  24.892  -2.574  0.00  0.00     0.036 C 
ATOM      7  C12 NON d   1     -40.542  26.127  -3.415  0.00  0.00     0.022 C 
ATOM      8  C13 NON d   1     -40.629  25.614  -4.854  0.00  0.00     0.127 C 
ATOM      9  N2  NON d   1     -40.358  24.180  -4.782  0.00  0.00    -0.337 N 
ATOM     10  C14 NON d   1     -39.570  23.639  -5.783  0.00  0.00     0.243 C 
ATOM     11  O3  NON d   1     -38.547  23.007  -5.474  0.00  0.00    -0.271 OA
ATOM     12  C15 NON d   1     -40.152  23.488  -7.237  0.00  0.00     0.179 C 
ATOM     13  N3  NON d   1     -39.878  22.036  -7.405  0.00  0.00    -0.346 N 
ATOM     14  C22 NON d   1     -40.456  20.940  -8.045  0.00  0.00     0.246 C 
ATOM     15  O6  NON d   1     -41.359  20.984  -8.864  0.00  0.00    -0.271 OA
ATOM     16  C23 NON d   1     -39.705  19.656  -7.537  0.00  0.00     0.106 C 
ATOM     17  C24 NON d   1     -38.214  19.755  -7.965  0.00  0.00     0.048 C 
ATOM     18  C25 NON d   1     -39.931  18.139  -7.397  0.00  0.00     0.048 C 
ATOM     19  N4  NON d   1     -39.834  20.028  -5.996  0.00  0.00    -0.342 N 
ATOM     20  C26 NON d   1     -39.496  19.297  -4.859  0.00  0.00     0.236 C 
ATOM     21  O7  NON d   1     -38.942  18.204  -4.885  0.00  0.00    -0.272 OA
ATOM     22  H15 NON d   1     -39.697  21.765  -4.566  0.00  0.00     0.131 HD
ATOM     23  H35 NON d   1     -39.091  21.765  -6.808  0.00  0.00     0.163 HD
ATOM     24  H42 NON d   1     -40.628  20.638  -5.809  0.00  0.00     0.163 HD
ENDROOT
BRANCH   1  25
ATOM     25  C7  NON d   1     -40.667  19.170  -2.498  0.00  0.00     0.029 C 
BRANCH  25  26
ATOM     26  C6  NON d   1     -41.617  18.065  -2.986  0.00  0.00     0.002 C 
BRANCH  26  27
ATOM     27  C5  NON d   1     -42.469  18.493  -4.215  0.00  0.00     0.001 C 
BRANCH  27  28
ATOM     28  C4  NON d   1     -43.339  17.399  -4.864  0.00  0.00     0.010 C 
BRANCH  28  29
ATOM     29  C3  NON d   1     -44.795  17.395  -4.396  0.00  0.00     0.082 C 
BRANCH  29  30
ATOM     30  S1  NON d   1     -45.946  17.416  -5.810  0.00  0.00    -0.093 SA
BRANCH  30  31
ATOM     31  C2  NON d   1     -47.056  16.126  -5.370  0.00  0.00     0.182 C 
ATOM     32  C1  NON d   1     -47.443  16.115  -3.914  0.00  0.00     0.104 C 
ATOM     33  O1  NON d   1     -47.438  15.280  -6.170  0.00  0.00    -0.286 OA
ENDBRANCH  30  31
ENDBRANCH  29  30
ENDBRANCH  28  29
ENDBRANCH  27  28
ENDBRANCH  26  27
ENDBRANCH  25  26
ENDBRANCH   1  25
BRANCH  12  34
ATOM     34  C16 NON d   1     -39.311  24.260  -8.256  0.00  0.00     0.061 C 
BRANCH  34  35
ATOM     35  C17 NON d   1     -39.909  24.257  -9.656  0.00  0.00     0.170 C 
BRANCH  35  36
ATOM     36  O4  NON d   1     -39.340  25.306 -10.430  0.00  0.00    -0.390 OA
BRANCH  36  37
ATOM     37  C18 NON d   1     -39.925  25.446 -11.734  0.00  0.00     0.178 C 
BRANCH  37  38
ATOM     38  C19 NON d   1     -40.834  24.286 -12.167  0.00  0.00     0.108 C 
BRANCH  38  39
ATOM     39  S2  NON d   1     -40.006  23.143 -13.328  0.00  0.00    -0.091 SA
BRANCH  39  40
ATOM     40  C20 NON d   1     -39.129  22.149 -12.169  0.00  0.00     0.182 C 
ATOM     41  C21 NON d   1     -37.778  21.695 -12.645  0.00  0.00     0.104 C 
ATOM     42  O5  NON d   1     -39.598  21.846 -11.080  0.00  0.00    -0.286 OA
ENDBRANCH  39  40
ENDBRANCH  38  39
ENDBRANCH  37  38
ENDBRANCH  36  37
ENDBRANCH  35  36
ENDBRANCH  34  35
ENDBRANCH  12  34
TORSDOF 14
ENDMDL
MODEL 3
REMARK VINA RESULT:   -18.366      1.365      1.864
REMARK INTER + INTRA:         -24.131
REMARK INTER:                 -22.542
REMARK INTRA:                  -1.589
REMARK CONF_INDEPENDENT:        4.176
REMARK UNBOUND:                -1.589
REMARK  14 active torsions:
REMARK  status: ('A' for Active; 'I' for Inactive)
REMARK    1  A    between atoms: C2_2  and  S1_4 
REMARK    2  A    between atoms: S1_4  and  C3_5 
REMARK    3  A    between atoms: C3_5  and  C4_6 
REMARK    4  A    between atoms: C4_6  and  C5_7 
REMARK    5  A    between atoms: C5_7  and  C6_8 
REMARK    6  A    between atoms: C6_8  and  C7_9 
REMARK    7  A    between atoms: C8_10  and  C7_9 
REMARK    8  A    between atoms: C15_21  and  C16_22 
REMARK    9  A    between atoms: C16_22  and  C17_23 
REMARK   10  A    between atoms: C17_23  and  O4_24 
REMARK   11  A    between atoms: O4_24  and  C18_25 
REMARK   12  A    between atoms: C18_25  and  C19_26 
REMARK   13  A    between atoms: C19_26  and  S2_27 
REMARK   14  A    between atoms: S2_27  and  C20_28 
ROOT
ATOM      1  C8  NON d   1     -39.793  23.020  -7.421  0.00  0.00     0.155 C 
ATOM      2  N1  NON d   1     -39.745  22.867  -5.962  0.00  0.00    -0.248 NA
ATOM      3  C9  NON d   1     -40.146  23.837  -5.066  0.00  0.00     0.221 C 
ATOM      4  O2  NON d   1     -40.204  25.029  -5.354  0.00  0.00    -0.278 OA
ATOM      5  C10 NON d   1     -40.772  23.259  -3.756  0.00  0.00     0.173 C 
ATOM      6  C11 NON d   1     -40.659  24.244  -2.600  0.00  0.00     0.036 C 
ATOM      7  C12 NON d   1     -41.040  23.370  -1.417  0.00  0.00     0.022 C 
ATOM      8  C13 NON d   1     -40.396  22.020  -1.740  0.00  0.00     0.127 C 
ATOM      9  N2  NON d   1     -40.231  21.994  -3.191  0.00  0.00    -0.337 N 
ATOM     10  C14 NON d   1     -40.499  20.798  -3.834  0.00  0.00     0.243 C 
ATOM     11  O3  NON d   1     -41.328  20.779  -4.757  0.00  0.00    -0.271 OA
ATOM     12  C15 NON d   1     -39.509  19.586  -3.669  0.00  0.00     0.179 C 
ATOM     13  N3  NON d   1     -39.273  19.332  -5.115  0.00  0.00    -0.346 N 
ATOM     14  C22 NON d   1     -38.234  18.887  -5.932  0.00  0.00     0.246 C 
ATOM     15  O6  NON d   1     -37.193  18.379  -5.552  0.00  0.00    -0.271 OA
ATOM     16  C23 NON d   1     -38.676  19.134  -7.420  0.00  0.00     0.106 C 
ATOM     17  C24 NON d   1     -39.940  18.276  -7.708  0.00  0.00     0.048 C 
ATOM     18  C25 NON d   1     -38.054  19.323  -8.816  0.00  0.00     0.048 C 
ATOM     19  N4  NON d   1     -39.111  20.645  -7.181  0.00  0.00    -0.342 N 
ATOM     20  C26 NON d   1     -39.523  21.620  -8.086  0.00  0.00     0.236 C 
ATOM     21  O7  NON d   1     -39.691  21.420  -9.283  0.00  0.00    -0.272 OA
ATOM     22  H15 NON d   1     -40.167  21.981  -5.704  0.00  0.00     0.131 HD
ATOM     23  H35 NON d   1     -40.078  19.661  -5.656  0.00  0.00     0.163 HD
ATOM     24  H42 NON d   1     -38.626  21.068  -6.391  0.00  0.00     0.163 HD
ENDROOT
BRANCH   1  25
ATOM     25  C7  NON d   1     -39.094  24.224  -8.106  0.00  0.00     0.029 C 
BRANCH  25  26
ATOM     26  C6  NON d   1     -38.933  24.268  -9.634  0.00  0.00     0.002 C 
BRANCH  26  27
ATOM     27  C5  NON d   1     -40.209  24.774 -10.367  0.00  0.00     0.001 C 
BRANCH  27  28
ATOM     28  C4  NON d   1     -39.995  25.443 -11.738  0.00  0.00     0.010 C 
BRANCH  28  29
ATOM     29  C3  NON d   1     -39.379  24.526 -12.796  0.00  0.00     0.082 C 
BRANCH  29  30
ATOM     30  S1  NON d   1     -39.637  22.769 -12.382  0.00  0.00    -0.093 SA
BRANCH  30  31
ATOM     31  C2  NON d   1     -37.980  22.194 -12.271  0.00  0.00     0.182 C 
ATOM     32  C1  NON d   1     -37.687  20.989 -13.126  0.00  0.00     0.104 C 
ATOM     33  O1  NON d   1     -37.152  22.700 -11.524  0.00  0.00    -0.286 OA
ENDBRANCH  30  31
ENDBRANCH  29  30
ENDBRANCH  28  29
ENDBRANCH  27  28
ENDBRANCH  26  27
ENDBRANCH  25  26
ENDBRANCH   1  25
BRANCH  12  34
ATOM     34  C16 NON d   1     -40.216  18.367  -3.072  0.00  0.00     0.061 C 
BRANCH  34  35
ATOM     35  C17 NON d   1     -41.729  18.411  -3.229  0.00  0.00     0.170 C 
BRANCH  35  36
ATOM     36  O4  NON d   1     -42.093  18.031  -4.550  0.00  0.00    -0.390 OA
BRANCH  36  37
ATOM     37  C18 NON d   1     -43.431  18.409  -4.913  0.00  0.00     0.178 C 
BRANCH  37  38
ATOM     38  C19 NON d   1     -44.490  17.313  -4.723  0.00  0.00     0.108 C 
BRANCH  38  39
ATOM     39  S2  NON d   1     -45.940  17.546  -5.810  0.00  0.00    -0.091 SA
BRANCH  39  40
ATOM     40  C20 NON d   1     -46.806  16.056  -5.450  0.00  0.00     0.182 C 
ATOM     41  C21 NON d   1     -47.673  16.126  -4.226  0.00  0.00     0.104 C 
ATOM     42  O5  NON d   1     -46.688  15.049  -6.136  0.00  0.00    -0.286 OA
ENDBRANCH  39  40
ENDBRANCH  38  39
ENDBRANCH  37  38
ENDBRANCH  36  37
ENDBRANCH  35  36
ENDBRANCH  34  35
ENDBRANCH  12  34
TORSDOF 14
ENDMDL
MODEL 4
REMARK VINA RESULT:   -18.322      3.276      8.370
REMARK INTER + INTRA:         -23.846
REMARK INTER:                 -22.498
REMARK INTRA:                  -1.348
REMARK CONF_INDEPENDENT:        4.176
REMARK UNBOUND:                -1.348
REMARK  14 active torsions:
REMARK  status: ('A' for Active; 'I' for Inactive)
REMARK    1  A    between atoms: C2_2  and  S1_4 
REMARK    2  A    between atoms: S1_4  and  C3_5 
REMARK    3  A    between atoms: C3_5  and  C4_6 
REMARK    4  A    between atoms: C4_6  and  C5_7 
REMARK    5  A    between atoms: C5_7  and  C6_8 
REMARK    6  A    between atoms: C6_8  and  C7_9 
REMARK    7  A    between atoms: C8_10  and  C7_9 
REMARK    8  A    between atoms: C15_21  and  C16_22 
REMARK    9  A    between atoms: C16_22  and  C17_23 
REMARK   10  A    between atoms: C17_23  and  O4_24 
REMARK   11  A    between atoms: O4_24  and  C18_25 
REMARK   12  A    between atoms: C18_25  and  C19_26 
REMARK   13  A    between atoms: C19_26  and  S2_27 
REMARK   14  A    between atoms: S2_27  and  C20_28 
ROOT
ATOM      1  C8  NON d   1     -39.860  19.158  -5.564  0.00  0.00     0.155 C 
ATOM      2  N1  NON d   1     -39.944  20.166  -4.500  0.00  0.00    -0.248 NA
ATOM      3  C9  NON d   1     -40.072  19.868  -3.158  0.00  0.00     0.221 C 
ATOM      4  O2  NON d   1     -40.516  18.798  -2.751  0.00  0.00    -0.278 OA
ATOM      5  C10 NON d   1     -39.354  20.890  -2.219  0.00  0.00     0.173 C 
ATOM      6  C11 NON d   1     -39.969  20.896  -0.825  0.00  0.00     0.036 C 
ATOM      7  C12 NON d   1     -39.333  22.136  -0.218  0.00  0.00     0.022 C 
ATOM      8  C13 NON d   1     -39.301  23.134  -1.378  0.00  0.00     0.127 C 
ATOM      9  N2  NON d   1     -39.332  22.328  -2.597  0.00  0.00    -0.337 N 
ATOM     10  C14 NON d   1     -38.524  22.741  -3.643  0.00  0.00     0.243 C 
ATOM     11  O3  NON d   1     -37.704  21.943  -4.125  0.00  0.00    -0.271 OA
ATOM     12  C15 NON d   1     -38.898  24.036  -4.452  0.00  0.00     0.179 C 
ATOM     13  N3  NON d   1     -38.894  23.425  -5.808  0.00  0.00    -0.346 N 
ATOM     14  C22 NON d   1     -39.573  23.580  -7.016  0.00  0.00     0.246 C 
ATOM     15  O6  NON d   1     -40.315  24.502  -7.306  0.00  0.00    -0.271 OA
ATOM     16  C23 NON d   1     -39.175  22.366  -7.931  0.00  0.00     0.106 C 
ATOM     17  C24 NON d   1     -37.646  22.435  -8.206  0.00  0.00     0.048 C 
ATOM     18  C25 NON d   1     -39.713  21.576  -9.139  0.00  0.00     0.048 C 
ATOM     19  N4  NON d   1     -39.459  21.262  -6.820  0.00  0.00    -0.342 N 
ATOM     20  C26 NON d   1     -39.446  19.873  -6.903  0.00  0.00     0.236 C 
ATOM     21  O7  NON d   1     -39.120  19.247  -7.906  0.00  0.00    -0.272 OA
ATOM     22  H15 NON d   1     -39.199  20.844  -4.621  0.00  0.00     0.131 HD
ATOM     23  H35 NON d   1     -38.274  22.609  -5.813  0.00  0.00     0.163 HD
ATOM     24  H42 NON d   1     -40.136  21.576  -6.126  0.00  0.00     0.163 HD
ENDROOT
BRANCH   1  25
ATOM     25  C7  NON d   1     -40.961  18.074  -5.706  0.00  0.00     0.029 C 
BRANCH  25  26
ATOM     26  C6  NON d   1     -42.400  18.358  -5.248  0.00  0.00     0.002 C 
BRANCH  26  27
ATOM     27  C5  NON d   1     -43.171  17.073  -4.830  0.00  0.00     0.001 C 
BRANCH  27  28
ATOM     28  C4  NON d   1     -43.963  17.144  -3.511  0.00  0.00     0.010 C 
BRANCH  28  29
ATOM     29  C3  NON d   1     -45.482  17.109  -3.686  0.00  0.00     0.082 C 
BRANCH  29  30
ATOM     30  S1  NON d   1     -45.942  16.877  -5.435  0.00  0.00    -0.093 SA
BRANCH  30  31
ATOM     31  C2  NON d   1     -47.304  15.775  -5.291  0.00  0.00     0.182 C 
ATOM     32  C1  NON d   1     -47.991  15.816  -3.950  0.00  0.00     0.104 C 
ATOM     33  O1  NON d   1     -47.631  15.005  -6.185  0.00  0.00    -0.286 OA
ENDBRANCH  30  31
ENDBRANCH  29  30
ENDBRANCH  28  29
ENDBRANCH  27  28
ENDBRANCH  26  27
ENDBRANCH  25  26
ENDBRANCH   1  25
BRANCH  12  34
ATOM     34  C16 NON d   1     -37.778  25.077  -4.386  0.00  0.00     0.061 C 
BRANCH  34  35
ATOM     35  C17 NON d   1     -38.078  26.225  -3.433  0.00  0.00     0.170 C 
BRANCH  35  36
ATOM     36  O4  NON d   1     -39.125  25.859  -2.543  0.00  0.00    -0.390 OA
BRANCH  36  37
ATOM     37  C18 NON d   1     -39.787  26.979  -1.935  0.00  0.00     0.178 C 
BRANCH  37  38
ATOM     38  C19 NON d   1     -40.979  26.622  -1.036  0.00  0.00     0.108 C 
BRANCH  38  39
ATOM     39  S2  NON d   1     -40.707  27.097   0.708  0.00  0.00    -0.091 SA
BRANCH  39  40
ATOM     40  C20 NON d   1     -41.302  25.639   1.495  0.00  0.00     0.182 C 
ATOM     41  C21 NON d   1     -41.508  24.477   0.566  0.00  0.00     0.104 C 
ATOM     42  O5  NON d   1     -41.541  25.595   2.695  0.00  0.00    -0.286 OA
ENDBRANCH  39  40
ENDBRANCH  38  39
ENDBRANCH  37  38
ENDBRANCH  36  37
ENDBRANCH  35  36
ENDBRANCH  34  35
ENDBRANCH  12  34
TORSDOF 14
ENDMDL
MODEL 5
REMARK VINA RESULT:   -18.309      3.102      8.761
REMARK INTER + INTRA:         -24.349
REMARK INTER:                 -22.486
REMARK INTRA:                  -1.863
REMARK CONF_INDEPENDENT:        4.176
REMARK UNBOUND:                -1.863
REMARK  14 active torsions:
REMARK  status: ('A' for Active; 'I' for Inactive)
REMARK    1  A    between atoms: C2_2  and  S1_4 
REMARK    2  A    between atoms: S1_4  and  C3_5 
REMARK    3  A    between atoms: C3_5  and  C4_6 
REMARK    4  A    between atoms: C4_6  and  C5_7 
REMARK    5  A    between atoms: C5_7  and  C6_8 
REMARK    6  A    between atoms: C6_8  and  C7_9 
REMARK    7  A    between atoms: C8_10  and  C7_9 
REMARK    8  A    between atoms: C15_21  and  C16_22 
REMARK    9  A    between atoms: C16_22  and  C17_23 
REMARK   10  A    between atoms: C17_23  and  O4_24 
REMARK   11  A    between atoms: O4_24  and  C18_25 
REMARK   12  A    between atoms: C18_25  and  C19_26 
REMARK   13  A    between atoms: C19_26  and  S2_27 
REMARK   14  A    between atoms: S2_27  and  C20_28 
ROOT
ATOM      1  C8  NON d   1     -40.944  19.663  -5.541  0.00  0.00     0.155 C 
ATOM      2  N1  NON d   1     -40.167  20.552  -6.412  0.00  0.00    -0.248 NA
ATOM      3  C9  NON d   1     -40.258  20.563  -7.790  0.00  0.00     0.221 C 
ATOM      4  O2  NON d   1     -40.672  19.608  -8.439  0.00  0.00    -0.278 OA
ATOM      5  C10 NON d   1     -40.049  21.979  -8.419  0.00  0.00     0.173 C 
ATOM      6  C11 NON d   1     -39.578  21.884  -9.865  0.00  0.00     0.036 C 
ATOM      7  C12 NON d   1     -39.165  23.319 -10.145  0.00  0.00     0.022 C 
ATOM      8  C13 NON d   1     -38.517  23.774  -8.836  0.00  0.00     0.127 C 
ATOM      9  N2  NON d   1     -39.074  22.912  -7.795  0.00  0.00    -0.337 N 
ATOM     10  C14 NON d   1     -39.389  23.510  -6.586  0.00  0.00     0.243 C 
ATOM     11  O3  NON d   1     -40.541  23.399  -6.138  0.00  0.00    -0.271 OA
ATOM     12  C15 NON d   1     -38.235  23.977  -5.625  0.00  0.00     0.179 C 
ATOM     13  N3  NON d   1     -38.685  23.244  -4.412  0.00  0.00    -0.346 N 
ATOM     14  C22 NON d   1     -38.111  22.616  -3.307  0.00  0.00     0.246 C 
ATOM     15  O6  NON d   1     -36.941  22.691  -2.971  0.00  0.00    -0.271 OA
ATOM     16  C23 NON d   1     -39.255  21.829  -2.573  0.00  0.00     0.106 C 
ATOM     17  C24 NON d   1     -40.313  22.852  -2.070  0.00  0.00     0.048 C 
ATOM     18  C25 NON d   1     -39.436  20.637  -1.614  0.00  0.00     0.048 C 
ATOM     19  N4  NON d   1     -39.796  21.119  -3.890  0.00  0.00    -0.342 N 
ATOM     20  C26 NON d   1     -40.771  20.138  -4.051  0.00  0.00     0.236 C 
ATOM     21  O7  NON d   1     -41.457  19.693  -3.138  0.00  0.00    -0.272 OA
ATOM     22  H15 NON d   1     -40.235  21.504  -6.067  0.00  0.00     0.131 HD
ATOM     23  H35 NON d   1     -39.698  23.093  -4.460  0.00  0.00     0.163 HD
ATOM     24  H42 NON d   1     -39.079  21.037  -4.609  0.00  0.00     0.163 HD
ENDROOT
BRANCH   1  25
ATOM     25  C7  NON d   1     -40.906  18.127  -5.755  0.00  0.00     0.029 C 
BRANCH  25  26
ATOM     26  C6  NON d   1     -42.136  17.263  -5.436  0.00  0.00     0.002 C 
BRANCH  26  27
ATOM     27  C5  NON d   1     -43.221  18.024  -4.620  0.00  0.00     0.001 C 
BRANCH  27  28
ATOM     28  C4  NON d   1     -43.958  17.216  -3.535  0.00  0.00     0.010 C 
BRANCH  28  29
ATOM     29  C3  NON d   1     -45.479  17.184  -3.701  0.00  0.00     0.082 C 
BRANCH  29  30
ATOM     30  S1  NON d   1     -45.951  16.878  -5.435  0.00  0.00    -0.093 SA
BRANCH  30  31
ATOM     31  C2  NON d   1     -47.201  15.657  -5.242  0.00  0.00     0.182 C 
ATOM     32  C1  NON d   1     -47.632  15.437  -3.815  0.00  0.00     0.104 C 
ATOM     33  O1  NON d   1     -47.644  15.008  -6.182  0.00  0.00    -0.286 OA
ENDBRANCH  30  31
ENDBRANCH  29  30
ENDBRANCH  28  29
ENDBRANCH  27  28
ENDBRANCH  26  27
ENDBRANCH  25  26
ENDBRANCH   1  25
BRANCH  12  34
ATOM     34  C16 NON d   1     -38.319  25.478  -5.342  0.00  0.00     0.061 C 
BRANCH  34  35
ATOM     35  C17 NON d   1     -38.940  25.803  -3.991  0.00  0.00     0.170 C 
BRANCH  35  36
ATOM     36  O4  NON d   1     -40.253  25.261  -3.915  0.00  0.00    -0.390 OA
BRANCH  36  37
ATOM     37  C18 NON d   1     -41.070  25.862  -2.899  0.00  0.00     0.178 C 
BRANCH  37  38
ATOM     38  C19 NON d   1     -40.306  26.379  -1.671  0.00  0.00     0.108 C 
BRANCH  38  39
ATOM     39  S2  NON d   1     -41.400  26.661  -0.235  0.00  0.00    -0.091 SA
BRANCH  39  40
ATOM     40  C20 NON d   1     -40.805  25.390   0.828  0.00  0.00     0.182 C 
ATOM     41  C21 NON d   1     -39.476  24.820   0.424  0.00  0.00     0.104 C 
ATOM     42  O5  NON d   1     -41.440  24.999   1.799  0.00  0.00    -0.286 OA
ENDBRANCH  39  40
ENDBRANCH  38  39
ENDBRANCH  37  38
ENDBRANCH  36  37
ENDBRANCH  35  36
ENDBRANCH  34  35
ENDBRANCH  12  34
TORSDOF 14
ENDMDL
MODEL 6
REMARK VINA RESULT:   -18.105      1.500      1.932
REMARK INTER + INTRA:         -23.877
REMARK INTER:                 -22.281
REMARK INTRA:                  -1.596
REMARK CONF_INDEPENDENT:        4.176
REMARK UNBOUND:                -1.596
REMARK  14 active torsions:
REMARK  status: ('A' for Active; 'I' for Inactive)
REMARK    1  A    between atoms: C2_2  and  S1_4 
REMARK    2  A    between atoms: S1_4  and  C3_5 
REMARK    3  A    between atoms: C3_5  and  C4_6 
REMARK    4  A    between atoms: C4_6  and  C5_7 
REMARK    5  A    between atoms: C5_7  and  C6_8 
REMARK    6  A    between atoms: C6_8  and  C7_9 
REMARK    7  A    between atoms: C8_10  and  C7_9 
REMARK    8  A    between atoms: C15_21  and  C16_22 
REMARK    9  A    between atoms: C16_22  and  C17_23 
REMARK   10  A    between atoms: C17_23  and  O4_24 
REMARK   11  A    between atoms: O4_24  and  C18_25 
REMARK   12  A    between atoms: C18_25  and  C19_26 
REMARK   13  A    between atoms: C19_26  and  S2_27 
REMARK   14  A    between atoms: S2_27  and  C20_28 
ROOT
ATOM      1  C8  NON d   1     -39.860  24.063  -6.265  0.00  0.00     0.155 C 
ATOM      2  N1  NON d   1     -39.656  23.168  -5.119  0.00  0.00    -0.248 NA
ATOM      3  C9  NON d   1     -39.645  23.582  -3.802  0.00  0.00     0.221 C 
ATOM      4  O2  NON d   1     -39.410  24.740  -3.469  0.00  0.00    -0.278 OA
ATOM      5  C10 NON d   1     -40.221  22.523  -2.808  0.00  0.00     0.173 C 
ATOM      6  C11 NON d   1     -39.681  22.728  -1.398  0.00  0.00     0.036 C 
ATOM      7  C12 NON d   1     -40.123  21.446  -0.714  0.00  0.00     0.022 C 
ATOM      8  C13 NON d   1     -39.929  20.374  -1.789  0.00  0.00     0.127 C 
ATOM      9  N2  NON d   1     -39.978  21.079  -3.068  0.00  0.00    -0.337 N 
ATOM     10  C14 NON d   1     -40.653  20.456  -4.104  0.00  0.00     0.243 C 
ATOM     11  O3  NON d   1     -41.574  21.060  -4.676  0.00  0.00    -0.271 OA
ATOM     12  C15 NON d   1     -40.024  19.188  -4.791  0.00  0.00     0.179 C 
ATOM     13  N3  NON d   1     -40.069  19.687  -6.192  0.00  0.00    -0.346 N 
ATOM     14  C22 NON d   1     -39.317  19.563  -7.360  0.00  0.00     0.246 C 
ATOM     15  O6  NON d   1     -38.414  18.765  -7.548  0.00  0.00    -0.271 OA
ATOM     16  C23 NON d   1     -39.873  20.618  -8.383  0.00  0.00     0.106 C 
ATOM     17  C24 NON d   1     -41.352  20.262  -8.703  0.00  0.00     0.048 C 
ATOM     18  C25 NON d   1     -39.421  21.397  -9.633  0.00  0.00     0.048 C 
ATOM     19  N4  NON d   1     -39.835  21.833  -7.357  0.00  0.00    -0.342 N 
ATOM     20  C26 NON d   1     -40.082  23.189  -7.554  0.00  0.00     0.236 C 
ATOM     21  O7  NON d   1     -40.462  23.672  -8.615  0.00  0.00    -0.272 OA
ATOM     22  H15 NON d   1     -40.267  22.363  -5.209  0.00  0.00     0.131 HD
ATOM     23  H35 NON d   1     -40.818  20.380  -6.285  0.00  0.00     0.163 HD
ATOM     24  H42 NON d   1     -39.148  21.695  -6.618  0.00  0.00     0.163 HD
ENDROOT
BRANCH   1  25
ATOM     25  C7  NON d   1     -38.956  25.309  -6.456  0.00  0.00     0.029 C 
BRANCH  25  26
ATOM     26  C6  NON d   1     -37.684  25.227  -7.315  0.00  0.00     0.002 C 
BRANCH  26  27
ATOM     27  C5  NON d   1     -37.935  25.570  -8.811  0.00  0.00     0.001 C 
BRANCH  27  28
ATOM     28  C4  NON d   1     -39.212  26.371  -9.129  0.00  0.00     0.010 C 
BRANCH  28  29
ATOM     29  C3  NON d   1     -39.948  25.908 -10.387  0.00  0.00     0.082 C 
BRANCH  29  30
ATOM     30  S1  NON d   1     -38.839  24.987 -11.503  0.00  0.00    -0.093 SA
BRANCH  30  31
ATOM     31  C2  NON d   1     -39.993  24.044 -12.435  0.00  0.00     0.182 C 
ATOM     32  C1  NON d   1     -40.667  24.813 -13.542  0.00  0.00     0.104 C 
ATOM     33  O1  NON d   1     -40.262  22.879 -12.172  0.00  0.00    -0.286 OA
ENDBRANCH  30  31
ENDBRANCH  29  30
ENDBRANCH  28  29
ENDBRANCH  27  28
ENDBRANCH  26  27
ENDBRANCH  25  26
ENDBRANCH   1  25
BRANCH  12  34
ATOM     34  C16 NON d   1     -40.951  17.976  -4.679  0.00  0.00     0.061 C 
BRANCH  34  35
ATOM     35  C17 NON d   1     -41.610  17.846  -3.313  0.00  0.00     0.170 C 
BRANCH  35  36
ATOM     36  O4  NON d   1     -42.671  16.900  -3.371  0.00  0.00    -0.390 OA
BRANCH  36  37
ATOM     37  C18 NON d   1     -43.487  17.017  -4.547  0.00  0.00     0.178 C 
BRANCH  37  38
ATOM     38  C19 NON d   1     -44.916  17.520  -4.300  0.00  0.00     0.108 C 
BRANCH  38  39
ATOM     39  S2  NON d   1     -45.946  17.471  -5.809  0.00  0.00    -0.091 SA
BRANCH  39  40
ATOM     40  C20 NON d   1     -46.861  16.003  -5.480  0.00  0.00     0.182 C 
ATOM     41  C21 NON d   1     -47.734  16.082  -4.261  0.00  0.00     0.104 C 
ATOM     42  O5  NON d   1     -46.769  15.005  -6.182  0.00  0.00    -0.286 OA
ENDBRANCH  39  40
ENDBRANCH  38  39
ENDBRANCH  37  38
ENDBRANCH  36  37
ENDBRANCH  35  36
ENDBRANCH  34  35
ENDBRANCH  12  34
TORSDOF 14
ENDMDL
MODEL 7
REMARK VINA RESULT:   -17.825      2.084      8.807
REMARK INTER + INTRA:         -24.177
REMARK INTER:                 -22.001
REMARK INTRA:                  -2.176
REMARK CONF_INDEPENDENT:        4.176
REMARK UNBOUND:                -2.176
REMARK  14 active torsions:
REMARK  status: ('A' for Active; 'I' for Inactive)
REMARK    1  A    between atoms: C2_2  and  S1_4 
REMARK    2  A    between atoms: S1_4  and  C3_5 
REMARK    3  A    between atoms: C3_5  and  C4_6 
REMARK    4  A    between atoms: C4_6  and  C5_7 
REMARK    5  A    between atoms: C5_7  and  C6_8 
REMARK    6  A    between atoms: C6_8  and  C7_9 
REMARK    7  A    between atoms: C8_10  and  C7_9 
REMARK    8  A    between atoms: C15_21  and  C16_22 
REMARK    9  A    between atoms: C16_22  and  C17_23 
REMARK   10  A    between atoms: C17_23  and  O4_24 
REMARK   11  A    between atoms: O4_24  and  C18_25 
REMARK   12  A    between atoms: C18_25  and  C19_26 
REMARK   13  A    between atoms: C19_26  and  S2_27 
REMARK   14  A    between atoms: S2_27  and  C20_28 
ROOT
ATOM      1  C8  NON d   1     -40.721  19.550  -5.878  0.00  0.00     0.155 C 
ATOM      2  N1  NON d   1     -39.463  19.845  -6.574  0.00  0.00    -0.248 NA
ATOM      3  C9  NON d   1     -38.997  19.141  -7.667  0.00  0.00     0.221 C 
ATOM      4  O2  NON d   1     -39.352  17.995  -7.923  0.00  0.00    -0.278 OA
ATOM      5  C10 NON d   1     -38.202  20.022  -8.685  0.00  0.00     0.173 C 
ATOM      6  C11 NON d   1     -37.240  19.183  -9.517  0.00  0.00     0.036 C 
ATOM      7  C12 NON d   1     -36.397  20.257 -10.183  0.00  0.00     0.022 C 
ATOM      8  C13 NON d   1     -36.225  21.314  -9.090  0.00  0.00     0.127 C 
ATOM      9  N2  NON d   1     -37.348  21.127  -8.175  0.00  0.00    -0.337 N 
ATOM     10  C14 NON d   1     -37.949  22.270  -7.675  0.00  0.00     0.243 C 
ATOM     11  O3  NON d   1     -39.171  22.427  -7.827  0.00  0.00    -0.271 OA
ATOM     12  C15 NON d   1     -37.191  23.149  -6.614  0.00  0.00     0.179 C 
ATOM     13  N3  NON d   1     -38.255  23.159  -5.575  0.00  0.00    -0.346 N 
ATOM     14  C22 NON d   1     -38.345  23.186  -4.184  0.00  0.00     0.246 C 
ATOM     15  O6  NON d   1     -37.426  23.405  -3.412  0.00  0.00    -0.271 OA
ATOM     16  C23 NON d   1     -39.846  22.913  -3.810  0.00  0.00     0.106 C 
ATOM     17  C24 NON d   1     -40.715  24.066  -4.388  0.00  0.00     0.048 C 
ATOM     18  C25 NON d   1     -40.690  22.395  -2.630  0.00  0.00     0.048 C 
ATOM     19  N4  NON d   1     -39.986  21.632  -4.743  0.00  0.00    -0.342 N 
ATOM     20  C26 NON d   1     -41.034  20.726  -4.881  0.00  0.00     0.236 C 
ATOM     21  O7  NON d   1     -42.114  20.831  -4.310  0.00  0.00    -0.272 OA
ATOM     22  H15 NON d   1     -39.416  20.839  -6.774  0.00  0.00     0.131 HD
ATOM     23  H35 NON d   1     -39.168  23.021  -6.020  0.00  0.00     0.163 HD
ATOM     24  H42 NON d   1     -39.090  21.177  -4.913  0.00  0.00     0.163 HD
ENDROOT
BRANCH   1  25
ATOM     25  C7  NON d   1     -40.997  18.125  -5.329  0.00  0.00     0.029 C 
BRANCH  25  26
ATOM     26  C6  NON d   1     -41.208  17.895  -3.824  0.00  0.00     0.002 C 
BRANCH  26  27
ATOM     27  C5  NON d   1     -42.560  17.198  -3.497  0.00  0.00     0.001 C 
BRANCH  27  28
ATOM     28  C4  NON d   1     -43.565  17.068  -4.657  0.00  0.00     0.010 C 
BRANCH  28  29
ATOM     29  C3  NON d   1     -44.932  17.695  -4.378  0.00  0.00     0.082 C 
BRANCH  29  30
ATOM     30  S1  NON d   1     -46.045  17.526  -5.812  0.00  0.00    -0.093 SA
BRANCH  30  31
ATOM     31  C2  NON d   1     -46.825  15.990  -5.465  0.00  0.00     0.182 C 
ATOM     32  C1  NON d   1     -47.604  15.972  -4.175  0.00  0.00     0.104 C 
ATOM     33  O1  NON d   1     -46.702  15.007  -6.185  0.00  0.00    -0.286 OA
ENDBRANCH  30  31
ENDBRANCH  29  30
ENDBRANCH  28  29
ENDBRANCH  27  28
ENDBRANCH  26  27
ENDBRANCH  25  26
ENDBRANCH   1  25
BRANCH  12  34
ATOM     34  C16 NON d   1     -36.991  24.580  -7.117  0.00  0.00     0.061 C 
BRANCH  34  35
ATOM     35  C17 NON d   1     -38.107  25.526  -6.698  0.00  0.00     0.170 C 
BRANCH  35  36
ATOM     36  O4  NON d   1     -38.812  25.987  -7.845  0.00  0.00    -0.390 OA
BRANCH  36  37
ATOM     37  C18 NON d   1     -40.083  25.348  -8.039  0.00  0.00     0.178 C 
BRANCH  37  38
ATOM     38  C19 NON d   1     -40.353  24.858  -9.469  0.00  0.00     0.108 C 
BRANCH  38  39
ATOM     39  S2  NON d   1     -38.814  24.578 -10.415  0.00  0.00    -0.091 SA
BRANCH  39  40
ATOM     40  C20 NON d   1     -39.195  23.010 -11.118  0.00  0.00     0.182 C 
ATOM     41  C21 NON d   1     -39.474  23.047 -12.593  0.00  0.00     0.104 C 
ATOM     42  O5  NON d   1     -39.245  21.987 -10.447  0.00  0.00    -0.286 OA
ENDBRANCH  39  40
ENDBRANCH  38  39
ENDBRANCH  37  38
ENDBRANCH  36  37
ENDBRANCH  35  36
ENDBRANCH  34  35
ENDBRANCH  12  34
TORSDOF 14
ENDMDL
MODEL 8
REMARK VINA RESULT:   -16.651      2.683      4.120
REMARK INTER + INTRA:         -24.510
REMARK INTER:                 -20.827
REMARK INTRA:                  -3.683
REMARK CONF_INDEPENDENT:        4.176
REMARK UNBOUND:                -3.683
REMARK  14 active torsions:
REMARK  status: ('A' for Active; 'I' for Inactive)
REMARK    1  A    between atoms: C2_2  and  S1_4 
REMARK    2  A    between atoms: S1_4  and  C3_5 
REMARK    3  A    between atoms: C3_5  and  C4_6 
REMARK    4  A    between atoms: C4_6  and  C5_7 
REMARK    5  A    between atoms: C5_7  and  C6_8 
REMARK    6  A    between atoms: C6_8  and  C7_9 
REMARK    7  A    between atoms: C8_10  and  C7_9 
REMARK    8  A    between atoms: C15_21  and  C16_22 
REMARK    9  A    between atoms: C16_22  and  C17_23 
REMARK   10  A    between atoms: C17_23  and  O4_24 
REMARK   11  A    between atoms: O4_24  and  C18_25 
REMARK   12  A    between atoms: C18_25  and  C19_26 
REMARK   13  A    between atoms: C19_26  and  S2_27 
REMARK   14  A    between atoms: S2_27  and  C20_28 
ROOT
ATOM      1  C8  NON d   1     -39.919  23.065  -7.405  0.00  0.00     0.155 C 
ATOM      2  N1  NON d   1     -39.857  22.903  -5.948  0.00  0.00    -0.248 NA
ATOM      3  C9  NON d   1     -40.278  23.857  -5.042  0.00  0.00     0.221 C 
ATOM      4  O2  NON d   1     -40.371  25.048  -5.323  0.00  0.00    -0.278 OA
ATOM      5  C10 NON d   1     -40.881  23.253  -3.733  0.00  0.00     0.173 C 
ATOM      6  C11 NON d   1     -40.786  24.234  -2.570  0.00  0.00     0.036 C 
ATOM      7  C12 NON d   1     -41.137  23.342  -1.391  0.00  0.00     0.022 C 
ATOM      8  C13 NON d   1     -40.458  22.012  -1.727  0.00  0.00     0.127 C 
ATOM      9  N2  NON d   1     -40.301  22.000  -3.180  0.00  0.00    -0.337 N 
ATOM     10  C14 NON d   1     -40.541  20.801  -3.828  0.00  0.00     0.243 C 
ATOM     11  O3  NON d   1     -41.375  20.765  -4.747  0.00  0.00    -0.271 OA
ATOM     12  C15 NON d   1     -39.518  19.616  -3.677  0.00  0.00     0.179 C 
ATOM     13  N3  NON d   1     -39.283  19.377  -5.126  0.00  0.00    -0.346 N 
ATOM     14  C22 NON d   1     -38.239  18.966  -5.953  0.00  0.00     0.246 C 
ATOM     15  O6  NON d   1     -37.181  18.484  -5.583  0.00  0.00    -0.271 OA
ATOM     16  C23 NON d   1     -38.696  19.210  -7.436  0.00  0.00     0.106 C 
ATOM     17  C24 NON d   1     -39.938  18.320  -7.722  0.00  0.00     0.048 C 
ATOM     18  C25 NON d   1     -38.088  19.425  -8.835  0.00  0.00     0.048 C 
ATOM     19  N4  NON d   1     -39.170  20.708  -7.185  0.00  0.00    -0.342 N 
ATOM     20  C26 NON d   1     -39.615  21.677  -8.080  0.00  0.00     0.236 C 
ATOM     21  O7  NON d   1     -39.785  21.479  -9.278  0.00  0.00    -0.272 OA
ATOM     22  H15 NON d   1     -40.253  22.005  -5.693  0.00  0.00     0.131 HD
ATOM     23  H35 NON d   1     -40.101  19.688  -5.661  0.00  0.00     0.163 HD
ATOM     24  H42 NON d   1     -38.692  21.139  -6.395  0.00  0.00     0.163 HD
ENDROOT
BRANCH   1  25
ATOM     25  C7  NON d   1     -39.257  24.291  -8.087  0.00  0.00     0.029 C 
BRANCH  25  26
ATOM     26  C6  NON d   1     -37.731  24.469  -8.064  0.00  0.00     0.002 C 
BRANCH  26  27
ATOM     27  C5  NON d   1     -36.969  23.153  -7.732  0.00  0.00     0.001 C 
BRANCH  27  28
ATOM     28  C4  NON d   1     -36.342  23.056  -6.328  0.00  0.00     0.010 C 
BRANCH  28  29
ATOM     29  C3  NON d   1     -36.416  24.350  -5.516  0.00  0.00     0.082 C 
BRANCH  29  30
ATOM     30  S1  NON d   1     -37.172  24.065  -3.882  0.00  0.00    -0.093 SA
BRANCH  30  31
ATOM     31  C2  NON d   1     -37.332  22.314  -3.876  0.00  0.00     0.182 C 
ATOM     32  C1  NON d   1     -36.657  21.637  -2.711  0.00  0.00     0.104 C 
ATOM     33  O1  NON d   1     -37.899  21.698  -4.769  0.00  0.00    -0.286 OA
ENDBRANCH  30  31
ENDBRANCH  29  30
ENDBRANCH  28  29
ENDBRANCH  27  28
ENDBRANCH  26  27
ENDBRANCH  25  26
ENDBRANCH   1  25
BRANCH  12  34
ATOM     34  C16 NON d   1     -40.187  18.374  -3.084  0.00  0.00     0.061 C 
BRANCH  34  35
ATOM     35  C17 NON d   1     -41.707  18.434  -3.121  0.00  0.00     0.170 C 
BRANCH  35  36
ATOM     36  O4  NON d   1     -42.187  17.889  -4.344  0.00  0.00    -0.390 OA
BRANCH  36  37
ATOM     37  C18 NON d   1     -43.502  18.343  -4.704  0.00  0.00     0.178 C 
BRANCH  37  38
ATOM     38  C19 NON d   1     -44.610  17.286  -4.582  0.00  0.00     0.108 C 
BRANCH  38  39
ATOM     39  S2  NON d   1     -45.942  17.526  -5.810  0.00  0.00    -0.091 SA
BRANCH  39  40
ATOM     40  C20 NON d   1     -46.995  16.192  -5.350  0.00  0.00     0.182 C 
ATOM     41  C21 NON d   1     -47.292  16.121  -3.879  0.00  0.00     0.104 C 
ATOM     42  O5  NON d   1     -47.425  15.387  -6.165  0.00  0.00    -0.286 OA
ENDBRANCH  39  40
ENDBRANCH  38  39
ENDBRANCH  37  38
ENDBRANCH  36  37
ENDBRANCH  35  36
ENDBRANCH  34  35
ENDBRANCH  12  34
TORSDOF 14
ENDMDL
MODEL 9
REMARK VINA RESULT:   -16.584      3.102      8.022
REMARK INTER + INTRA:         -23.900
REMARK INTER:                 -20.760
REMARK INTRA:                  -3.140
REMARK CONF_INDEPENDENT:        4.176
REMARK UNBOUND:                -3.140
REMARK  14 active torsions:
REMARK  status: ('A' for Active; 'I' for Inactive)
REMARK    1  A    between atoms: C2_2  and  S1_4 
REMARK    2  A    between atoms: S1_4  and  C3_5 
REMARK    3  A    between atoms: C3_5  and  C4_6 
REMARK    4  A    between atoms: C4_6  and  C5_7 
REMARK    5  A    between atoms: C5_7  and  C6_8 
REMARK    6  A    between atoms: C6_8  and  C7_9 
REMARK    7  A    between atoms: C8_10  and  C7_9 
REMARK    8  A    between atoms: C15_21  and  C16_22 
REMARK    9  A    between atoms: C16_22  and  C17_23 
REMARK   10  A    between atoms: C17_23  and  O4_24 
REMARK   11  A    between atoms: O4_24  and  C18_25 
REMARK   12  A    between atoms: C18_25  and  C19_26 
REMARK   13  A    between atoms: C19_26  and  S2_27 
REMARK   14  A    between atoms: S2_27  and  C20_28 
ROOT
ATOM      1  C8  NON d   1     -39.606  18.907  -5.368  0.00  0.00     0.155 C 
ATOM      2  N1  NON d   1     -39.175  20.091  -4.615  0.00  0.00    -0.248 NA
ATOM      3  C9  NON d   1     -38.771  20.067  -3.295  0.00  0.00     0.221 C 
ATOM      4  O2  NON d   1     -39.092  19.176  -2.515  0.00  0.00    -0.278 OA
ATOM      5  C10 NON d   1     -37.658  21.113  -2.963  0.00  0.00     0.173 C 
ATOM      6  C11 NON d   1     -37.654  21.472  -1.482  0.00  0.00     0.036 C 
ATOM      7  C12 NON d   1     -36.734  22.681  -1.465  0.00  0.00     0.022 C 
ATOM      8  C13 NON d   1     -37.098  23.433  -2.747  0.00  0.00     0.127 C 
ATOM      9  N2  NON d   1     -37.681  22.436  -3.642  0.00  0.00    -0.337 N 
ATOM     10  C14 NON d   1     -37.337  22.514  -4.980  0.00  0.00     0.243 C 
ATOM     11  O3  NON d   1     -36.846  21.520  -5.539  0.00  0.00    -0.271 OA
ATOM     12  C15 NON d   1     -37.906  23.685  -5.864  0.00  0.00     0.179 C 
ATOM     13  N3  NON d   1     -38.498  22.845  -6.939  0.00  0.00    -0.346 N 
ATOM     14  C22 NON d   1     -39.594  22.885  -7.801  0.00  0.00     0.246 C 
ATOM     15  O6  NON d   1     -40.317  23.847  -7.993  0.00  0.00    -0.271 OA
ATOM     16  C23 NON d   1     -39.694  21.477  -8.490  0.00  0.00     0.106 C 
ATOM     17  C24 NON d   1     -38.407  21.246  -9.331  0.00  0.00     0.048 C 
ATOM     18  C25 NON d   1     -40.734  20.578  -9.187  0.00  0.00     0.048 C 
ATOM     19  N4  NON d   1     -39.588  20.655  -7.132  0.00  0.00    -0.342 N 
ATOM     20  C26 NON d   1     -39.716  19.289  -6.891  0.00  0.00     0.236 C 
ATOM     21  O7  NON d   1     -39.873  18.448  -7.768  0.00  0.00    -0.272 OA
ATOM     22  H15 NON d   1     -38.493  20.606  -5.163  0.00  0.00     0.131 HD
ATOM     23  H35 NON d   1     -37.998  21.951  -6.990  0.00  0.00     0.163 HD
ATOM     24  H42 NON d   1     -39.900  21.195  -6.326  0.00  0.00     0.163 HD
ENDROOT
BRANCH   1  25
ATOM     25  C7  NON d   1     -40.749  18.008  -4.827  0.00  0.00     0.029 C 
BRANCH  25  26
ATOM     26  C6  NON d   1     -41.809  18.581  -3.873  0.00  0.00     0.002 C 
BRANCH  26  27
ATOM     27  C5  NON d   1     -43.265  18.262  -4.317  0.00  0.00     0.001 C 
BRANCH  27  28
ATOM     28  C4  NON d   1     -44.046  17.260  -3.446  0.00  0.00     0.010 C 
BRANCH  28  29
ATOM     29  C3  NON d   1     -45.555  17.253  -3.695  0.00  0.00     0.082 C 
BRANCH  29  30
ATOM     30  S1  NON d   1     -45.939  16.861  -5.434  0.00  0.00    -0.093 SA
BRANCH  30  31
ATOM     31  C2  NON d   1     -47.240  15.694  -5.246  0.00  0.00     0.182 C 
ATOM     32  C1  NON d   1     -47.700  15.508  -3.823  0.00  0.00     0.104 C 
ATOM     33  O1  NON d   1     -47.696  15.052  -6.184  0.00  0.00    -0.286 OA
ENDBRANCH  30  31
ENDBRANCH  29  30
ENDBRANCH  28  29
ENDBRANCH  27  28
ENDBRANCH  26  27
ENDBRANCH  25  26
ENDBRANCH   1  25
BRANCH  12  34
ATOM     34  C16 NON d   1     -36.780  24.524  -6.469  0.00  0.00     0.061 C 
BRANCH  34  35
ATOM     35  C17 NON d   1     -37.086  26.015  -6.495  0.00  0.00     0.170 C 
BRANCH  35  36
ATOM     36  O4  NON d   1     -38.386  26.236  -7.028  0.00  0.00    -0.390 OA
BRANCH  36  37
ATOM     37  C18 NON d   1     -39.334  26.718  -6.063  0.00  0.00     0.178 C 
BRANCH  37  38
ATOM     38  C19 NON d   1     -40.384  25.692  -5.614  0.00  0.00     0.108 C 
BRANCH  38  39
ATOM     39  S2  NON d   1     -40.123  25.130  -3.895  0.00  0.00    -0.091 SA
BRANCH  39  40
ATOM     40  C20 NON d   1     -40.641  23.456  -4.062  0.00  0.00     0.182 C 
ATOM     41  C21 NON d   1     -41.053  22.806  -2.772  0.00  0.00     0.104 C 
ATOM     42  O5  NON d   1     -40.641  22.877  -5.140  0.00  0.00    -0.286 OA
ENDBRANCH  39  40
ENDBRANCH  38  39
ENDBRANCH  37  38
ENDBRANCH  36  37
ENDBRANCH  35  36
ENDBRANCH  34  35
ENDBRANCH  12  34
TORSDOF 14
ENDMDL
