MODEL 1
REMARK VINA RESULT:   -15.767      0.000      0.000
REMARK INTER + INTRA:         -17.991
REMARK INTER:                 -16.960
REMARK INTRA:                  -1.031
REMARK CONF_INDEPENDENT:        1.193
REMARK UNBOUND:                -1.031
REMARK  4 active torsions:
REMARK  status: ('A' for Active; 'I' for Inactive)
REMARK    1  A    between atoms: O1_2  and  C2_3 
REMARK    2  A    between atoms: C2_3  and  C3_5 
REMARK    3  A    between atoms: C8_10  and  C9_11 
REMARK       I    between atoms: C9_11  and  N1_13 
REMARK    4  A    between atoms: N1_13  and  O4_14 
ROOT
ATOM      1  C3  NON d   1     -42.420  19.260  -4.623  0.00  0.00     0.040 A 
ATOM      2  C4  NON d   1     -42.267  18.568  -3.421  0.00  0.00     0.018 A 
ATOM      3  C5  NON d   1     -43.225  17.627  -3.017  0.00  0.00     0.014 A 
ATOM      4  C6  NON d   1     -44.361  17.366  -3.819  0.00  0.00    -0.018 A 
ATOM      5  C7  NON d   1     -45.457  16.460  -3.626  0.00  0.00     0.037 A 
ATOM      6  C8  NON d   1     -46.393  16.501  -4.642  0.00  0.00     0.076 A 
ATOM      7  S1  NON d   1     -45.940  17.631  -5.841  0.00  0.00    -0.084 SA
ATOM      8  C10 NON d   1     -44.498  18.072  -5.015  0.00  0.00     0.017 A 
ATOM      9  C11 NON d   1     -43.539  19.019  -5.431  0.00  0.00     0.037 A 
ENDROOT
BRANCH   6  10
ATOM     10  C9  NON d   1     -47.607  15.706  -4.746  0.00  0.00     0.281 C 
ATOM     11  O3  NON d   1     -48.188  15.480  -5.810  0.00  0.00    -0.265 OA
ATOM     12  N1  NON d   1     -48.107  15.201  -3.567  0.00  0.00    -0.233 N 
ATOM     13  H7  NON d   1     -47.712  15.404  -2.656  0.00  0.00     0.197 HD
BRANCH  12  14
ATOM     14  O4  NON d   1     -49.329  14.498  -3.614  0.00  0.00    -0.287 OA
ATOM     15  H8  NON d   1     -49.563  14.535  -4.566  0.00  0.00     0.244 HD
ENDBRANCH  12  14
ENDBRANCH   6  10
BRANCH   1  16
ATOM     16  C2  NON d   1     -41.433  20.272  -5.094  0.00  0.00     0.292 C 
ATOM     17  O2  NON d   1     -41.034  21.195  -4.402  0.00  0.00    -0.259 OA
BRANCH  16  18
ATOM     18  O1  NON d   1     -41.066  20.027  -6.377  0.00  0.00    -0.323 OA
ATOM     19  C1  NON d   1     -40.161  18.930  -6.525  0.00  0.00     0.213 C 
ENDBRANCH  16  18
ENDBRANCH   1  16
TORSDOF 4
ENDMDL
MODEL 2
REMARK VINA RESULT:   -13.234      2.095      2.750
REMARK INTER + INTRA:         -15.421
REMARK INTER:                 -14.427
REMARK INTRA:                  -0.994
REMARK CONF_INDEPENDENT:        1.193
REMARK UNBOUND:                -0.994
REMARK  4 active torsions:
REMARK  status: ('A' for Active; 'I' for Inactive)
REMARK    1  A    between atoms: O1_2  and  C2_3 
REMARK    2  A    between atoms: C2_3  and  C3_5 
REMARK    3  A    between atoms: C8_10  and  C9_11 
REMARK       I    between atoms: C9_11  and  N1_13 
REMARK    4  A    between atoms: N1_13  and  O4_14 
ROOT
ATOM      1  C3  NON d   1     -40.655  19.313  -3.412  0.00  0.00     0.040 A 
ATOM      2  C4  NON d   1     -40.716  18.088  -2.747  0.00  0.00     0.018 A 
ATOM      3  C5  NON d   1     -41.812  17.232  -2.932  0.00  0.00     0.014 A 
ATOM      4  C6  NON d   1     -42.873  17.599  -3.793  0.00  0.00    -0.018 A 
ATOM      5  C7  NON d   1     -44.078  16.903  -4.145  0.00  0.00     0.037 A 
ATOM      6  C8  NON d   1     -44.884  17.604  -5.022  0.00  0.00     0.076 A 
ATOM      7  S1  NON d   1     -44.177  19.104  -5.432  0.00  0.00    -0.084 SA
ATOM      8  C10 NON d   1     -42.796  18.831  -4.444  0.00  0.00     0.017 A 
ATOM      9  C11 NON d   1     -41.698  19.697  -4.266  0.00  0.00     0.037 A 
ENDROOT
BRANCH   6  10
ATOM     10  C9  NON d   1     -46.160  17.172  -5.572  0.00  0.00     0.281 C 
ATOM     11  O3  NON d   1     -46.927  17.918  -6.185  0.00  0.00    -0.265 OA
ATOM     12  N1  NON d   1     -46.496  15.853  -5.369  0.00  0.00    -0.233 N 
ATOM     13  H7  NON d   1     -45.939  15.209  -4.820  0.00  0.00     0.197 HD
BRANCH  12  14
ATOM     14  O4  NON d   1     -47.763  15.417  -5.812  0.00  0.00    -0.287 OA
ATOM     15  H8  NON d   1     -48.019  16.114  -6.453  0.00  0.00     0.244 HD
ENDBRANCH  12  14
ENDBRANCH   6  10
BRANCH   1  16
ATOM     16  C2  NON d   1     -39.516  20.258  -3.244  0.00  0.00     0.292 C 
ATOM     17  O2  NON d   1     -38.432  20.109  -3.787  0.00  0.00    -0.259 OA
BRANCH  16  18
ATOM     18  O1  NON d   1     -39.852  21.276  -2.412  0.00  0.00    -0.323 OA
ATOM     19  C1  NON d   1     -38.895  21.526  -1.380  0.00  0.00     0.213 C 
ENDBRANCH  16  18
ENDBRANCH   1  16
TORSDOF 4
ENDMDL
MODEL 3
REMARK VINA RESULT:   -13.185      3.211      7.610
REMARK INTER + INTRA:         -15.375
REMARK INTER:                 -14.378
REMARK INTRA:                  -0.997
REMARK CONF_INDEPENDENT:        1.193
REMARK UNBOUND:                -0.997
REMARK  4 active torsions:
REMARK  status: ('A' for Active; 'I' for Inactive)
REMARK    1  A    between atoms: O1_2  and  C2_3 
REMARK    2  A    between atoms: C2_3  and  C3_5 
REMARK    3  A    between atoms: C8_10  and  C9_11 
REMARK       I    between atoms: C9_11  and  N1_13 
REMARK    4  A    between atoms: N1_13  and  O4_14 
ROOT
ATOM      1  C3  NON d   1     -49.821  16.146  -2.834  0.00  0.00     0.040 A 
ATOM      2  C4  NON d   1     -49.168  16.530  -1.662  0.00  0.00     0.018 A 
ATOM      3  C5  NON d   1     -47.815  16.897  -1.690  0.00  0.00     0.014 A 
ATOM      4  C6  NON d   1     -47.090  16.880  -2.905  0.00  0.00    -0.018 A 
ATOM      5  C7  NON d   1     -45.722  17.213  -3.185  0.00  0.00     0.037 A 
ATOM      6  C8  NON d   1     -45.378  17.058  -4.514  0.00  0.00     0.076 A 
ATOM      7  S1  NON d   1     -46.715  16.519  -5.431  0.00  0.00    -0.084 SA
ATOM      8  C10 NON d   1     -47.759  16.487  -4.065  0.00  0.00     0.017 A 
ATOM      9  C11 NON d   1     -49.120  16.119  -4.048  0.00  0.00     0.037 A 
ENDROOT
BRANCH   6  10
ATOM     10  C9  NON d   1     -44.079  17.317  -5.117  0.00  0.00     0.281 C 
ATOM     11  O3  NON d   1     -43.289  16.429  -5.447  0.00  0.00    -0.265 OA
ATOM     12  N1  NON d   1     -43.748  18.640  -5.308  0.00  0.00    -0.233 N 
ATOM     13  H7  NON d   1     -44.326  19.413  -5.000  0.00  0.00     0.197 HD
BRANCH  12  14
ATOM     14  O4  NON d   1     -42.464  18.935  -5.810  0.00  0.00    -0.287 OA
ATOM     15  H8  NON d   1     -41.979  18.093  -5.673  0.00  0.00     0.244 HD
ENDBRANCH  12  14
ENDBRANCH   6  10
BRANCH   1  16
ATOM     16  C2  NON d   1     -51.255  15.743  -2.856  0.00  0.00     0.292 C 
ATOM     17  O2  NON d   1     -51.636  14.630  -3.185  0.00  0.00    -0.259 OA
BRANCH  16  18
ATOM     18  O1  NON d   1     -52.051  16.774  -2.477  0.00  0.00    -0.323 OA
ATOM     19  C1  NON d   1     -53.443  16.451  -2.435  0.00  0.00     0.213 C 
ENDBRANCH  16  18
ENDBRANCH   1  16
TORSDOF 4
ENDMDL
MODEL 4
REMARK VINA RESULT:   -13.014      2.524      3.268
REMARK INTER + INTRA:         -15.275
REMARK INTER:                 -14.207
REMARK INTRA:                  -1.067
REMARK CONF_INDEPENDENT:        1.193
REMARK UNBOUND:                -1.067
REMARK  4 active torsions:
REMARK  status: ('A' for Active; 'I' for Inactive)
REMARK    1  A    between atoms: O1_2  and  C2_3 
REMARK    2  A    between atoms: C2_3  and  C3_5 
REMARK    3  A    between atoms: C8_10  and  C9_11 
REMARK       I    between atoms: C9_11  and  N1_13 
REMARK    4  A    between atoms: N1_13  and  O4_14 
ROOT
ATOM      1  C3  NON d   1     -40.545  18.600  -3.224  0.00  0.00     0.040 A 
ATOM      2  C4  NON d   1     -40.811  19.758  -3.955  0.00  0.00     0.018 A 
ATOM      3  C5  NON d   1     -42.005  19.881  -4.680  0.00  0.00     0.014 A 
ATOM      4  C6  NON d   1     -42.955  18.834  -4.685  0.00  0.00    -0.018 A 
ATOM      5  C7  NON d   1     -44.232  18.729  -5.334  0.00  0.00     0.037 A 
ATOM      6  C8  NON d   1     -44.870  17.525  -5.103  0.00  0.00     0.076 A 
ATOM      7  S1  NON d   1     -43.930  16.521  -4.089  0.00  0.00    -0.084 SA
ATOM      8  C10 NON d   1     -42.668  17.681  -3.952  0.00  0.00     0.017 A 
ATOM      9  C11 NON d   1     -41.472  17.548  -3.217  0.00  0.00     0.037 A 
ENDROOT
BRANCH   6  10
ATOM     10  C9  NON d   1     -46.171  17.114  -5.609  0.00  0.00     0.281 C 
ATOM     11  O3  NON d   1     -46.952  17.876  -6.186  0.00  0.00    -0.265 OA
ATOM     12  N1  NON d   1     -46.515  15.796  -5.410  0.00  0.00    -0.233 N 
ATOM     13  H7  NON d   1     -45.944  15.140  -4.889  0.00  0.00     0.197 HD
BRANCH  12  14
ATOM     14  O4  NON d   1     -47.802  15.380  -5.810  0.00  0.00    -0.287 OA
ATOM     15  H8  NON d   1     -47.976  15.942  -6.594  0.00  0.00     0.244 HD
ENDBRANCH  12  14
ENDBRANCH   6  10
BRANCH   1  16
ATOM     16  C2  NON d   1     -39.290  18.418  -2.441  0.00  0.00     0.292 C 
ATOM     17  O2  NON d   1     -38.797  17.326  -2.205  0.00  0.00    -0.259 OA
BRANCH  16  18
ATOM     18  O1  NON d   1     -38.799  19.615  -2.032  0.00  0.00    -0.323 OA
ATOM     19  C1  NON d   1     -37.376  19.648  -1.902  0.00  0.00     0.213 C 
ENDBRANCH  16  18
ENDBRANCH   1  16
TORSDOF 4
ENDMDL
