MODEL 1
REMARK VINA RESULT:   -16.784      0.000      0.000
REMARK INTER + INTRA:         -20.846
REMARK INTER:                 -19.171
REMARK INTRA:                  -1.675
REMARK CONF_INDEPENDENT:        2.386
REMARK UNBOUND:                -1.675
REMARK  8 active torsions:
REMARK  status: ('A' for Active; 'I' for Inactive)
REMARK    1  A    between atoms: C1_2  and  C2_3 
REMARK       I    between atoms: C1_2  and  N1_17 
REMARK    2  A    between atoms: N1_17  and  C16_18 
REMARK    3  A    between atoms: C16_18  and  C17_19 
REMARK    4  A    between atoms: C17_19  and  C18_20 
REMARK    5  A    between atoms: C18_20  and  C19_21 
REMARK    6  A    between atoms: C19_21  and  C20_22 
REMARK    7  A    between atoms: C20_22  and  C21_23 
REMARK       I    between atoms: C21_23  and  N2_25 
REMARK    8  A    between atoms: N2_25  and  O3_26 
ROOT
ATOM      1  O1  NON d   1     -43.315  16.344  -3.586  0.00  0.00    -0.269 OA
ATOM      2  C1  NON d   1     -43.892  17.314  -4.068  0.00  0.00     0.242 C 
ATOM      3  N1  NON d   1     -45.235  17.534  -3.956  0.00  0.00    -0.358 N 
ATOM      4  H10 NON d   1     -45.662  18.206  -4.581  0.00  0.00     0.162 HD
ENDROOT
BRANCH   2   5
ATOM      5  C2  NON d   1     -43.121  18.246  -4.929  0.00  0.00     0.087 C 
ATOM      6  C3  NON d   1     -41.836  18.643  -4.903  0.00  0.00    -0.009 A 
ATOM      7  C4  NON d   1     -41.279  19.488  -6.008  0.00  0.00    -0.014 A 
ATOM      8  C15 NON d   1     -40.725  18.347  -3.958  0.00  0.00    -0.014 A 
ATOM      9  C5  NON d   1     -41.830  19.999  -7.175  0.00  0.00     0.013 A 
ATOM     10  C9  NON d   1     -39.912  19.683  -5.711  0.00  0.00    -0.014 A 
ATOM     11  C6  NON d   1     -40.996  20.697  -8.057  0.00  0.00     0.001 A 
ATOM     12  C7  NON d   1     -39.636  20.881  -7.766  0.00  0.00     0.001 A 
ATOM     13  C8  NON d   1     -39.086  20.376  -6.585  0.00  0.00     0.013 A 
ATOM     14  C10 NON d   1     -39.584  19.018  -4.460  0.00  0.00    -0.014 A 
ATOM     15  C11 NON d   1     -38.366  18.968  -3.789  0.00  0.00     0.013 A 
ATOM     16  C12 NON d   1     -38.281  18.232  -2.608  0.00  0.00     0.001 A 
ATOM     17  C13 NON d   1     -39.397  17.545  -2.123  0.00  0.00     0.001 A 
ATOM     18  C14 NON d   1     -40.618  17.593  -2.804  0.00  0.00     0.013 A 
ENDBRANCH   2   5
BRANCH   3  19
ATOM     19  C16 NON d   1     -46.098  16.621  -3.223  0.00  0.00     0.123 C 
BRANCH  19  20
ATOM     20  C17 NON d   1     -47.300  17.327  -2.586  0.00  0.00     0.020 C 
BRANCH  20  21
ATOM     21  C18 NON d   1     -48.547  16.435  -2.507  0.00  0.00     0.002 C 
BRANCH  21  22
ATOM     22  C19 NON d   1     -49.274  16.281  -3.852  0.00  0.00     0.009 C 
BRANCH  22  23
ATOM     23  C20 NON d   1     -48.649  15.249  -4.791  0.00  0.00     0.105 C 
BRANCH  23  24
ATOM     24  C21 NON d   1     -47.488  15.748  -5.635  0.00  0.00     0.240 C 
ATOM     25  O2  NON d   1     -46.690  15.006  -6.192  0.00  0.00    -0.271 OA
ATOM     26  N2  NON d   1     -47.399  17.129  -5.598  0.00  0.00    -0.237 N 
ATOM     27  H21 NON d   1     -48.236  17.677  -5.434  0.00  0.00     0.197 HD
BRANCH  26  28
ATOM     28  O3  NON d   1     -46.496  17.698  -6.526  0.00  0.00    -0.287 OA
ATOM     29  H22 NON d   1     -46.324  16.954  -7.133  0.00  0.00     0.244 HD
ENDBRANCH  26  28
ENDBRANCH  23  24
ENDBRANCH  22  23
ENDBRANCH  21  22
ENDBRANCH  20  21
ENDBRANCH  19  20
ENDBRANCH   3  19
TORSDOF 8
ENDMDL
MODEL 2
REMARK VINA RESULT:   -15.486      1.499      3.034
REMARK INTER + INTRA:         -18.906
REMARK INTER:                 -17.872
REMARK INTRA:                  -1.034
REMARK CONF_INDEPENDENT:        2.386
REMARK UNBOUND:                -1.034
REMARK  8 active torsions:
REMARK  status: ('A' for Active; 'I' for Inactive)
REMARK    1  A    between atoms: C1_2  and  C2_3 
REMARK       I    between atoms: C1_2  and  N1_17 
REMARK    2  A    between atoms: N1_17  and  C16_18 
REMARK    3  A    between atoms: C16_18  and  C17_19 
REMARK    4  A    between atoms: C17_19  and  C18_20 
REMARK    5  A    between atoms: C18_20  and  C19_21 
REMARK    6  A    between atoms: C19_21  and  C20_22 
REMARK    7  A    between atoms: C20_22  and  C21_23 
REMARK       I    between atoms: C21_23  and  N2_25 
REMARK    8  A    between atoms: N2_25  and  O3_26 
ROOT
ATOM      1  O1  NON d   1     -43.001  17.190  -5.027  0.00  0.00    -0.269 OA
ATOM      2  C1  NON d   1     -43.072  17.557  -3.858  0.00  0.00     0.242 C 
ATOM      3  N1  NON d   1     -44.185  17.411  -3.081  0.00  0.00    -0.358 N 
ATOM      4  H10 NON d   1     -44.246  17.955  -2.229  0.00  0.00     0.162 HD
ENDROOT
BRANCH   2   5
ATOM      5  C2  NON d   1     -41.934  18.315  -3.279  0.00  0.00     0.087 C 
ATOM      6  C3  NON d   1     -40.827  18.842  -3.833  0.00  0.00    -0.009 A 
ATOM      7  C4  NON d   1     -39.909  19.705  -3.023  0.00  0.00    -0.014 A 
ATOM      8  C15 NON d   1     -40.297  18.799  -5.224  0.00  0.00    -0.014 A 
ATOM      9  C5  NON d   1     -39.942  20.144  -1.706  0.00  0.00     0.013 A 
ATOM     10  C9  NON d   1     -38.888  20.134  -3.900  0.00  0.00    -0.014 A 
ATOM     11  C6  NON d   1     -38.951  21.032  -1.273  0.00  0.00     0.001 A 
ATOM     12  C7  NON d   1     -37.943  21.465  -2.148  0.00  0.00     0.001 A 
ATOM     13  C8  NON d   1     -37.904  21.014  -3.469  0.00  0.00     0.013 A 
ATOM     14  C10 NON d   1     -39.106  19.565  -5.220  0.00  0.00    -0.014 A 
ATOM     15  C11 NON d   1     -38.339  19.708  -6.372  0.00  0.00     0.013 A 
ATOM     16  C12 NON d   1     -38.768  19.089  -7.544  0.00  0.00     0.001 A 
ATOM     17  C13 NON d   1     -39.958  18.355  -7.560  0.00  0.00     0.001 A 
ATOM     18  C14 NON d   1     -40.729  18.219  -6.401  0.00  0.00     0.013 A 
ENDBRANCH   2   5
BRANCH   3  19
ATOM     19  C16 NON d   1     -45.392  16.777  -3.588  0.00  0.00     0.123 C 
BRANCH  19  20
ATOM     20  C17 NON d   1     -46.659  17.266  -2.879  0.00  0.00     0.020 C 
BRANCH  20  21
ATOM     21  C18 NON d   1     -47.636  16.130  -2.545  0.00  0.00     0.002 C 
BRANCH  21  22
ATOM     22  C19 NON d   1     -48.853  16.076  -3.481  0.00  0.00     0.009 C 
BRANCH  22  23
ATOM     23  C20 NON d   1     -48.624  15.283  -4.768  0.00  0.00     0.105 C 
BRANCH  23  24
ATOM     24  C21 NON d   1     -47.474  15.762  -5.639  0.00  0.00     0.240 C 
ATOM     25  O2  NON d   1     -46.699  15.007  -6.209  0.00  0.00    -0.271 OA
ATOM     26  N2  NON d   1     -47.365  17.142  -5.610  0.00  0.00    -0.237 N 
ATOM     27  H21 NON d   1     -48.191  17.703  -5.429  0.00  0.00     0.197 HD
BRANCH  26  28
ATOM     28  O3  NON d   1     -46.475  17.695  -6.559  0.00  0.00    -0.287 OA
ATOM     29  H22 NON d   1     -46.333  16.948  -7.171  0.00  0.00     0.244 HD
ENDBRANCH  26  28
ENDBRANCH  23  24
ENDBRANCH  22  23
ENDBRANCH  21  22
ENDBRANCH  20  21
ENDBRANCH  19  20
ENDBRANCH   3  19
TORSDOF 8
ENDMDL
MODEL 3
REMARK VINA RESULT:   -15.451      5.062      6.601
REMARK INTER + INTRA:         -18.967
REMARK INTER:                 -17.837
REMARK INTRA:                  -1.130
REMARK CONF_INDEPENDENT:        2.386
REMARK UNBOUND:                -1.130
REMARK  8 active torsions:
REMARK  status: ('A' for Active; 'I' for Inactive)
REMARK    1  A    between atoms: C1_2  and  C2_3 
REMARK       I    between atoms: C1_2  and  N1_17 
REMARK    2  A    between atoms: N1_17  and  C16_18 
REMARK    3  A    between atoms: C16_18  and  C17_19 
REMARK    4  A    between atoms: C17_19  and  C18_20 
REMARK    5  A    between atoms: C18_20  and  C19_21 
REMARK    6  A    between atoms: C19_21  and  C20_22 
REMARK    7  A    between atoms: C20_22  and  C21_23 
REMARK       I    between atoms: C21_23  and  N2_25 
REMARK    8  A    between atoms: N2_25  and  O3_26 
ROOT
ATOM      1  O1  NON d   1     -40.617  20.754  -3.678  0.00  0.00    -0.269 OA
ATOM      2  C1  NON d   1     -40.290  20.350  -2.566  0.00  0.00     0.242 C 
ATOM      3  N1  NON d   1     -40.018  19.043  -2.280  0.00  0.00    -0.358 N 
ATOM      4  H10 NON d   1     -40.004  18.760  -1.307  0.00  0.00     0.162 HD
ENDROOT
BRANCH   2   5
ATOM      5  C2  NON d   1     -40.305  21.304  -1.428  0.00  0.00     0.087 C 
ATOM      6  C3  NON d   1     -40.476  22.638  -1.373  0.00  0.00    -0.009 A 
ATOM      7  C4  NON d   1     -40.602  23.333  -0.052  0.00  0.00    -0.014 A 
ATOM      8  C15 NON d   1     -40.646  23.662  -2.441  0.00  0.00    -0.014 A 
ATOM      9  C5  NON d   1     -40.594  22.879   1.259  0.00  0.00     0.013 A 
ATOM     10  C9  NON d   1     -40.822  24.699  -0.340  0.00  0.00    -0.014 A 
ATOM     11  C6  NON d   1     -40.824  23.800   2.287  0.00  0.00     0.001 A 
ATOM     12  C7  NON d   1     -41.053  25.155   2.000  0.00  0.00     0.001 A 
ATOM     13  C8  NON d   1     -41.049  25.613   0.680  0.00  0.00     0.013 A 
ATOM     14  C10 NON d   1     -40.820  24.902  -1.780  0.00  0.00    -0.014 A 
ATOM     15  C11 NON d   1     -40.981  26.083  -2.497  0.00  0.00     0.013 A 
ATOM     16  C12 NON d   1     -40.977  26.027  -3.890  0.00  0.00     0.001 A 
ATOM     17  C13 NON d   1     -40.833  24.801  -4.547  0.00  0.00     0.001 A 
ATOM     18  C14 NON d   1     -40.678  23.616  -3.821  0.00  0.00     0.013 A 
ENDBRANCH   2   5
BRANCH   3  19
ATOM     19  C16 NON d   1     -40.080  18.010  -3.302  0.00  0.00     0.123 C 
BRANCH  19  20
ATOM     20  C17 NON d   1     -41.354  18.093  -4.149  0.00  0.00     0.020 C 
BRANCH  20  21
ATOM     21  C18 NON d   1     -42.511  17.262  -3.577  0.00  0.00     0.002 C 
BRANCH  21  22
ATOM     22  C19 NON d   1     -43.554  16.859  -4.631  0.00  0.00     0.009 C 
BRANCH  22  23
ATOM     23  C20 NON d   1     -45.002  17.126  -4.219  0.00  0.00     0.105 C 
BRANCH  23  24
ATOM     24  C21 NON d   1     -46.043  16.922  -5.307  0.00  0.00     0.240 C 
ATOM     25  O2  NON d   1     -46.272  17.744  -6.185  0.00  0.00    -0.271 OA
ATOM     26  N2  NON d   1     -46.753  15.751  -5.109  0.00  0.00    -0.237 N 
ATOM     27  H21 NON d   1     -46.315  14.981  -4.614  0.00  0.00     0.197 HD
BRANCH  26  28
ATOM     28  O3  NON d   1     -47.583  15.361  -6.185  0.00  0.00    -0.287 OA
ATOM     29  H22 NON d   1     -47.294  15.960  -6.898  0.00  0.00     0.244 HD
ENDBRANCH  26  28
ENDBRANCH  23  24
ENDBRANCH  22  23
ENDBRANCH  21  22
ENDBRANCH  20  21
ENDBRANCH  19  20
ENDBRANCH   3  19
TORSDOF 8
ENDMDL
MODEL 4
REMARK VINA RESULT:   -14.903      2.697      4.898
REMARK INTER + INTRA:         -18.662
REMARK INTER:                 -17.289
REMARK INTRA:                  -1.373
REMARK CONF_INDEPENDENT:        2.386
REMARK UNBOUND:                -1.373
REMARK  8 active torsions:
REMARK  status: ('A' for Active; 'I' for Inactive)
REMARK    1  A    between atoms: C1_2  and  C2_3 
REMARK       I    between atoms: C1_2  and  N1_17 
REMARK    2  A    between atoms: N1_17  and  C16_18 
REMARK    3  A    between atoms: C16_18  and  C17_19 
REMARK    4  A    between atoms: C17_19  and  C18_20 
REMARK    5  A    between atoms: C18_20  and  C19_21 
REMARK    6  A    between atoms: C19_21  and  C20_22 
REMARK    7  A    between atoms: C20_22  and  C21_23 
REMARK       I    between atoms: C21_23  and  N2_25 
REMARK    8  A    between atoms: N2_25  and  O3_26 
ROOT
ATOM      1  O1  NON d   1     -42.587  19.704  -6.407  0.00  0.00    -0.269 OA
ATOM      2  C1  NON d   1     -41.371  19.836  -6.508  0.00  0.00     0.242 C 
ATOM      3  N1  NON d   1     -40.463  19.078  -5.826  0.00  0.00    -0.358 N 
ATOM      4  H10 NON d   1     -39.508  19.410  -5.773  0.00  0.00     0.162 HD
ENDROOT
BRANCH   2   5
ATOM      5  C2  NON d   1     -40.842  20.961  -7.320  0.00  0.00     0.087 C 
ATOM      6  C3  NON d   1     -39.738  21.083  -8.080  0.00  0.00    -0.009 A 
ATOM      7  C4  NON d   1     -39.530  22.300  -8.927  0.00  0.00    -0.014 A 
ATOM      8  C15 NON d   1     -38.601  20.156  -8.333  0.00  0.00    -0.014 A 
ATOM      9  C5  NON d   1     -40.290  23.442  -9.143  0.00  0.00     0.013 A 
ATOM     10  C9  NON d   1     -38.322  22.095  -9.630  0.00  0.00    -0.014 A 
ATOM     11  C6  NON d   1     -39.839  24.375 -10.084  0.00  0.00     0.001 A 
ATOM     12  C7  NON d   1     -38.645  24.166 -10.790  0.00  0.00     0.001 A 
ATOM     13  C8  NON d   1     -37.875  23.022 -10.562  0.00  0.00     0.013 A 
ATOM     14  C10 NON d   1     -37.747  20.814  -9.251  0.00  0.00    -0.014 A 
ATOM     15  C11 NON d   1     -36.563  20.225  -9.682  0.00  0.00     0.013 A 
ATOM     16  C12 NON d   1     -36.230  18.960  -9.200  0.00  0.00     0.001 A 
ATOM     17  C13 NON d   1     -37.083  18.294  -8.315  0.00  0.00     0.001 A 
ATOM     18  C14 NON d   1     -38.275  18.888  -7.890  0.00  0.00     0.013 A 
ENDBRANCH   2   5
BRANCH   3  19
ATOM     19  C16 NON d   1     -40.881  18.018  -4.921  0.00  0.00     0.123 C 
BRANCH  19  20
ATOM     20  C17 NON d   1     -41.696  18.542  -3.734  0.00  0.00     0.020 C 
BRANCH  20  21
ATOM     21  C18 NON d   1     -42.765  17.551  -3.255  0.00  0.00     0.002 C 
BRANCH  21  22
ATOM     22  C19 NON d   1     -43.683  17.050  -4.381  0.00  0.00     0.009 C 
BRANCH  22  23
ATOM     23  C20 NON d   1     -45.172  17.286  -4.132  0.00  0.00     0.105 C 
BRANCH  23  24
ATOM     24  C21 NON d   1     -46.095  16.937  -5.288  0.00  0.00     0.240 C 
ATOM     25  O2  NON d   1     -46.300  17.681  -6.237  0.00  0.00    -0.271 OA
ATOM     26  N2  NON d   1     -46.739  15.731  -5.068  0.00  0.00    -0.237 N 
ATOM     27  H21 NON d   1     -46.297  15.029  -4.485  0.00  0.00     0.197 HD
BRANCH  26  28
ATOM     28  O3  NON d   1     -47.441  15.213  -6.181  0.00  0.00    -0.287 OA
ATOM     29  H22 NON d   1     -47.097  15.754  -6.915  0.00  0.00     0.244 HD
ENDBRANCH  26  28
ENDBRANCH  23  24
ENDBRANCH  22  23
ENDBRANCH  21  22
ENDBRANCH  20  21
ENDBRANCH  19  20
ENDBRANCH   3  19
TORSDOF 8
ENDMDL
MODEL 5
REMARK VINA RESULT:   -14.734      4.721      5.582
REMARK INTER + INTRA:         -18.458
REMARK INTER:                 -17.120
REMARK INTRA:                  -1.338
REMARK CONF_INDEPENDENT:        2.386
REMARK UNBOUND:                -1.338
REMARK  8 active torsions:
REMARK  status: ('A' for Active; 'I' for Inactive)
REMARK    1  A    between atoms: C1_2  and  C2_3 
REMARK       I    between atoms: C1_2  and  N1_17 
REMARK    2  A    between atoms: N1_17  and  C16_18 
REMARK    3  A    between atoms: C16_18  and  C17_19 
REMARK    4  A    between atoms: C17_19  and  C18_20 
REMARK    5  A    between atoms: C18_20  and  C19_21 
REMARK    6  A    between atoms: C19_21  and  C20_22 
REMARK    7  A    between atoms: C20_22  and  C21_23 
REMARK       I    between atoms: C21_23  and  N2_25 
REMARK    8  A    between atoms: N2_25  and  O3_26 
ROOT
ATOM      1  O1  NON d   1     -39.728  20.753  -5.617  0.00  0.00    -0.269 OA
ATOM      2  C1  NON d   1     -40.309  20.974  -4.559  0.00  0.00     0.242 C 
ATOM      3  N1  NON d   1     -40.729  19.997  -3.702  0.00  0.00    -0.358 N 
ATOM      4  H10 NON d   1     -41.408  20.244  -2.993  0.00  0.00     0.162 HD
ENDROOT
BRANCH   2   5
ATOM      5  C2  NON d   1     -40.693  22.371  -4.235  0.00  0.00     0.087 C 
ATOM      6  C3  NON d   1     -40.717  23.053  -3.076  0.00  0.00    -0.009 A 
ATOM      7  C4  NON d   1     -41.006  24.524  -3.066  0.00  0.00    -0.014 A 
ATOM      8  C15 NON d   1     -40.432  22.639  -1.675  0.00  0.00    -0.014 A 
ATOM      9  C5  NON d   1     -41.269  25.442  -4.073  0.00  0.00     0.013 A 
ATOM     10  C9  NON d   1     -40.904  24.941  -1.720  0.00  0.00    -0.014 A 
ATOM     11  C6  NON d   1     -41.415  26.790  -3.726  0.00  0.00     0.001 A 
ATOM     12  C7  NON d   1     -41.304  27.205  -2.391  0.00  0.00     0.001 A 
ATOM     13  C8  NON d   1     -41.051  26.278  -1.376  0.00  0.00     0.013 A 
ATOM     14  C10 NON d   1     -40.586  23.799  -0.877  0.00  0.00    -0.014 A 
ATOM     15  C11 NON d   1     -40.414  23.751   0.503  0.00  0.00     0.013 A 
ATOM     16  C12 NON d   1     -40.075  22.536   1.094  0.00  0.00     0.001 A 
ATOM     17  C13 NON d   1     -39.895  21.394   0.308  0.00  0.00     0.001 A 
ATOM     18  C14 NON d   1     -40.062  21.448  -1.079  0.00  0.00     0.013 A 
ENDBRANCH   2   5
BRANCH   3  19
ATOM     19  C16 NON d   1     -40.496  18.588  -3.980  0.00  0.00     0.123 C 
BRANCH  19  20
ATOM     20  C17 NON d   1     -41.521  18.001  -4.955  0.00  0.00     0.020 C 
BRANCH  20  21
ATOM     21  C18 NON d   1     -42.973  18.274  -4.536  0.00  0.00     0.002 C 
BRANCH  21  22
ATOM     22  C19 NON d   1     -43.771  16.997  -4.230  0.00  0.00     0.009 C 
BRANCH  22  23
ATOM     23  C20 NON d   1     -45.270  17.223  -4.034  0.00  0.00     0.105 C 
BRANCH  23  24
ATOM     24  C21 NON d   1     -46.147  16.893  -5.231  0.00  0.00     0.240 C 
ATOM     25  O2  NON d   1     -46.290  17.640  -6.189  0.00  0.00    -0.271 OA
ATOM     26  N2  NON d   1     -46.827  15.703  -5.041  0.00  0.00    -0.237 N 
ATOM     27  H21 NON d   1     -46.428  14.992  -4.437  0.00  0.00     0.197 HD
BRANCH  26  28
ATOM     28  O3  NON d   1     -47.489  15.199  -6.184  0.00  0.00    -0.287 OA
ATOM     29  H22 NON d   1     -47.090  15.723  -6.904  0.00  0.00     0.244 HD
ENDBRANCH  26  28
ENDBRANCH  23  24
ENDBRANCH  22  23
ENDBRANCH  21  22
ENDBRANCH  20  21
ENDBRANCH  19  20
ENDBRANCH   3  19
TORSDOF 8
ENDMDL
MODEL 6
REMARK VINA RESULT:   -14.729      3.024      5.264
REMARK INTER + INTRA:         -18.428
REMARK INTER:                 -17.115
REMARK INTRA:                  -1.312
REMARK CONF_INDEPENDENT:        2.386
REMARK UNBOUND:                -1.312
REMARK  8 active torsions:
REMARK  status: ('A' for Active; 'I' for Inactive)
REMARK    1  A    between atoms: C1_2  and  C2_3 
REMARK       I    between atoms: C1_2  and  N1_17 
REMARK    2  A    between atoms: N1_17  and  C16_18 
REMARK    3  A    between atoms: C16_18  and  C17_19 
REMARK    4  A    between atoms: C17_19  and  C18_20 
REMARK    5  A    between atoms: C18_20  and  C19_21 
REMARK    6  A    between atoms: C19_21  and  C20_22 
REMARK    7  A    between atoms: C20_22  and  C21_23 
REMARK       I    between atoms: C21_23  and  N2_25 
REMARK    8  A    between atoms: N2_25  and  O3_26 
ROOT
ATOM      1  O1  NON d   1     -39.481  17.779  -8.178  0.00  0.00    -0.269 OA
ATOM      2  C1  NON d   1     -39.956  18.867  -7.865  0.00  0.00     0.242 C 
ATOM      3  N1  NON d   1     -40.713  19.074  -6.748  0.00  0.00    -0.358 N 
ATOM      4  H10 NON d   1     -41.265  19.922  -6.697  0.00  0.00     0.162 HD
ENDROOT
BRANCH   2   5
ATOM      5  C2  NON d   1     -39.809  20.005  -8.807  0.00  0.00     0.087 C 
ATOM      6  C3  NON d   1     -39.750  21.335  -8.610  0.00  0.00    -0.009 A 
ATOM      7  C4  NON d   1     -39.438  22.258  -9.748  0.00  0.00    -0.014 A 
ATOM      8  C15 NON d   1     -39.881  22.163  -7.380  0.00  0.00    -0.014 A 
ATOM      9  C5  NON d   1     -39.154  22.041 -11.090  0.00  0.00     0.013 A 
ATOM     10  C9  NON d   1     -39.400  23.562  -9.205  0.00  0.00    -0.014 A 
ATOM     11  C6  NON d   1     -38.814  23.141 -11.886  0.00  0.00     0.001 A 
ATOM     12  C7  NON d   1     -38.767  24.434 -11.344  0.00  0.00     0.001 A 
ATOM     13  C8  NON d   1     -39.065  24.652  -9.997  0.00  0.00     0.013 A 
ATOM     14  C10 NON d   1     -39.695  23.508  -7.782  0.00  0.00    -0.014 A 
ATOM     15  C11 NON d   1     -39.781  24.551  -6.867  0.00  0.00     0.013 A 
ATOM     16  C12 NON d   1     -40.046  24.251  -5.531  0.00  0.00     0.001 A 
ATOM     17  C13 NON d   1     -40.202  22.923  -5.124  0.00  0.00     0.001 A 
ATOM     18  C14 NON d   1     -40.109  21.877  -6.047  0.00  0.00     0.013 A 
ENDBRANCH   2   5
BRANCH   3  19
ATOM     19  C16 NON d   1     -41.006  17.997  -5.815  0.00  0.00     0.123 C 
BRANCH  19  20
ATOM     20  C17 NON d   1     -41.260  18.502  -4.391  0.00  0.00     0.020 C 
BRANCH  20  21
ATOM     21  C18 NON d   1     -42.562  17.959  -3.784  0.00  0.00     0.002 C 
BRANCH  21  22
ATOM     22  C19 NON d   1     -43.752  18.001  -4.755  0.00  0.00     0.009 C 
BRANCH  22  23
ATOM     23  C20 NON d   1     -44.967  17.194  -4.297  0.00  0.00     0.105 C 
BRANCH  23  24
ATOM     24  C21 NON d   1     -46.040  16.967  -5.349  0.00  0.00     0.240 C 
ATOM     25  O2  NON d   1     -46.326  17.789  -6.210  0.00  0.00    -0.271 OA
ATOM     26  N2  NON d   1     -46.706  15.772  -5.136  0.00  0.00    -0.237 N 
ATOM     27  H21 NON d   1     -46.227  15.013  -4.665  0.00  0.00     0.197 HD
BRANCH  26  28
ATOM     28  O3  NON d   1     -47.563  15.366  -6.185  0.00  0.00    -0.287 OA
ATOM     29  H22 NON d   1     -47.810  16.217  -6.594  0.00  0.00     0.244 HD
ENDBRANCH  26  28
ENDBRANCH  23  24
ENDBRANCH  22  23
ENDBRANCH  21  22
ENDBRANCH  20  21
ENDBRANCH  19  20
ENDBRANCH   3  19
TORSDOF 8
ENDMDL
MODEL 7
REMARK VINA RESULT:   -14.295      2.659      4.640
REMARK INTER + INTRA:         -18.099
REMARK INTER:                 -16.682
REMARK INTRA:                  -1.418
REMARK CONF_INDEPENDENT:        2.386
REMARK UNBOUND:                -1.418
REMARK  8 active torsions:
REMARK  status: ('A' for Active; 'I' for Inactive)
REMARK    1  A    between atoms: C1_2  and  C2_3 
REMARK       I    between atoms: C1_2  and  N1_17 
REMARK    2  A    between atoms: N1_17  and  C16_18 
REMARK    3  A    between atoms: C16_18  and  C17_19 
REMARK    4  A    between atoms: C17_19  and  C18_20 
REMARK    5  A    between atoms: C18_20  and  C19_21 
REMARK    6  A    between atoms: C19_21  and  C20_22 
REMARK    7  A    between atoms: C20_22  and  C21_23 
REMARK       I    between atoms: C21_23  and  N2_25 
REMARK    8  A    between atoms: N2_25  and  O3_26 
ROOT
ATOM      1  O1  NON d   1     -39.355  20.650  -2.007  0.00  0.00    -0.269 OA
ATOM      2  C1  NON d   1     -39.953  20.608  -3.078  0.00  0.00     0.242 C 
ATOM      3  N1  NON d   1     -40.646  19.518  -3.520  0.00  0.00    -0.358 N 
ATOM      4  H10 NON d   1     -40.893  19.475  -4.501  0.00  0.00     0.162 HD
ENDROOT
BRANCH   2   5
ATOM      5  C2  NON d   1     -39.826  21.755  -4.011  0.00  0.00     0.087 C 
ATOM      6  C3  NON d   1     -39.804  21.825  -5.355  0.00  0.00    -0.009 A 
ATOM      7  C4  NON d   1     -39.822  23.154  -6.047  0.00  0.00    -0.014 A 
ATOM      8  C15 NON d   1     -39.831  20.769  -6.404  0.00  0.00    -0.014 A 
ATOM      9  C5  NON d   1     -39.872  24.461  -5.581  0.00  0.00     0.013 A 
ATOM     10  C9  NON d   1     -39.846  22.882  -7.433  0.00  0.00    -0.014 A 
ATOM     11  C6  NON d   1     -39.963  25.499  -6.515  0.00  0.00     0.001 A 
ATOM     12  C7  NON d   1     -39.997  25.228  -7.891  0.00  0.00     0.001 A 
ATOM     13  C8  NON d   1     -39.934  23.913  -8.358  0.00  0.00     0.013 A 
ATOM     14  C10 NON d   1     -39.823  21.444  -7.649  0.00  0.00    -0.014 A 
ATOM     15  C11 NON d   1     -39.817  20.740  -8.849  0.00  0.00     0.013 A 
ATOM     16  C12 NON d   1     -39.828  19.347  -8.809  0.00  0.00     0.001 A 
ATOM     17  C13 NON d   1     -39.865  18.676  -7.583  0.00  0.00     0.001 A 
ATOM     18  C14 NON d   1     -39.877  19.389  -6.380  0.00  0.00     0.013 A 
ENDBRANCH   2   5
BRANCH   3  19
ATOM     19  C16 NON d   1     -40.743  18.302  -2.727  0.00  0.00     0.123 C 
BRANCH  19  20
ATOM     20  C17 NON d   1     -42.140  17.675  -2.774  0.00  0.00     0.020 C 
BRANCH  20  21
ATOM     21  C18 NON d   1     -42.638  17.426  -4.204  0.00  0.00     0.002 C 
BRANCH  21  22
ATOM     22  C19 NON d   1     -43.994  18.085  -4.502  0.00  0.00     0.009 C 
BRANCH  22  23
ATOM     23  C20 NON d   1     -45.205  17.226  -4.141  0.00  0.00     0.105 C 
BRANCH  23  24
ATOM     24  C21 NON d   1     -46.134  16.883  -5.294  0.00  0.00     0.240 C 
ATOM     25  O2  NON d   1     -46.342  17.630  -6.240  0.00  0.00    -0.271 OA
ATOM     26  N2  NON d   1     -46.780  15.678  -5.074  0.00  0.00    -0.237 N 
ATOM     27  H21 NON d   1     -46.337  14.973  -4.495  0.00  0.00     0.197 HD
BRANCH  26  28
ATOM     28  O3  NON d   1     -47.489  15.165  -6.185  0.00  0.00    -0.287 OA
ATOM     29  H22 NON d   1     -47.627  15.961  -6.731  0.00  0.00     0.244 HD
ENDBRANCH  26  28
ENDBRANCH  23  24
ENDBRANCH  22  23
ENDBRANCH  21  22
ENDBRANCH  20  21
ENDBRANCH  19  20
ENDBRANCH   3  19
TORSDOF 8
ENDMDL
MODEL 8
REMARK VINA RESULT:   -14.029      3.644      6.343
REMARK INTER + INTRA:         -17.610
REMARK INTER:                 -16.416
REMARK INTRA:                  -1.194
REMARK CONF_INDEPENDENT:        2.386
REMARK UNBOUND:                -1.194
REMARK  8 active torsions:
REMARK  status: ('A' for Active; 'I' for Inactive)
REMARK    1  A    between atoms: C1_2  and  C2_3 
REMARK       I    between atoms: C1_2  and  N1_17 
REMARK    2  A    between atoms: N1_17  and  C16_18 
REMARK    3  A    between atoms: C16_18  and  C17_19 
REMARK    4  A    between atoms: C17_19  and  C18_20 
REMARK    5  A    between atoms: C18_20  and  C19_21 
REMARK    6  A    between atoms: C19_21  and  C20_22 
REMARK    7  A    between atoms: C20_22  and  C21_23 
REMARK       I    between atoms: C21_23  and  N2_25 
REMARK    8  A    between atoms: N2_25  and  O3_26 
ROOT
ATOM      1  O1  NON d   1     -40.642  19.670  -8.413  0.00  0.00    -0.269 OA
ATOM      2  C1  NON d   1     -40.322  20.465  -7.534  0.00  0.00     0.242 C 
ATOM      3  N1  NON d   1     -40.181  20.129  -6.218  0.00  0.00    -0.358 N 
ATOM      4  H10 NON d   1     -40.164  20.875  -5.534  0.00  0.00     0.162 HD
ENDROOT
BRANCH   2   5
ATOM      5  C2  NON d   1     -40.197  21.902  -7.884  0.00  0.00     0.087 C 
ATOM      6  C3  NON d   1     -39.452  22.545  -8.802  0.00  0.00    -0.009 A 
ATOM      7  C4  NON d   1     -39.644  24.010  -9.046  0.00  0.00    -0.014 A 
ATOM      8  C15 NON d   1     -38.424  22.058  -9.762  0.00  0.00    -0.014 A 
ATOM      9  C5  NON d   1     -40.505  24.954  -8.501  0.00  0.00     0.013 A 
ATOM     10  C9  NON d   1     -38.760  24.360 -10.091  0.00  0.00    -0.014 A 
ATOM     11  C6  NON d   1     -40.487  26.253  -9.022  0.00  0.00     0.001 A 
ATOM     12  C7  NON d   1     -39.616  26.597 -10.066  0.00  0.00     0.001 A 
ATOM     13  C8  NON d   1     -38.742  25.650 -10.605  0.00  0.00     0.013 A 
ATOM     14  C10 NON d   1     -38.003  23.189 -10.504  0.00  0.00    -0.014 A 
ATOM     15  C11 NON d   1     -37.018  23.084 -11.480  0.00  0.00     0.013 A 
ATOM     16  C12 NON d   1     -36.450  21.835 -11.727  0.00  0.00     0.001 A 
ATOM     17  C13 NON d   1     -36.881  20.710 -11.017  0.00  0.00     0.001 A 
ATOM     18  C14 NON d   1     -37.877  20.820 -10.042  0.00  0.00     0.013 A 
ENDBRANCH   2   5
BRANCH   3  19
ATOM     19  C16 NON d   1     -40.388  18.766  -5.753  0.00  0.00     0.123 C 
BRANCH  19  20
ATOM     20  C17 NON d   1     -41.473  18.667  -4.676  0.00  0.00     0.020 C 
BRANCH  20  21
ATOM     21  C18 NON d   1     -42.626  17.733  -5.070  0.00  0.00     0.002 C 
BRANCH  21  22
ATOM     22  C19 NON d   1     -43.996  18.207  -4.563  0.00  0.00     0.009 C 
BRANCH  22  23
ATOM     23  C20 NON d   1     -44.992  17.079  -4.292  0.00  0.00     0.105 C 
BRANCH  23  24
ATOM     24  C21 NON d   1     -46.064  16.881  -5.352  0.00  0.00     0.240 C 
ATOM     25  O2  NON d   1     -46.313  17.703  -6.223  0.00  0.00    -0.271 OA
ATOM     26  N2  NON d   1     -46.775  15.713  -5.133  0.00  0.00    -0.237 N 
ATOM     27  H21 NON d   1     -46.328  14.941  -4.650  0.00  0.00     0.197 HD
BRANCH  26  28
ATOM     28  O3  NON d   1     -47.637  15.328  -6.185  0.00  0.00    -0.287 OA
ATOM     29  H22 NON d   1     -47.351  15.911  -6.913  0.00  0.00     0.244 HD
ENDBRANCH  26  28
ENDBRANCH  23  24
ENDBRANCH  22  23
ENDBRANCH  21  22
ENDBRANCH  20  21
ENDBRANCH  19  20
ENDBRANCH   3  19
TORSDOF 8
ENDMDL
MODEL 9
REMARK VINA RESULT:   -13.887      4.330      5.851
REMARK INTER + INTRA:         -17.585
REMARK INTER:                 -16.274
REMARK INTRA:                  -1.311
REMARK CONF_INDEPENDENT:        2.386
REMARK UNBOUND:                -1.311
REMARK  8 active torsions:
REMARK  status: ('A' for Active; 'I' for Inactive)
REMARK    1  A    between atoms: C1_2  and  C2_3 
REMARK       I    between atoms: C1_2  and  N1_17 
REMARK    2  A    between atoms: N1_17  and  C16_18 
REMARK    3  A    between atoms: C16_18  and  C17_19 
REMARK    4  A    between atoms: C17_19  and  C18_20 
REMARK    5  A    between atoms: C18_20  and  C19_21 
REMARK    6  A    between atoms: C19_21  and  C20_22 
REMARK    7  A    between atoms: C20_22  and  C21_23 
REMARK       I    between atoms: C21_23  and  N2_25 
REMARK    8  A    between atoms: N2_25  and  O3_26 
ROOT
ATOM      1  O1  NON d   1     -40.270  22.400  -5.128  0.00  0.00    -0.269 OA
ATOM      2  C1  NON d   1     -40.784  21.749  -4.224  0.00  0.00     0.242 C 
ATOM      3  N1  NON d   1     -41.336  20.512  -4.396  0.00  0.00    -0.358 N 
ATOM      4  H10 NON d   1     -41.951  20.159  -3.673  0.00  0.00     0.162 HD
ENDROOT
BRANCH   2   5
ATOM      5  C2  NON d   1     -40.933  22.378  -2.888  0.00  0.00     0.087 C 
ATOM      6  C3  NON d   1     -40.196  22.293  -1.765  0.00  0.00    -0.009 A 
ATOM      7  C4  NON d   1     -40.496  23.174  -0.591  0.00  0.00    -0.014 A 
ATOM      8  C15 NON d   1     -38.995  21.482  -1.425  0.00  0.00    -0.014 A 
ATOM      9  C5  NON d   1     -41.444  24.164  -0.371  0.00  0.00     0.013 A 
ATOM     10  C9  NON d   1     -39.522  22.879   0.389  0.00  0.00    -0.014 A 
ATOM     11  C6  NON d   1     -41.402  24.873   0.836  0.00  0.00     0.001 A 
ATOM     12  C7  NON d   1     -40.428  24.586   1.804  0.00  0.00     0.001 A 
ATOM     13  C8  NON d   1     -39.482  23.581   1.586  0.00  0.00     0.013 A 
ATOM     14  C10 NON d   1     -38.633  21.838  -0.103  0.00  0.00    -0.014 A 
ATOM     15  C11 NON d   1     -37.554  21.236   0.535  0.00  0.00     0.013 A 
ATOM     16  C12 NON d   1     -36.819  20.274  -0.156  0.00  0.00     0.001 A 
ATOM     17  C13 NON d   1     -37.154  19.939  -1.471  0.00  0.00     0.001 A 
ATOM     18  C14 NON d   1     -38.236  20.552  -2.110  0.00  0.00     0.013 A 
ENDBRANCH   2   5
BRANCH   3  19
ATOM     19  C16 NON d   1     -41.339  19.851  -5.692  0.00  0.00     0.123 C 
BRANCH  19  20
ATOM     20  C17 NON d   1     -41.712  18.369  -5.600  0.00  0.00     0.020 C 
BRANCH  20  21
ATOM     21  C18 NON d   1     -42.610  18.050  -4.396  0.00  0.00     0.002 C 
BRANCH  21  22
ATOM     22  C19 NON d   1     -44.092  18.381  -4.634  0.00  0.00     0.009 C 
BRANCH  22  23
ATOM     23  C20 NON d   1     -45.052  17.232  -4.326  0.00  0.00     0.105 C 
BRANCH  23  24
ATOM     24  C21 NON d   1     -46.072  16.920  -5.408  0.00  0.00     0.240 C 
ATOM     25  O2  NON d   1     -46.311  17.667  -6.347  0.00  0.00    -0.271 OA
ATOM     26  N2  NON d   1     -46.752  15.746  -5.131  0.00  0.00    -0.237 N 
ATOM     27  H21 NON d   1     -46.300  15.028  -4.575  0.00  0.00     0.197 HD
BRANCH  26  28
ATOM     28  O3  NON d   1     -47.556  15.255  -6.185  0.00  0.00    -0.287 OA
ATOM     29  H22 NON d   1     -47.238  15.771  -6.949  0.00  0.00     0.244 HD
ENDBRANCH  26  28
ENDBRANCH  23  24
ENDBRANCH  22  23
ENDBRANCH  21  22
ENDBRANCH  20  21
ENDBRANCH  19  20
ENDBRANCH   3  19
TORSDOF 8
ENDMDL
