MODEL 1
REMARK VINA RESULT:   -22.171      0.000      0.000
REMARK INTER + INTRA:         -25.667
REMARK INTER:                 -24.856
REMARK INTRA:                  -0.811
REMARK CONF_INDEPENDENT:        2.685
REMARK UNBOUND:                -0.811
REMARK  9 active torsions:
REMARK  status: ('A' for Active; 'I' for Inactive)
REMARK    1  A    between atoms: C2_2  and  S1_3 
REMARK    2  A    between atoms: S1_3  and  C3_4 
REMARK    3  A    between atoms: C3_4  and  S3_6 
REMARK    4  A    between atoms: S3_6  and  C4_7 
REMARK    5  A    between atoms: C4_7  and  C5_8 
REMARK    6  A    between atoms: C5_8  and  C6_10 
REMARK    7  A    between atoms: C9_13  and  C10_14 
REMARK       I    between atoms: C10_14  and  N1_16 
REMARK    8  A    between atoms: N1_16  and  C11_17 
REMARK    9  A    between atoms: C11_17  and  C12_18 
ROOT
ATOM      1  C6  NON d   1     -42.278  17.832  -3.915  0.00  0.00     0.052 A 
ATOM      2  C7  NON d   1     -41.458  17.212  -2.988  0.00  0.00     0.024 A 
ATOM      3  C8  NON d   1     -40.483  18.098  -2.446  0.00  0.00     0.026 A 
ATOM      4  C9  NON d   1     -40.570  19.373  -2.967  0.00  0.00     0.073 A 
ATOM      5  S4  NON d   1     -41.844  19.483  -4.105  0.00  0.00    -0.081 SA
ENDROOT
BRANCH   4   6
ATOM      6  C10 NON d   1     -39.712  20.502  -2.626  0.00  0.00     0.258 C 
ATOM      7  O2  NON d   1     -39.199  21.220  -3.481  0.00  0.00    -0.267 OA
ATOM      8  N1  NON d   1     -39.486  20.708  -1.279  0.00  0.00    -0.352 N 
ATOM      9  H10 NON d   1     -39.789  19.980  -0.647  0.00  0.00     0.163 HD
BRANCH   8  10
ATOM     10  C11 NON d   1     -38.535  21.704  -0.853  0.00  0.00     0.161 C 
BRANCH  10  11
ATOM     11  C12 NON d   1     -38.939  22.572   0.317  0.00  0.00    -0.041 A 
ATOM     12  C13 NON d   1     -40.307  22.620   0.645  0.00  0.00     0.009 A 
ATOM     13  C14 NON d   1     -40.777  23.414   1.694  0.00  0.00     0.001 A 
ATOM     14  C15 NON d   1     -39.883  24.179   2.435  0.00  0.00     0.000 A 
ATOM     15  C16 NON d   1     -38.524  24.147   2.128  0.00  0.00     0.001 A 
ATOM     16  C17 NON d   1     -38.055  23.348   1.078  0.00  0.00     0.009 A 
ENDBRANCH  10  11
ENDBRANCH   8  10
ENDBRANCH   4   6
BRANCH   1  17
ATOM     17  C5  NON d   1     -43.394  17.285  -4.691  0.00  0.00     0.175 C 
ATOM     18  O1  NON d   1     -43.287  16.292  -5.413  0.00  0.00    -0.291 OA
BRANCH  17  19
ATOM     19  C4  NON d   1     -44.714  18.039  -4.547  0.00  0.00     0.165 C 
BRANCH  19  20
ATOM     20  S3  NON d   1     -45.937  17.630  -5.810  0.00  0.00    -0.104 SA
BRANCH  20  21
ATOM     21  C3  NON d   1     -47.081  16.523  -5.026  0.00  0.00     0.104 C 
ATOM     22  S2  NON d   1     -48.024  15.383  -5.810  0.00  0.00    -0.065 SA
BRANCH  21  23
ATOM     23  S1  NON d   1     -46.920  16.702  -3.272  0.00  0.00    -0.112 SA
BRANCH  23  24
ATOM     24  C2  NON d   1     -48.597  16.797  -2.601  0.00  0.00     0.076 C 
ATOM     25  C1  NON d   1     -49.358  15.492  -2.757  0.00  0.00     0.016 C 
ENDBRANCH  23  24
ENDBRANCH  21  23
ENDBRANCH  20  21
ENDBRANCH  19  20
ENDBRANCH  17  19
ENDBRANCH   1  17
TORSDOF 9
ENDMDL
MODEL 2
REMARK VINA RESULT:   -22.115      0.576      1.496
REMARK INTER + INTRA:         -25.415
REMARK INTER:                 -24.800
REMARK INTRA:                  -0.616
REMARK CONF_INDEPENDENT:        2.685
REMARK UNBOUND:                -0.616
REMARK  9 active torsions:
REMARK  status: ('A' for Active; 'I' for Inactive)
REMARK    1  A    between atoms: C2_2  and  S1_3 
REMARK    2  A    between atoms: S1_3  and  C3_4 
REMARK    3  A    between atoms: C3_4  and  S3_6 
REMARK    4  A    between atoms: S3_6  and  C4_7 
REMARK    5  A    between atoms: C4_7  and  C5_8 
REMARK    6  A    between atoms: C5_8  and  C6_10 
REMARK    7  A    between atoms: C9_13  and  C10_14 
REMARK       I    between atoms: C10_14  and  N1_16 
REMARK    8  A    between atoms: N1_16  and  C11_17 
REMARK    9  A    between atoms: C11_17  and  C12_18 
ROOT
ATOM      1  C6  NON d   1     -42.302  17.920  -3.844  0.00  0.00     0.052 A 
ATOM      2  C7  NON d   1     -41.556  17.251  -2.890  0.00  0.00     0.024 A 
ATOM      3  C8  NON d   1     -40.608  18.099  -2.248  0.00  0.00     0.026 A 
ATOM      4  C9  NON d   1     -40.642  19.395  -2.722  0.00  0.00     0.073 A 
ATOM      5  S4  NON d   1     -41.834  19.570  -3.938  0.00  0.00    -0.081 SA
ENDROOT
BRANCH   4   6
ATOM      6  C10 NON d   1     -39.794  20.495  -2.279  0.00  0.00     0.258 C 
ATOM      7  O2  NON d   1     -39.240  21.258  -3.067  0.00  0.00    -0.267 OA
ATOM      8  N1  NON d   1     -39.625  20.620  -0.914  0.00  0.00    -0.352 N 
ATOM      9  H10 NON d   1     -39.959  19.859  -0.339  0.00  0.00     0.163 HD
BRANCH   8  10
ATOM     10  C11 NON d   1     -38.689  21.582  -0.389  0.00  0.00     0.161 C 
BRANCH  10  11
ATOM     11  C12 NON d   1     -39.260  22.689   0.467  0.00  0.00    -0.041 A 
ATOM     12  C13 NON d   1     -38.352  23.463   1.213  0.00  0.00     0.009 A 
ATOM     13  C14 NON d   1     -38.789  24.492   2.051  0.00  0.00     0.001 A 
ATOM     14  C15 NON d   1     -40.148  24.763   2.161  0.00  0.00     0.000 A 
ATOM     15  C16 NON d   1     -41.065  24.009   1.431  0.00  0.00     0.001 A 
ATOM     16  C17 NON d   1     -40.625  22.981   0.589  0.00  0.00     0.009 A 
ENDBRANCH  10  11
ENDBRANCH   8  10
ENDBRANCH   4   6
BRANCH   1  17
ATOM     17  C5  NON d   1     -43.370  17.422  -4.715  0.00  0.00     0.175 C 
ATOM     18  O1  NON d   1     -43.264  16.397  -5.391  0.00  0.00    -0.291 OA
BRANCH  17  19
ATOM     19  C4  NON d   1     -44.639  18.271  -4.734  0.00  0.00     0.165 C 
BRANCH  19  20
ATOM     20  S3  NON d   1     -45.938  17.630  -5.810  0.00  0.00    -0.104 SA
BRANCH  20  21
ATOM     21  C3  NON d   1     -46.930  16.575  -4.785  0.00  0.00     0.104 C 
ATOM     22  S2  NON d   1     -46.867  16.503  -3.113  0.00  0.00    -0.065 SA
BRANCH  21  23
ATOM     23  S1  NON d   1     -48.118  15.754  -5.810  0.00  0.00    -0.112 SA
BRANCH  23  24
ATOM     24  C2  NON d   1     -49.242  14.871  -4.702  0.00  0.00     0.076 C 
ATOM     25  C1  NON d   1     -49.694  15.727  -3.532  0.00  0.00     0.016 C 
ENDBRANCH  23  24
ENDBRANCH  21  23
ENDBRANCH  20  21
ENDBRANCH  19  20
ENDBRANCH  17  19
ENDBRANCH   1  17
TORSDOF 9
ENDMDL
MODEL 3
REMARK VINA RESULT:   -21.374      4.110      6.249
REMARK INTER + INTRA:         -24.887
REMARK INTER:                 -24.059
REMARK INTRA:                  -0.828
REMARK CONF_INDEPENDENT:        2.685
REMARK UNBOUND:                -0.828
REMARK  9 active torsions:
REMARK  status: ('A' for Active; 'I' for Inactive)
REMARK    1  A    between atoms: C2_2  and  S1_3 
REMARK    2  A    between atoms: S1_3  and  C3_4 
REMARK    3  A    between atoms: C3_4  and  S3_6 
REMARK    4  A    between atoms: S3_6  and  C4_7 
REMARK    5  A    between atoms: C4_7  and  C5_8 
REMARK    6  A    between atoms: C5_8  and  C6_10 
REMARK    7  A    between atoms: C9_13  and  C10_14 
REMARK       I    between atoms: C10_14  and  N1_16 
REMARK    8  A    between atoms: N1_16  and  C11_17 
REMARK    9  A    between atoms: C11_17  and  C12_18 
ROOT
ATOM      1  C6  NON d   1     -42.313  17.463  -4.157  0.00  0.00     0.052 A 
ATOM      2  C7  NON d   1     -41.643  17.638  -2.959  0.00  0.00     0.024 A 
ATOM      3  C8  NON d   1     -40.358  18.227  -3.136  0.00  0.00     0.026 A 
ATOM      4  C9  NON d   1     -40.067  18.490  -4.459  0.00  0.00     0.073 A 
ATOM      5  S4  NON d   1     -41.364  18.024  -5.475  0.00  0.00    -0.081 SA
ENDROOT
BRANCH   4   6
ATOM      6  C10 NON d   1     -38.834  19.079  -4.969  0.00  0.00     0.258 C 
ATOM      7  O2  NON d   1     -37.970  19.539  -4.226  0.00  0.00    -0.267 OA
ATOM      8  N1  NON d   1     -38.700  19.114  -6.342  0.00  0.00    -0.352 N 
ATOM      9  H10 NON d   1     -39.518  18.886  -6.889  0.00  0.00     0.163 HD
BRANCH   8  10
ATOM     10  C11 NON d   1     -37.587  19.809  -6.940  0.00  0.00     0.161 C 
BRANCH  10  11
ATOM     11  C12 NON d   1     -37.818  20.416  -8.304  0.00  0.00    -0.041 A 
ATOM     12  C13 NON d   1     -36.802  20.255  -9.264  0.00  0.00     0.009 A 
ATOM     13  C14 NON d   1     -36.915  20.803 -10.544  0.00  0.00     0.001 A 
ATOM     14  C15 NON d   1     -38.051  21.527 -10.887  0.00  0.00     0.000 A 
ATOM     15  C16 NON d   1     -39.071  21.699  -9.953  0.00  0.00     0.001 A 
ATOM     16  C17 NON d   1     -38.956  21.146  -8.672  0.00  0.00     0.009 A 
ENDBRANCH  10  11
ENDBRANCH   8  10
ENDBRANCH   4   6
BRANCH   1  17
ATOM     17  C5  NON d   1     -43.643  16.903  -4.412  0.00  0.00     0.175 C 
ATOM     18  O1  NON d   1     -43.901  16.205  -5.395  0.00  0.00    -0.291 OA
BRANCH  17  19
ATOM     19  C4  NON d   1     -44.703  17.250  -3.369  0.00  0.00     0.165 C 
BRANCH  19  20
ATOM     20  S3  NON d   1     -46.266  16.374  -3.589  0.00  0.00    -0.104 SA
BRANCH  20  21
ATOM     21  C3  NON d   1     -46.780  16.725  -5.251  0.00  0.00     0.104 C 
ATOM     22  S2  NON d   1     -46.241  18.005  -6.186  0.00  0.00    -0.065 SA
BRANCH  21  23
ATOM     23  S1  NON d   1     -47.809  15.398  -5.810  0.00  0.00    -0.112 SA
BRANCH  23  24
ATOM     24  C2  NON d   1     -48.937  15.003  -4.451  0.00  0.00     0.076 C 
ATOM     25  C1  NON d   1     -49.271  16.219  -3.604  0.00  0.00     0.016 C 
ENDBRANCH  23  24
ENDBRANCH  21  23
ENDBRANCH  20  21
ENDBRANCH  19  20
ENDBRANCH  17  19
ENDBRANCH   1  17
TORSDOF 9
ENDMDL
MODEL 4
REMARK VINA RESULT:   -21.316      1.427      1.582
REMARK INTER + INTRA:         -25.011
REMARK INTER:                 -24.001
REMARK INTRA:                  -1.011
REMARK CONF_INDEPENDENT:        2.685
REMARK UNBOUND:                -1.011
REMARK  9 active torsions:
REMARK  status: ('A' for Active; 'I' for Inactive)
REMARK    1  A    between atoms: C2_2  and  S1_3 
REMARK    2  A    between atoms: S1_3  and  C3_4 
REMARK    3  A    between atoms: C3_4  and  S3_6 
REMARK    4  A    between atoms: S3_6  and  C4_7 
REMARK    5  A    between atoms: C4_7  and  C5_8 
REMARK    6  A    between atoms: C5_8  and  C6_10 
REMARK    7  A    between atoms: C9_13  and  C10_14 
REMARK       I    between atoms: C10_14  and  N1_16 
REMARK    8  A    between atoms: N1_16  and  C11_17 
REMARK    9  A    between atoms: C11_17  and  C12_18 
ROOT
ATOM      1  C6  NON d   1     -42.285  17.922  -3.936  0.00  0.00     0.052 A 
ATOM      2  C7  NON d   1     -41.408  17.343  -3.036  0.00  0.00     0.024 A 
ATOM      3  C8  NON d   1     -40.457  18.275  -2.528  0.00  0.00     0.026 A 
ATOM      4  C9  NON d   1     -40.620  19.544  -3.047  0.00  0.00     0.073 A 
ATOM      5  S4  NON d   1     -41.936  19.591  -4.142  0.00  0.00    -0.081 SA
ENDROOT
BRANCH   4   6
ATOM      6  C10 NON d   1     -39.805  20.712  -2.736  0.00  0.00     0.258 C 
ATOM      7  O2  NON d   1     -38.752  20.630  -2.108  0.00  0.00    -0.267 OA
ATOM      8  N1  NON d   1     -40.298  21.928  -3.167  0.00  0.00    -0.352 N 
ATOM      9  H10 NON d   1     -41.246  21.941  -3.514  0.00  0.00     0.163 HD
BRANCH   8  10
ATOM     10  C11 NON d   1     -39.639  23.150  -2.778  0.00  0.00     0.161 C 
BRANCH  10  11
ATOM     11  C12 NON d   1     -40.106  23.795  -1.494  0.00  0.00    -0.041 A 
ATOM     12  C13 NON d   1     -40.476  25.151  -1.550  0.00  0.00     0.009 A 
ATOM     13  C14 NON d   1     -40.896  25.839  -0.408  0.00  0.00     0.001 A 
ATOM     14  C15 NON d   1     -40.950  25.180   0.815  0.00  0.00     0.000 A 
ATOM     15  C16 NON d   1     -40.589  23.836   0.893  0.00  0.00     0.001 A 
ATOM     16  C17 NON d   1     -40.171  23.148  -0.253  0.00  0.00     0.009 A 
ENDBRANCH  10  11
ENDBRANCH   8  10
ENDBRANCH   4   6
BRANCH   1  17
ATOM     17  C5  NON d   1     -43.400  17.322  -4.673  0.00  0.00     0.175 C 
ATOM     18  O1  NON d   1     -43.281  16.307  -5.363  0.00  0.00    -0.291 OA
BRANCH  17  19
ATOM     19  C4  NON d   1     -44.736  18.048  -4.532  0.00  0.00     0.165 C 
BRANCH  19  20
ATOM     20  S3  NON d   1     -45.940  17.630  -5.810  0.00  0.00    -0.104 SA
BRANCH  20  21
ATOM     21  C3  NON d   1     -47.103  16.539  -5.032  0.00  0.00     0.104 C 
ATOM     22  S2  NON d   1     -48.003  15.361  -5.810  0.00  0.00    -0.065 SA
BRANCH  21  23
ATOM     23  S1  NON d   1     -47.012  16.782  -3.281  0.00  0.00    -0.112 SA
BRANCH  23  24
ATOM     24  C2  NON d   1     -48.715  16.882  -2.679  0.00  0.00     0.076 C 
ATOM     25  C1  NON d   1     -49.440  15.550  -2.769  0.00  0.00     0.016 C 
ENDBRANCH  23  24
ENDBRANCH  21  23
ENDBRANCH  20  21
ENDBRANCH  19  20
ENDBRANCH  17  19
ENDBRANCH   1  17
TORSDOF 9
ENDMDL
MODEL 5
REMARK VINA RESULT:   -21.309      4.390      6.161
REMARK INTER + INTRA:         -24.769
REMARK INTER:                 -23.994
REMARK INTRA:                  -0.775
REMARK CONF_INDEPENDENT:        2.685
REMARK UNBOUND:                -0.775
REMARK  9 active torsions:
REMARK  status: ('A' for Active; 'I' for Inactive)
REMARK    1  A    between atoms: C2_2  and  S1_3 
REMARK    2  A    between atoms: S1_3  and  C3_4 
REMARK    3  A    between atoms: C3_4  and  S3_6 
REMARK    4  A    between atoms: S3_6  and  C4_7 
REMARK    5  A    between atoms: C4_7  and  C5_8 
REMARK    6  A    between atoms: C5_8  and  C6_10 
REMARK    7  A    between atoms: C9_13  and  C10_14 
REMARK       I    between atoms: C10_14  and  N1_16 
REMARK    8  A    between atoms: N1_16  and  C11_17 
REMARK    9  A    between atoms: C11_17  and  C12_18 
ROOT
ATOM      1  C6  NON d   1     -42.244  18.240  -4.501  0.00  0.00     0.052 A 
ATOM      2  C7  NON d   1     -41.314  18.312  -3.480  0.00  0.00     0.024 A 
ATOM      3  C8  NON d   1     -40.330  19.317  -3.709  0.00  0.00     0.026 A 
ATOM      4  C9  NON d   1     -40.522  19.992  -4.898  0.00  0.00     0.073 A 
ATOM      5  S4  NON d   1     -41.902  19.401  -5.721  0.00  0.00    -0.081 SA
ENDROOT
BRANCH   4   6
ATOM      6  C10 NON d   1     -39.685  21.064  -5.423  0.00  0.00     0.258 C 
ATOM      7  O2  NON d   1     -38.709  21.496  -4.813  0.00  0.00    -0.267 OA
ATOM      8  N1  NON d   1     -40.066  21.591  -6.641  0.00  0.00    -0.352 N 
ATOM      9  H10 NON d   1     -40.971  21.316  -6.997  0.00  0.00     0.163 HD
BRANCH   8  10
ATOM     10  C11 NON d   1     -39.390  22.750  -7.168  0.00  0.00     0.161 C 
BRANCH  10  11
ATOM     11  C12 NON d   1     -39.409  22.925  -8.669  0.00  0.00    -0.041 A 
ATOM     12  C13 NON d   1     -39.920  24.135  -9.172  0.00  0.00     0.009 A 
ATOM     13  C14 NON d   1     -40.000  24.376 -10.547  0.00  0.00     0.001 A 
ATOM     14  C15 NON d   1     -39.571  23.405 -11.444  0.00  0.00     0.000 A 
ATOM     15  C16 NON d   1     -39.061  22.199 -10.968  0.00  0.00     0.001 A 
ATOM     16  C17 NON d   1     -38.978  21.961  -9.590  0.00  0.00     0.009 A 
ENDBRANCH  10  11
ENDBRANCH   8  10
ENDBRANCH   4   6
BRANCH   1  17
ATOM     17  C5  NON d   1     -43.404  17.358  -4.650  0.00  0.00     0.175 C 
ATOM     18  O1  NON d   1     -43.307  16.150  -4.873  0.00  0.00    -0.291 OA
BRANCH  17  19
ATOM     19  C4  NON d   1     -44.762  18.044  -4.512  0.00  0.00     0.165 C 
BRANCH  19  20
ATOM     20  S3  NON d   1     -45.940  17.611  -5.809  0.00  0.00    -0.104 SA
BRANCH  20  21
ATOM     21  C3  NON d   1     -47.135  16.553  -5.035  0.00  0.00     0.104 C 
ATOM     22  S2  NON d   1     -48.042  15.378  -5.810  0.00  0.00    -0.065 SA
BRANCH  21  23
ATOM     23  S1  NON d   1     -47.070  16.823  -3.286  0.00  0.00    -0.112 SA
BRANCH  23  24
ATOM     24  C2  NON d   1     -48.777  16.772  -2.687  0.00  0.00     0.076 C 
ATOM     25  C1  NON d   1     -49.539  15.567  -3.209  0.00  0.00     0.016 C 
ENDBRANCH  23  24
ENDBRANCH  21  23
ENDBRANCH  20  21
ENDBRANCH  19  20
ENDBRANCH  17  19
ENDBRANCH   1  17
TORSDOF 9
ENDMDL
MODEL 6
REMARK VINA RESULT:   -20.884      1.500      1.830
REMARK INTER + INTRA:         -24.265
REMARK INTER:                 -23.569
REMARK INTRA:                  -0.696
REMARK CONF_INDEPENDENT:        2.685
REMARK UNBOUND:                -0.696
REMARK  9 active torsions:
REMARK  status: ('A' for Active; 'I' for Inactive)
REMARK    1  A    between atoms: C2_2  and  S1_3 
REMARK    2  A    between atoms: S1_3  and  C3_4 
REMARK    3  A    between atoms: C3_4  and  S3_6 
REMARK    4  A    between atoms: S3_6  and  C4_7 
REMARK    5  A    between atoms: C4_7  and  C5_8 
REMARK    6  A    between atoms: C5_8  and  C6_10 
REMARK    7  A    between atoms: C9_13  and  C10_14 
REMARK       I    between atoms: C10_14  and  N1_16 
REMARK    8  A    between atoms: N1_16  and  C11_17 
REMARK    9  A    between atoms: C11_17  and  C12_18 
ROOT
ATOM      1  C6  NON d   1     -42.193  17.937  -4.671  0.00  0.00     0.052 A 
ATOM      2  C7  NON d   1     -41.391  18.585  -5.594  0.00  0.00     0.024 A 
ATOM      3  C8  NON d   1     -40.124  18.947  -5.053  0.00  0.00     0.026 A 
ATOM      4  C9  NON d   1     -39.979  18.576  -3.732  0.00  0.00     0.073 A 
ATOM      5  S4  NON d   1     -41.385  17.781  -3.164  0.00  0.00    -0.081 SA
ENDROOT
BRANCH   4   6
ATOM      6  C10 NON d   1     -38.809  18.811  -2.895  0.00  0.00     0.258 C 
ATOM      7  O2  NON d   1     -38.221  17.901  -2.316  0.00  0.00    -0.267 OA
ATOM      8  N1  NON d   1     -38.409  20.127  -2.766  0.00  0.00    -0.352 N 
ATOM      9  H10 NON d   1     -39.039  20.834  -3.118  0.00  0.00     0.163 HD
BRANCH   8  10
ATOM     10  C11 NON d   1     -37.357  20.473  -1.843  0.00  0.00     0.161 C 
BRANCH  10  11
ATOM     11  C12 NON d   1     -37.772  21.174  -0.571  0.00  0.00    -0.041 A 
ATOM     12  C13 NON d   1     -38.922  21.983  -0.624  0.00  0.00     0.009 A 
ATOM     13  C14 NON d   1     -39.367  22.690   0.496  0.00  0.00     0.001 A 
ATOM     14  C15 NON d   1     -38.665  22.602   1.693  0.00  0.00     0.000 A 
ATOM     15  C16 NON d   1     -37.523  21.806   1.768  0.00  0.00     0.001 A 
ATOM     16  C17 NON d   1     -37.081  21.096   0.646  0.00  0.00     0.009 A 
ENDBRANCH  10  11
ENDBRANCH   8  10
ENDBRANCH   4   6
BRANCH   1  17
ATOM     17  C5  NON d   1     -43.549  17.403  -4.822  0.00  0.00     0.175 C 
ATOM     18  O1  NON d   1     -43.814  16.203  -4.728  0.00  0.00    -0.291 OA
BRANCH  17  19
ATOM     19  C4  NON d   1     -44.628  18.445  -5.112  0.00  0.00     0.165 C 
BRANCH  19  20
ATOM     20  S3  NON d   1     -45.960  17.850  -6.174  0.00  0.00    -0.104 SA
BRANCH  20  21
ATOM     21  C3  NON d   1     -46.849  16.661  -5.203  0.00  0.00     0.104 C 
ATOM     22  S2  NON d   1     -47.794  15.419  -5.810  0.00  0.00    -0.065 SA
BRANCH  21  23
ATOM     23  S1  NON d   1     -46.420  16.895  -3.501  0.00  0.00    -0.112 SA
BRANCH  23  24
ATOM     24  C2  NON d   1     -47.726  16.114  -2.522  0.00  0.00     0.076 C 
ATOM     25  C1  NON d   1     -49.074  16.149  -3.221  0.00  0.00     0.016 C 
ENDBRANCH  23  24
ENDBRANCH  21  23
ENDBRANCH  20  21
ENDBRANCH  19  20
ENDBRANCH  17  19
ENDBRANCH   1  17
TORSDOF 9
ENDMDL
MODEL 7
REMARK VINA RESULT:   -20.682      4.598      6.324
REMARK INTER + INTRA:         -24.214
REMARK INTER:                 -23.367
REMARK INTRA:                  -0.847
REMARK CONF_INDEPENDENT:        2.685
REMARK UNBOUND:                -0.847
REMARK  9 active torsions:
REMARK  status: ('A' for Active; 'I' for Inactive)
REMARK    1  A    between atoms: C2_2  and  S1_3 
REMARK    2  A    between atoms: S1_3  and  C3_4 
REMARK    3  A    between atoms: C3_4  and  S3_6 
REMARK    4  A    between atoms: S3_6  and  C4_7 
REMARK    5  A    between atoms: C4_7  and  C5_8 
REMARK    6  A    between atoms: C5_8  and  C6_10 
REMARK    7  A    between atoms: C9_13  and  C10_14 
REMARK       I    between atoms: C10_14  and  N1_16 
REMARK    8  A    between atoms: N1_16  and  C11_17 
REMARK    9  A    between atoms: C11_17  and  C12_18 
ROOT
ATOM      1  C6  NON d   1     -42.294  18.407  -4.524  0.00  0.00     0.052 A 
ATOM      2  C7  NON d   1     -41.363  18.903  -3.629  0.00  0.00     0.024 A 
ATOM      3  C8  NON d   1     -40.252  19.513  -4.282  0.00  0.00     0.026 A 
ATOM      4  C9  NON d   1     -40.351  19.471  -5.658  0.00  0.00     0.073 A 
ATOM      5  S4  NON d   1     -41.799  18.697  -6.143  0.00  0.00    -0.081 SA
ENDROOT
BRANCH   4   6
ATOM      6  C10 NON d   1     -39.377  19.998  -6.607  0.00  0.00     0.258 C 
ATOM      7  O2  NON d   1     -38.243  20.331  -6.269  0.00  0.00    -0.267 OA
ATOM      8  N1  NON d   1     -39.810  20.129  -7.911  0.00  0.00    -0.352 N 
ATOM      9  H10 NON d   1     -40.798  20.009  -8.080  0.00  0.00     0.163 HD
BRANCH   8  10
ATOM     10  C11 NON d   1     -38.970  20.778  -8.887  0.00  0.00     0.161 C 
BRANCH  10  11
ATOM     11  C12 NON d   1     -39.370  22.172  -9.309  0.00  0.00    -0.041 A 
ATOM     12  C13 NON d   1     -39.185  22.517 -10.660  0.00  0.00     0.009 A 
ATOM     13  C14 NON d   1     -39.502  23.792 -11.137  0.00  0.00     0.001 A 
ATOM     14  C15 NON d   1     -40.010  24.749 -10.265  0.00  0.00     0.000 A 
ATOM     15  C16 NON d   1     -40.203  24.428  -8.923  0.00  0.00     0.001 A 
ATOM     16  C17 NON d   1     -39.887  23.150  -8.448  0.00  0.00     0.009 A 
ENDBRANCH  10  11
ENDBRANCH   8  10
ENDBRANCH   4   6
BRANCH   1  17
ATOM     17  C5  NON d   1     -43.563  17.720  -4.270  0.00  0.00     0.175 C 
ATOM     18  O1  NON d   1     -43.630  16.600  -3.760  0.00  0.00    -0.291 OA
BRANCH  17  19
ATOM     19  C4  NON d   1     -44.813  18.492  -4.687  0.00  0.00     0.165 C 
BRANCH  19  20
ATOM     20  S3  NON d   1     -45.896  17.587  -5.812  0.00  0.00    -0.104 SA
BRANCH  20  21
ATOM     21  C3  NON d   1     -46.901  16.553  -4.779  0.00  0.00     0.104 C 
ATOM     22  S2  NON d   1     -47.117  16.743  -3.129  0.00  0.00    -0.065 SA
BRANCH  21  23
ATOM     23  S1  NON d   1     -47.776  15.411  -5.811  0.00  0.00    -0.112 SA
BRANCH  23  24
ATOM     24  C2  NON d   1     -49.315  15.004  -4.951  0.00  0.00     0.076 C 
ATOM     25  C1  NON d   1     -49.073  14.488  -3.543  0.00  0.00     0.016 C 
ENDBRANCH  23  24
ENDBRANCH  21  23
ENDBRANCH  20  21
ENDBRANCH  19  20
ENDBRANCH  17  19
ENDBRANCH   1  17
TORSDOF 9
ENDMDL
MODEL 8
REMARK VINA RESULT:   -20.496      2.846      3.261
REMARK INTER + INTRA:         -23.782
REMARK INTER:                 -23.180
REMARK INTRA:                  -0.601
REMARK CONF_INDEPENDENT:        2.685
REMARK UNBOUND:                -0.601
REMARK  9 active torsions:
REMARK  status: ('A' for Active; 'I' for Inactive)
REMARK    1  A    between atoms: C2_2  and  S1_3 
REMARK    2  A    between atoms: S1_3  and  C3_4 
REMARK    3  A    between atoms: C3_4  and  S3_6 
REMARK    4  A    between atoms: S3_6  and  C4_7 
REMARK    5  A    between atoms: C4_7  and  C5_8 
REMARK    6  A    between atoms: C5_8  and  C6_10 
REMARK    7  A    between atoms: C9_13  and  C10_14 
REMARK       I    between atoms: C10_14  and  N1_16 
REMARK    8  A    between atoms: N1_16  and  C11_17 
REMARK    9  A    between atoms: C11_17  and  C12_18 
ROOT
ATOM      1  C6  NON d   1     -42.277  18.208  -4.291  0.00  0.00     0.052 A 
ATOM      2  C7  NON d   1     -41.019  17.734  -3.966  0.00  0.00     0.024 A 
ATOM      3  C8  NON d   1     -40.021  18.749  -4.032  0.00  0.00     0.026 A 
ATOM      4  C9  NON d   1     -40.530  19.976  -4.408  0.00  0.00     0.073 A 
ATOM      5  S4  NON d   1     -42.219  19.883  -4.668  0.00  0.00    -0.081 SA
ENDROOT
BRANCH   4   6
ATOM      6  C10 NON d   1     -39.768  21.208  -4.576  0.00  0.00     0.258 C 
ATOM      7  O2  NON d   1     -38.861  21.314  -5.398  0.00  0.00    -0.267 OA
ATOM      8  N1  NON d   1     -40.107  22.250  -3.735  0.00  0.00    -0.352 N 
ATOM      9  H10 NON d   1     -40.731  22.038  -2.970  0.00  0.00     0.163 HD
BRANCH   8  10
ATOM     10  C11 NON d   1     -39.314  23.454  -3.725  0.00  0.00     0.161 C 
BRANCH  10  11
ATOM     11  C12 NON d   1     -40.043  24.746  -3.438  0.00  0.00    -0.041 A 
ATOM     12  C13 NON d   1     -39.914  25.288  -2.146  0.00  0.00     0.009 A 
ATOM     13  C14 NON d   1     -40.572  26.465  -1.781  0.00  0.00     0.001 A 
ATOM     14  C15 NON d   1     -41.375  27.123  -2.706  0.00  0.00     0.000 A 
ATOM     15  C16 NON d   1     -41.516  26.605  -3.992  0.00  0.00     0.001 A 
ATOM     16  C17 NON d   1     -40.854  25.426  -4.356  0.00  0.00     0.009 A 
ENDBRANCH  10  11
ENDBRANCH   8  10
ENDBRANCH   4   6
BRANCH   1  17
ATOM     17  C5  NON d   1     -43.559  17.501  -4.341  0.00  0.00     0.175 C 
ATOM     18  O1  NON d   1     -43.670  16.293  -4.122  0.00  0.00    -0.291 OA
BRANCH  17  19
ATOM     19  C4  NON d   1     -44.765  18.370  -4.691  0.00  0.00     0.165 C 
BRANCH  19  20
ATOM     20  S3  NON d   1     -45.941  17.581  -5.810  0.00  0.00    -0.104 SA
BRANCH  20  21
ATOM     21  C3  NON d   1     -47.004  16.608  -4.776  0.00  0.00     0.104 C 
ATOM     22  S2  NON d   1     -47.021  16.629  -3.102  0.00  0.00    -0.065 SA
BRANCH  21  23
ATOM     23  S1  NON d   1     -48.162  15.755  -5.810  0.00  0.00    -0.112 SA
BRANCH  23  24
ATOM     24  C2  NON d   1     -49.282  14.857  -4.708  0.00  0.00     0.076 C 
ATOM     25  C1  NON d   1     -49.750  15.708  -3.540  0.00  0.00     0.016 C 
ENDBRANCH  23  24
ENDBRANCH  21  23
ENDBRANCH  20  21
ENDBRANCH  19  20
ENDBRANCH  17  19
ENDBRANCH   1  17
TORSDOF 9
ENDMDL
MODEL 9
REMARK VINA RESULT:   -20.440      5.446      7.249
REMARK INTER + INTRA:         -24.077
REMARK INTER:                 -23.125
REMARK INTRA:                  -0.952
REMARK CONF_INDEPENDENT:        2.685
REMARK UNBOUND:                -0.952
REMARK  9 active torsions:
REMARK  status: ('A' for Active; 'I' for Inactive)
REMARK    1  A    between atoms: C2_2  and  S1_3 
REMARK    2  A    between atoms: S1_3  and  C3_4 
REMARK    3  A    between atoms: C3_4  and  S3_6 
REMARK    4  A    between atoms: S3_6  and  C4_7 
REMARK    5  A    between atoms: C4_7  and  C5_8 
REMARK    6  A    between atoms: C5_8  and  C6_10 
REMARK    7  A    between atoms: C9_13  and  C10_14 
REMARK       I    between atoms: C10_14  and  N1_16 
REMARK    8  A    between atoms: N1_16  and  C11_17 
REMARK    9  A    between atoms: C11_17  and  C12_18 
ROOT
ATOM      1  C6  NON d   1     -41.881  18.765  -4.682  0.00  0.00     0.052 A 
ATOM      2  C7  NON d   1     -41.843  20.148  -4.704  0.00  0.00     0.024 A 
ATOM      3  C8  NON d   1     -41.175  20.656  -5.855  0.00  0.00     0.026 A 
ATOM      4  C9  NON d   1     -40.712  19.657  -6.689  0.00  0.00     0.073 A 
ATOM      5  S4  NON d   1     -41.103  18.111  -6.067  0.00  0.00    -0.081 SA
ENDROOT
BRANCH   4   6
ATOM      6  C10 NON d   1     -39.982  19.848  -7.937  0.00  0.00     0.258 C 
ATOM      7  O2  NON d   1     -39.942  18.988  -8.813  0.00  0.00    -0.267 OA
ATOM      8  N1  NON d   1     -39.311  21.048  -8.070  0.00  0.00    -0.352 N 
ATOM      9  H10 NON d   1     -39.239  21.627  -7.245  0.00  0.00     0.163 HD
BRANCH   8  10
ATOM     10  C11 NON d   1     -38.444  21.266  -9.201  0.00  0.00     0.161 C 
BRANCH  10  11
ATOM     11  C12 NON d   1     -38.912  22.263 -10.235  0.00  0.00    -0.041 A 
ATOM     12  C13 NON d   1     -39.111  21.790 -11.545  0.00  0.00     0.009 A 
ATOM     13  C14 NON d   1     -39.519  22.644 -12.574  0.00  0.00     0.001 A 
ATOM     14  C15 NON d   1     -39.733  23.991 -12.308  0.00  0.00     0.000 A 
ATOM     15  C16 NON d   1     -39.543  24.482 -11.018  0.00  0.00     0.001 A 
ATOM     16  C17 NON d   1     -39.137  23.624  -9.988  0.00  0.00     0.009 A 
ENDBRANCH  10  11
ENDBRANCH   8  10
ENDBRANCH   4   6
BRANCH   1  17
ATOM     17  C5  NON d   1     -42.469  17.861  -3.690  0.00  0.00     0.175 C 
ATOM     18  O1  NON d   1     -41.814  17.331  -2.791  0.00  0.00    -0.291 OA
BRANCH  17  19
ATOM     19  C4  NON d   1     -43.967  17.610  -3.851  0.00  0.00     0.165 C 
BRANCH  19  20
ATOM     20  S3  NON d   1     -44.374  16.310  -5.035  0.00  0.00    -0.104 SA
BRANCH  20  21
ATOM     21  C3  NON d   1     -45.965  16.743  -5.691  0.00  0.00     0.104 C 
ATOM     22  S2  NON d   1     -46.315  18.131  -6.559  0.00  0.00    -0.065 SA
BRANCH  21  23
ATOM     23  S1  NON d   1     -47.066  15.380  -5.434  0.00  0.00    -0.112 SA
BRANCH  23  24
ATOM     24  C2  NON d   1     -47.851  15.641  -3.825  0.00  0.00     0.076 C 
ATOM     25  C1  NON d   1     -47.320  16.873  -3.114  0.00  0.00     0.016 C 
ENDBRANCH  23  24
ENDBRANCH  21  23
ENDBRANCH  20  21
ENDBRANCH  19  20
ENDBRANCH  17  19
ENDBRANCH   1  17
TORSDOF 9
ENDMDL
