MODEL 1
REMARK VINA RESULT:   -30.814      0.000      0.000
REMARK INTER + INTRA:         -34.189
REMARK INTER:                 -33.201
REMARK INTRA:                  -0.988
REMARK CONF_INDEPENDENT:        2.386
REMARK UNBOUND:                -0.988
REMARK  8 active torsions:
REMARK  status: ('A' for Active; 'I' for Inactive)
REMARK    1  A    between atoms: C2_2  and  S1_3 
REMARK    2  A    between atoms: S1_3  and  C3_4 
REMARK    3  A    between atoms: C3_4  and  S3_6 
REMARK    4  A    between atoms: S3_6  and  C4_7 
REMARK    5  A    between atoms: C4_7  and  C5_8 
REMARK    6  A    between atoms: C5_8  and  C6_10 
REMARK    7  A    between atoms: C10_14  and  N1_15 
REMARK       I    between atoms: N1_15  and  C11_16 
REMARK    8  A    between atoms: C11_16  and  C12_18 
ROOT
ATOM      1  C6  NON d   1     -40.220  19.412  -4.497  0.00  0.00     0.013 A 
ATOM      2  C7  NON d   1     -39.569  19.323  -3.263  0.00  0.00     0.015 A 
ATOM      3  C8  NON d   1     -40.150  18.605  -2.220  0.00  0.00     0.003 A 
ATOM      4  C9  NON d   1     -41.383  17.972  -2.395  0.00  0.00     0.029 A 
ATOM      5  C10 NON d   1     -42.059  18.044  -3.614  0.00  0.00     0.035 A 
ATOM      6  C17 NON d   1     -41.464  18.765  -4.664  0.00  0.00     0.044 A 
ENDROOT
BRANCH   5   7
ATOM      7  N1  NON d   1     -43.316  17.422  -3.855  0.00  0.00    -0.323 N 
ATOM      8  C11 NON d   1     -44.408  17.994  -4.503  0.00  0.00     0.257 C 
ATOM      9  O2  NON d   1     -44.422  19.117  -5.002  0.00  0.00    -0.267 OA
ATOM     10  H11 NON d   1     -43.384  16.469  -3.525  0.00  0.00     0.169 HD
BRANCH   8  11
ATOM     11  C12 NON d   1     -45.670  17.203  -4.618  0.00  0.00     0.049 A 
ATOM     12  C13 NON d   1     -46.286  16.758  -3.438  0.00  0.00     0.020 A 
ATOM     13  C14 NON d   1     -47.460  16.011  -3.488  0.00  0.00     0.020 A 
ATOM     14  C15 NON d   1     -47.996  15.726  -4.731  0.00  0.00     0.116 A 
ATOM     15  N2  NON d   1     -47.440  16.133  -5.893  0.00  0.00    -0.272 NA
ATOM     16  C16 NON d   1     -46.293  16.859  -5.809  0.00  0.00     0.133 A 
ENDBRANCH   8  11
ENDBRANCH   5   7
BRANCH   1  17
ATOM     17  C5  NON d   1     -39.636  20.185  -5.647  0.00  0.00     0.169 C 
ATOM     18  O1  NON d   1     -38.468  19.966  -5.963  0.00  0.00    -0.291 OA
BRANCH  17  19
ATOM     19  C4  NON d   1     -40.533  21.188  -6.371  0.00  0.00     0.164 C 
BRANCH  19  20
ATOM     20  S3  NON d   1     -40.863  20.740  -8.102  0.00  0.00    -0.104 SA
BRANCH  20  21
ATOM     21  C3  NON d   1     -39.527  19.673  -8.554  0.00  0.00     0.104 C 
ATOM     22  S2  NON d   1     -39.507  18.006  -8.361  0.00  0.00    -0.065 SA
BRANCH  21  23
ATOM     23  S1  NON d   1     -38.150  20.604  -9.195  0.00  0.00    -0.112 SA
BRANCH  23  24
ATOM     24  C2  NON d   1     -38.999  21.862 -10.193  0.00  0.00     0.076 C 
ATOM     25  C1  NON d   1     -38.482  21.930 -11.643  0.00  0.00     0.016 C 
ENDBRANCH  23  24
ENDBRANCH  21  23
ENDBRANCH  20  21
ENDBRANCH  19  20
ENDBRANCH  17  19
ENDBRANCH   1  17
TORSDOF 8
ENDMDL
MODEL 2
REMARK VINA RESULT:   -30.729      1.003      1.770
REMARK INTER + INTRA:         -34.268
REMARK INTER:                 -33.115
REMARK INTRA:                  -1.153
REMARK CONF_INDEPENDENT:        2.386
REMARK UNBOUND:                -1.153
REMARK  8 active torsions:
REMARK  status: ('A' for Active; 'I' for Inactive)
REMARK    1  A    between atoms: C2_2  and  S1_3 
REMARK    2  A    between atoms: S1_3  and  C3_4 
REMARK    3  A    between atoms: C3_4  and  S3_6 
REMARK    4  A    between atoms: S3_6  and  C4_7 
REMARK    5  A    between atoms: C4_7  and  C5_8 
REMARK    6  A    between atoms: C5_8  and  C6_10 
REMARK    7  A    between atoms: C10_14  and  N1_15 
REMARK       I    between atoms: N1_15  and  C11_16 
REMARK    8  A    between atoms: C11_16  and  C12_18 
ROOT
ATOM      1  C6  NON d   1     -40.065  19.252  -4.229  0.00  0.00     0.013 A 
ATOM      2  C7  NON d   1     -39.351  18.971  -3.060  0.00  0.00     0.015 A 
ATOM      3  C8  NON d   1     -39.908  18.145  -2.086  0.00  0.00     0.003 A 
ATOM      4  C9  NON d   1     -41.180  17.595  -2.266  0.00  0.00     0.029 A 
ATOM      5  C10 NON d   1     -41.919  17.859  -3.421  0.00  0.00     0.035 A 
ATOM      6  C17 NON d   1     -41.348  18.688  -4.402  0.00  0.00     0.044 A 
ENDROOT
BRANCH   5   7
ATOM      7  N1  NON d   1     -43.218  17.329  -3.663  0.00  0.00    -0.323 N 
ATOM      8  C11 NON d   1     -44.199  17.893  -4.473  0.00  0.00     0.257 C 
ATOM      9  O2  NON d   1     -44.063  18.919  -5.135  0.00  0.00    -0.267 OA
ATOM     10  H11 NON d   1     -43.407  16.452  -3.198  0.00  0.00     0.169 HD
BRANCH   8  11
ATOM     11  C12 NON d   1     -45.529  17.217  -4.566  0.00  0.00     0.049 A 
ATOM     12  C13 NON d   1     -46.185  16.872  -3.373  0.00  0.00     0.020 A 
ATOM     13  C14 NON d   1     -47.422  16.235  -3.402  0.00  0.00     0.020 A 
ATOM     14  C15 NON d   1     -47.981  15.957  -4.636  0.00  0.00     0.116 A 
ATOM     15  N2  NON d   1     -47.389  16.271  -5.810  0.00  0.00    -0.272 NA
ATOM     16  C16 NON d   1     -46.180  16.892  -5.747  0.00  0.00     0.133 A 
ENDBRANCH   8  11
ENDBRANCH   5   7
BRANCH   1  17
ATOM     17  C5  NON d   1     -39.508  20.146  -5.302  0.00  0.00     0.169 C 
ATOM     18  O1  NON d   1     -38.318  20.035  -5.592  0.00  0.00    -0.291 OA
BRANCH  17  19
ATOM     19  C4  NON d   1     -40.455  21.131  -5.985  0.00  0.00     0.164 C 
BRANCH  19  20
ATOM     20  S3  NON d   1     -41.032  20.565  -7.614  0.00  0.00    -0.104 SA
BRANCH  20  21
ATOM     21  C3  NON d   1     -39.556  20.136  -8.489  0.00  0.00     0.104 C 
ATOM     22  S2  NON d   1     -38.725  21.142  -9.543  0.00  0.00    -0.065 SA
BRANCH  21  23
ATOM     23  S1  NON d   1     -39.082  18.450  -8.159  0.00  0.00    -0.112 SA
BRANCH  23  24
ATOM     24  C2  NON d   1     -37.301  18.500  -8.515  0.00  0.00     0.076 C 
ATOM     25  C1  NON d   1     -36.432  18.181  -7.283  0.00  0.00     0.016 C 
ENDBRANCH  23  24
ENDBRANCH  21  23
ENDBRANCH  20  21
ENDBRANCH  19  20
ENDBRANCH  17  19
ENDBRANCH   1  17
TORSDOF 8
ENDMDL
MODEL 3
REMARK VINA RESULT:   -30.511      1.216      1.285
REMARK INTER + INTRA:         -33.776
REMARK INTER:                 -32.897
REMARK INTRA:                  -0.879
REMARK CONF_INDEPENDENT:        2.386
REMARK UNBOUND:                -0.879
REMARK  8 active torsions:
REMARK  status: ('A' for Active; 'I' for Inactive)
REMARK    1  A    between atoms: C2_2  and  S1_3 
REMARK    2  A    between atoms: S1_3  and  C3_4 
REMARK    3  A    between atoms: C3_4  and  S3_6 
REMARK    4  A    between atoms: S3_6  and  C4_7 
REMARK    5  A    between atoms: C4_7  and  C5_8 
REMARK    6  A    between atoms: C5_8  and  C6_10 
REMARK    7  A    between atoms: C10_14  and  N1_15 
REMARK       I    between atoms: N1_15  and  C11_16 
REMARK    8  A    between atoms: C11_16  and  C12_18 
ROOT
ATOM      1  C6  NON d   1     -40.497  19.894  -3.672  0.00  0.00     0.013 A 
ATOM      2  C7  NON d   1     -39.540  19.244  -2.886  0.00  0.00     0.015 A 
ATOM      3  C8  NON d   1     -39.825  17.999  -2.329  0.00  0.00     0.003 A 
ATOM      4  C9  NON d   1     -41.066  17.393  -2.546  0.00  0.00     0.029 A 
ATOM      5  C10 NON d   1     -42.043  18.018  -3.323  0.00  0.00     0.035 A 
ATOM      6  C17 NON d   1     -41.745  19.271  -3.887  0.00  0.00     0.044 A 
ENDROOT
BRANCH   5   7
ATOM      7  N1  NON d   1     -43.323  17.452  -3.581  0.00  0.00    -0.323 N 
ATOM      8  C11 NON d   1     -44.282  17.951  -4.458  0.00  0.00     0.257 C 
ATOM      9  O2  NON d   1     -44.137  18.940  -5.173  0.00  0.00    -0.267 OA
ATOM     10  H11 NON d   1     -43.516  16.600  -3.074  0.00  0.00     0.169 HD
BRANCH   8  11
ATOM     11  C12 NON d   1     -45.597  17.248  -4.560  0.00  0.00     0.049 A 
ATOM     12  C13 NON d   1     -46.248  16.879  -3.372  0.00  0.00     0.020 A 
ATOM     13  C14 NON d   1     -47.472  16.216  -3.410  0.00  0.00     0.020 A 
ATOM     14  C15 NON d   1     -48.021  15.937  -4.648  0.00  0.00     0.116 A 
ATOM     15  N2  NON d   1     -47.433  16.273  -5.817  0.00  0.00    -0.272 NA
ATOM     16  C16 NON d   1     -46.238  16.919  -5.746  0.00  0.00     0.133 A 
ENDBRANCH   8  11
ENDBRANCH   5   7
BRANCH   1  17
ATOM     17  C5  NON d   1     -40.237  21.242  -4.283  0.00  0.00     0.169 C 
ATOM     18  O1  NON d   1     -40.305  22.233  -3.558  0.00  0.00    -0.291 OA
BRANCH  17  19
ATOM     19  C4  NON d   1     -39.883  21.306  -5.768  0.00  0.00     0.164 C 
BRANCH  19  20
ATOM     20  S3  NON d   1     -40.997  20.322  -6.817  0.00  0.00    -0.104 SA
BRANCH  20  21
ATOM     21  C3  NON d   1     -39.994  19.810  -8.181  0.00  0.00     0.104 C 
ATOM     22  S2  NON d   1     -39.387  18.263  -8.414  0.00  0.00    -0.065 SA
BRANCH  21  23
ATOM     23  S1  NON d   1     -39.645  21.177  -9.270  0.00  0.00    -0.112 SA
BRANCH  23  24
ATOM     24  C2  NON d   1     -37.922  20.840  -9.733  0.00  0.00     0.076 C 
ATOM     25  C1  NON d   1     -36.904  21.588  -8.849  0.00  0.00     0.016 C 
ENDBRANCH  23  24
ENDBRANCH  21  23
ENDBRANCH  20  21
ENDBRANCH  19  20
ENDBRANCH  17  19
ENDBRANCH   1  17
TORSDOF 8
ENDMDL
MODEL 4
REMARK VINA RESULT:   -30.473      1.574      1.976
REMARK INTER + INTRA:         -33.732
REMARK INTER:                 -32.859
REMARK INTRA:                  -0.873
REMARK CONF_INDEPENDENT:        2.386
REMARK UNBOUND:                -0.873
REMARK  8 active torsions:
REMARK  status: ('A' for Active; 'I' for Inactive)
REMARK    1  A    between atoms: C2_2  and  S1_3 
REMARK    2  A    between atoms: S1_3  and  C3_4 
REMARK    3  A    between atoms: C3_4  and  S3_6 
REMARK    4  A    between atoms: S3_6  and  C4_7 
REMARK    5  A    between atoms: C4_7  and  C5_8 
REMARK    6  A    between atoms: C5_8  and  C6_10 
REMARK    7  A    between atoms: C10_14  and  N1_15 
REMARK       I    between atoms: N1_15  and  C11_16 
REMARK    8  A    between atoms: C11_16  and  C12_18 
ROOT
ATOM      1  C6  NON d   1     -39.849  18.687  -6.152  0.00  0.00     0.013 A 
ATOM      2  C7  NON d   1     -39.172  19.040  -4.980  0.00  0.00     0.015 A 
ATOM      3  C8  NON d   1     -39.859  19.094  -3.770  0.00  0.00     0.003 A 
ATOM      4  C9  NON d   1     -41.224  18.801  -3.715  0.00  0.00     0.029 A 
ATOM      5  C10 NON d   1     -41.928  18.449  -4.867  0.00  0.00     0.035 A 
ATOM      6  C17 NON d   1     -41.227  18.389  -6.085  0.00  0.00     0.044 A 
ENDROOT
BRANCH   5   7
ATOM      7  N1  NON d   1     -43.318  18.139  -4.877  0.00  0.00    -0.323 N 
ATOM      8  C11 NON d   1     -43.934  17.101  -4.184  0.00  0.00     0.257 C 
ATOM      9  O2  NON d   1     -43.362  16.324  -3.422  0.00  0.00    -0.267 OA
ATOM     10  H11 NON d   1     -43.883  18.759  -5.439  0.00  0.00     0.169 HD
BRANCH   8  11
ATOM     11  C12 NON d   1     -45.404  16.895  -4.357  0.00  0.00     0.049 A 
ATOM     12  C13 NON d   1     -46.215  16.893  -3.211  0.00  0.00     0.020 A 
ATOM     13  C14 NON d   1     -47.590  16.699  -3.314  0.00  0.00     0.020 A 
ATOM     14  C15 NON d   1     -48.126  16.510  -4.575  0.00  0.00     0.116 A 
ATOM     15  N2  NON d   1     -47.387  16.505  -5.706  0.00  0.00    -0.272 NA
ATOM     16  C16 NON d   1     -46.047  16.697  -5.570  0.00  0.00     0.133 A 
ENDBRANCH   8  11
ENDBRANCH   5   7
BRANCH   1  17
ATOM     17  C5  NON d   1     -39.151  18.626  -7.482  0.00  0.00     0.169 C 
ATOM     18  O1  NON d   1     -39.586  17.854  -8.334  0.00  0.00    -0.291 OA
BRANCH  17  19
ATOM     19  C4  NON d   1     -37.948  19.541  -7.709  0.00  0.00     0.164 C 
BRANCH  19  20
ATOM     20  S3  NON d   1     -38.111  20.593  -9.183  0.00  0.00    -0.104 SA
BRANCH  20  21
ATOM     21  C3  NON d   1     -39.692  21.367  -9.010  0.00  0.00     0.104 C 
ATOM     22  S2  NON d   1     -41.151  20.563  -8.808  0.00  0.00    -0.065 SA
BRANCH  21  23
ATOM     23  S1  NON d   1     -39.557  23.140  -9.142  0.00  0.00    -0.112 SA
BRANCH  23  24
ATOM     24  C2  NON d   1     -39.108  23.339 -10.890  0.00  0.00     0.076 C 
ATOM     25  C1  NON d   1     -39.497  22.123 -11.753  0.00  0.00     0.016 C 
ENDBRANCH  23  24
ENDBRANCH  21  23
ENDBRANCH  20  21
ENDBRANCH  19  20
ENDBRANCH  17  19
ENDBRANCH   1  17
TORSDOF 8
ENDMDL
MODEL 5
REMARK VINA RESULT:   -30.429      1.081      1.671
REMARK INTER + INTRA:         -33.789
REMARK INTER:                 -32.815
REMARK INTRA:                  -0.974
REMARK CONF_INDEPENDENT:        2.386
REMARK UNBOUND:                -0.974
REMARK  8 active torsions:
REMARK  status: ('A' for Active; 'I' for Inactive)
REMARK    1  A    between atoms: C2_2  and  S1_3 
REMARK    2  A    between atoms: S1_3  and  C3_4 
REMARK    3  A    between atoms: C3_4  and  S3_6 
REMARK    4  A    between atoms: S3_6  and  C4_7 
REMARK    5  A    between atoms: C4_7  and  C5_8 
REMARK    6  A    between atoms: C5_8  and  C6_10 
REMARK    7  A    between atoms: C10_14  and  N1_15 
REMARK       I    between atoms: N1_15  and  C11_16 
REMARK    8  A    between atoms: C11_16  and  C12_18 
ROOT
ATOM      1  C6  NON d   1     -39.934  18.746  -4.466  0.00  0.00     0.013 A 
ATOM      2  C7  NON d   1     -39.358  18.758  -3.192  0.00  0.00     0.015 A 
ATOM      3  C8  NON d   1     -40.065  18.250  -2.104  0.00  0.00     0.003 A 
ATOM      4  C9  NON d   1     -41.350  17.729  -2.273  0.00  0.00     0.029 A 
ATOM      5  C10 NON d   1     -41.954  17.705  -3.532  0.00  0.00     0.035 A 
ATOM      6  C17 NON d   1     -41.232  18.214  -4.626  0.00  0.00     0.044 A 
ENDROOT
BRANCH   5   7
ATOM      7  N1  NON d   1     -43.258  17.188  -3.769  0.00  0.00    -0.323 N 
ATOM      8  C11 NON d   1     -44.289  17.834  -4.445  0.00  0.00     0.257 C 
ATOM      9  O2  NON d   1     -44.201  18.939  -4.977  0.00  0.00    -0.267 OA
ATOM     10  H11 NON d   1     -43.412  16.256  -3.412  0.00  0.00     0.169 HD
BRANCH   8  11
ATOM     11  C12 NON d   1     -45.615  17.153  -4.553  0.00  0.00     0.049 A 
ATOM     12  C13 NON d   1     -46.321  16.882  -3.370  0.00  0.00     0.020 A 
ATOM     13  C14 NON d   1     -47.558  16.243  -3.412  0.00  0.00     0.020 A 
ATOM     14  C15 NON d   1     -48.064  15.889  -4.649  0.00  0.00     0.116 A 
ATOM     15  N2  NON d   1     -47.423  16.130  -5.814  0.00  0.00    -0.272 NA
ATOM     16  C16 NON d   1     -46.216  16.755  -5.738  0.00  0.00     0.133 A 
ENDBRANCH   8  11
ENDBRANCH   5   7
BRANCH   1  17
ATOM     17  C5  NON d   1     -39.214  19.293  -5.666  0.00  0.00     0.169 C 
ATOM     18  O1  NON d   1     -38.411  20.208  -5.495  0.00  0.00    -0.291 OA
BRANCH  17  19
ATOM     19  C4  NON d   1     -39.505  18.669  -7.030  0.00  0.00     0.164 C 
BRANCH  19  20
ATOM     20  S3  NON d   1     -38.088  18.729  -8.168  0.00  0.00    -0.104 SA
BRANCH  20  21
ATOM     21  C3  NON d   1     -38.387  20.147  -9.183  0.00  0.00     0.104 C 
ATOM     22  S2  NON d   1     -37.229  20.955 -10.089  0.00  0.00    -0.065 SA
BRANCH  21  23
ATOM     23  S1  NON d   1     -40.090  20.664  -9.077  0.00  0.00    -0.112 SA
BRANCH  23  24
ATOM     24  C2  NON d   1     -39.918  22.473  -9.088  0.00  0.00     0.076 C 
ATOM     25  C1  NON d   1     -39.929  23.086  -7.674  0.00  0.00     0.016 C 
ENDBRANCH  23  24
ENDBRANCH  21  23
ENDBRANCH  20  21
ENDBRANCH  19  20
ENDBRANCH  17  19
ENDBRANCH   1  17
TORSDOF 8
ENDMDL
MODEL 6
REMARK VINA RESULT:   -30.177      1.688      2.393
REMARK INTER + INTRA:         -33.743
REMARK INTER:                 -32.563
REMARK INTRA:                  -1.179
REMARK CONF_INDEPENDENT:        2.386
REMARK UNBOUND:                -1.179
REMARK  8 active torsions:
REMARK  status: ('A' for Active; 'I' for Inactive)
REMARK    1  A    between atoms: C2_2  and  S1_3 
REMARK    2  A    between atoms: S1_3  and  C3_4 
REMARK    3  A    between atoms: C3_4  and  S3_6 
REMARK    4  A    between atoms: S3_6  and  C4_7 
REMARK    5  A    between atoms: C4_7  and  C5_8 
REMARK    6  A    between atoms: C5_8  and  C6_10 
REMARK    7  A    between atoms: C10_14  and  N1_15 
REMARK       I    between atoms: N1_15  and  C11_16 
REMARK    8  A    between atoms: C11_16  and  C12_18 
ROOT
ATOM      1  C6  NON d   1     -39.986  18.863  -6.196  0.00  0.00     0.013 A 
ATOM      2  C7  NON d   1     -39.457  19.626  -5.150  0.00  0.00     0.015 A 
ATOM      3  C8  NON d   1     -40.257  19.961  -4.060  0.00  0.00     0.003 A 
ATOM      4  C9  NON d   1     -41.589  19.544  -4.003  0.00  0.00     0.029 A 
ATOM      5  C10 NON d   1     -42.147  18.784  -5.032  0.00  0.00     0.035 A 
ATOM      6  C17 NON d   1     -41.332  18.443  -6.126  0.00  0.00     0.044 A 
ENDROOT
BRANCH   5   7
ATOM      7  N1  NON d   1     -43.496  18.328  -5.032  0.00  0.00    -0.323 N 
ATOM      8  C11 NON d   1     -43.998  17.244  -4.318  0.00  0.00     0.257 C 
ATOM      9  O2  NON d   1     -43.346  16.546  -3.544  0.00  0.00    -0.267 OA
ATOM     10  H11 NON d   1     -44.124  18.875  -5.603  0.00  0.00     0.169 HD
BRANCH   8  11
ATOM     11  C12 NON d   1     -45.438  16.880  -4.483  0.00  0.00     0.049 A 
ATOM     12  C13 NON d   1     -46.259  16.880  -3.344  0.00  0.00     0.020 A 
ATOM     13  C14 NON d   1     -47.606  16.543  -3.440  0.00  0.00     0.020 A 
ATOM     14  C15 NON d   1     -48.105  16.210  -4.686  0.00  0.00     0.116 A 
ATOM     15  N2  NON d   1     -47.355  16.197  -5.810  0.00  0.00    -0.272 NA
ATOM     16  C16 NON d   1     -46.042  16.531  -5.682  0.00  0.00     0.133 A 
ENDBRANCH   8  11
ENDBRANCH   5   7
BRANCH   1  17
ATOM     17  C5  NON d   1     -39.163  18.487  -7.396  0.00  0.00     0.169 C 
ATOM     18  O1  NON d   1     -39.638  17.687  -8.200  0.00  0.00    -0.291 OA
BRANCH  17  19
ATOM     19  C4  NON d   1     -37.789  19.135  -7.561  0.00  0.00     0.164 C 
BRANCH  19  20
ATOM     20  S3  NON d   1     -37.679  20.237  -9.004  0.00  0.00    -0.104 SA
BRANCH  20  21
ATOM     21  C3  NON d   1     -39.159  21.204  -8.943  0.00  0.00     0.104 C 
ATOM     22  S2  NON d   1     -40.721  20.594  -8.990  0.00  0.00    -0.065 SA
BRANCH  21  23
ATOM     23  S1  NON d   1     -38.784  22.946  -8.889  0.00  0.00    -0.112 SA
BRANCH  23  24
ATOM     24  C2  NON d   1     -39.949  23.526  -7.621  0.00  0.00     0.076 C 
ATOM     25  C1  NON d   1     -39.621  22.991  -6.214  0.00  0.00     0.016 C 
ENDBRANCH  23  24
ENDBRANCH  21  23
ENDBRANCH  20  21
ENDBRANCH  19  20
ENDBRANCH  17  19
ENDBRANCH   1  17
TORSDOF 8
ENDMDL
MODEL 7
REMARK VINA RESULT:   -29.747      2.500      4.203
REMARK INTER + INTRA:         -33.371
REMARK INTER:                 -32.133
REMARK INTRA:                  -1.238
REMARK CONF_INDEPENDENT:        2.386
REMARK UNBOUND:                -1.238
REMARK  8 active torsions:
REMARK  status: ('A' for Active; 'I' for Inactive)
REMARK    1  A    between atoms: C2_2  and  S1_3 
REMARK    2  A    between atoms: S1_3  and  C3_4 
REMARK    3  A    between atoms: C3_4  and  S3_6 
REMARK    4  A    between atoms: S3_6  and  C4_7 
REMARK    5  A    between atoms: C4_7  and  C5_8 
REMARK    6  A    between atoms: C5_8  and  C6_10 
REMARK    7  A    between atoms: C10_14  and  N1_15 
REMARK       I    between atoms: N1_15  and  C11_16 
REMARK    8  A    between atoms: C11_16  and  C12_18 
ROOT
ATOM      1  C6  NON d   1     -40.108  19.432  -5.005  0.00  0.00     0.013 A 
ATOM      2  C7  NON d   1     -39.272  19.147  -3.921  0.00  0.00     0.015 A 
ATOM      3  C8  NON d   1     -39.698  18.270  -2.925  0.00  0.00     0.003 A 
ATOM      4  C9  NON d   1     -40.960  17.674  -2.998  0.00  0.00     0.029 A 
ATOM      5  C10 NON d   1     -41.819  17.942  -4.065  0.00  0.00     0.035 A 
ATOM      6  C17 NON d   1     -41.379  18.822  -5.069  0.00  0.00     0.044 A 
ENDROOT
BRANCH   5   7
ATOM      7  N1  NON d   1     -43.115  17.367  -4.195  0.00  0.00    -0.323 N 
ATOM      8  C11 NON d   1     -44.260  18.013  -4.653  0.00  0.00     0.257 C 
ATOM      9  O2  NON d   1     -44.302  19.174  -5.054  0.00  0.00    -0.267 OA
ATOM     10  H11 NON d   1     -43.169  16.392  -3.937  0.00  0.00     0.169 HD
BRANCH   8  11
ATOM     11  C12 NON d   1     -45.550  17.259  -4.672  0.00  0.00     0.049 A 
ATOM     12  C13 NON d   1     -46.091  16.835  -3.448  0.00  0.00     0.020 A 
ATOM     13  C14 NON d   1     -47.287  16.124  -3.409  0.00  0.00     0.020 A 
ATOM     14  C15 NON d   1     -47.920  15.852  -4.608  0.00  0.00     0.116 A 
ATOM     15  N2  NON d   1     -47.439  16.240  -5.810  0.00  0.00    -0.272 NA
ATOM     16  C16 NON d   1     -46.268  16.932  -5.813  0.00  0.00     0.133 A 
ENDBRANCH   8  11
ENDBRANCH   5   7
BRANCH   1  17
ATOM     17  C5  NON d   1     -39.694  20.380  -6.096  0.00  0.00     0.169 C 
ATOM     18  O1  NON d   1     -39.080  19.926  -7.059  0.00  0.00    -0.291 OA
BRANCH  17  19
ATOM     19  C4  NON d   1     -40.077  21.853  -5.957  0.00  0.00     0.164 C 
BRANCH  19  20
ATOM     20  S3  NON d   1     -41.058  22.205  -4.467  0.00  0.00    -0.104 SA
BRANCH  20  21
ATOM     21  C3  NON d   1     -39.896  22.868  -3.310  0.00  0.00     0.104 C 
ATOM     22  S2  NON d   1     -38.288  23.216  -3.639  0.00  0.00    -0.065 SA
BRANCH  21  23
ATOM     23  S1  NON d   1     -40.636  23.070  -1.701  0.00  0.00    -0.112 SA
BRANCH  23  24
ATOM     24  C2  NON d   1     -39.858  21.716  -0.774  0.00  0.00     0.076 C 
ATOM     25  C1  NON d   1     -40.058  21.837   0.749  0.00  0.00     0.016 C 
ENDBRANCH  23  24
ENDBRANCH  21  23
ENDBRANCH  20  21
ENDBRANCH  19  20
ENDBRANCH  17  19
ENDBRANCH   1  17
TORSDOF 8
ENDMDL
MODEL 8
REMARK VINA RESULT:   -29.644      3.776      5.304
REMARK INTER + INTRA:         -32.775
REMARK INTER:                 -32.031
REMARK INTRA:                  -0.744
REMARK CONF_INDEPENDENT:        2.386
REMARK UNBOUND:                -0.744
REMARK  8 active torsions:
REMARK  status: ('A' for Active; 'I' for Inactive)
REMARK    1  A    between atoms: C2_2  and  S1_3 
REMARK    2  A    between atoms: S1_3  and  C3_4 
REMARK    3  A    between atoms: C3_4  and  S3_6 
REMARK    4  A    between atoms: S3_6  and  C4_7 
REMARK    5  A    between atoms: C4_7  and  C5_8 
REMARK    6  A    between atoms: C5_8  and  C6_10 
REMARK    7  A    between atoms: C10_14  and  N1_15 
REMARK       I    between atoms: N1_15  and  C11_16 
REMARK    8  A    between atoms: C11_16  and  C12_18 
ROOT
ATOM      1  C6  NON d   1     -40.542  19.753  -3.326  0.00  0.00     0.013 A 
ATOM      2  C7  NON d   1     -39.534  18.983  -2.737  0.00  0.00     0.015 A 
ATOM      3  C8  NON d   1     -39.774  17.648  -2.419  0.00  0.00     0.003 A 
ATOM      4  C9  NON d   1     -41.018  17.069  -2.681  0.00  0.00     0.029 A 
ATOM      5  C10 NON d   1     -42.046  17.812  -3.264  0.00  0.00     0.035 A 
ATOM      6  C17 NON d   1     -41.794  19.157  -3.589  0.00  0.00     0.044 A 
ENDROOT
BRANCH   5   7
ATOM      7  N1  NON d   1     -43.334  17.280  -3.556  0.00  0.00    -0.323 N 
ATOM      8  C11 NON d   1     -44.242  17.785  -4.481  0.00  0.00     0.257 C 
ATOM      9  O2  NON d   1     -44.038  18.749  -5.217  0.00  0.00    -0.267 OA
ATOM     10  H11 NON d   1     -43.573  16.449  -3.034  0.00  0.00     0.169 HD
BRANCH   8  11
ATOM     11  C12 NON d   1     -45.575  17.122  -4.615  0.00  0.00     0.049 A 
ATOM     12  C13 NON d   1     -46.231  16.706  -3.446  0.00  0.00     0.020 A 
ATOM     13  C14 NON d   1     -47.471  16.077  -3.514  0.00  0.00     0.020 A 
ATOM     14  C15 NON d   1     -48.032  15.879  -4.762  0.00  0.00     0.116 A 
ATOM     15  N2  NON d   1     -47.440  16.263  -5.914  0.00  0.00    -0.272 NA
ATOM     16  C16 NON d   1     -46.228  16.874  -5.814  0.00  0.00     0.133 A 
ENDBRANCH   8  11
ENDBRANCH   5   7
BRANCH   1  17
ATOM     17  C5  NON d   1     -40.331  21.199  -3.675  0.00  0.00     0.169 C 
ATOM     18  O1  NON d   1     -40.879  21.640  -4.684  0.00  0.00    -0.291 OA
BRANCH  17  19
ATOM     19  C4  NON d   1     -39.463  22.048  -2.747  0.00  0.00     0.164 C 
BRANCH  19  20
ATOM     20  S3  NON d   1     -40.408  22.874  -1.431  0.00  0.00    -0.104 SA
BRANCH  20  21
ATOM     21  C3  NON d   1     -40.482  24.570  -1.929  0.00  0.00     0.104 C 
ATOM     22  S2  NON d   1     -40.766  25.112  -3.491  0.00  0.00    -0.065 SA
BRANCH  21  23
ATOM     23  S1  NON d   1     -40.151  25.657  -0.556  0.00  0.00    -0.112 SA
BRANCH  23  24
ATOM     24  C2  NON d   1     -40.722  24.652   0.846  0.00  0.00     0.076 C 
ATOM     25  C1  NON d   1     -41.125  25.499   2.068  0.00  0.00     0.016 C 
ENDBRANCH  23  24
ENDBRANCH  21  23
ENDBRANCH  20  21
ENDBRANCH  19  20
ENDBRANCH  17  19
ENDBRANCH   1  17
TORSDOF 8
ENDMDL
MODEL 9
REMARK VINA RESULT:   -29.641      3.108      5.035
REMARK INTER + INTRA:         -32.905
REMARK INTER:                 -32.028
REMARK INTRA:                  -0.878
REMARK CONF_INDEPENDENT:        2.386
REMARK UNBOUND:                -0.878
REMARK  8 active torsions:
REMARK  status: ('A' for Active; 'I' for Inactive)
REMARK    1  A    between atoms: C2_2  and  S1_3 
REMARK    2  A    between atoms: S1_3  and  C3_4 
REMARK    3  A    between atoms: C3_4  and  S3_6 
REMARK    4  A    between atoms: S3_6  and  C4_7 
REMARK    5  A    between atoms: C4_7  and  C5_8 
REMARK    6  A    between atoms: C5_8  and  C6_10 
REMARK    7  A    between atoms: C10_14  and  N1_15 
REMARK       I    between atoms: N1_15  and  C11_16 
REMARK    8  A    between atoms: C11_16  and  C12_18 
ROOT
ATOM      1  C6  NON d   1     -40.247  19.340  -4.063  0.00  0.00     0.013 A 
ATOM      2  C7  NON d   1     -39.756  20.033  -5.174  0.00  0.00     0.015 A 
ATOM      3  C8  NON d   1     -40.566  20.216  -6.293  0.00  0.00     0.003 A 
ATOM      4  C9  NON d   1     -41.867  19.706  -6.318  0.00  0.00     0.029 A 
ATOM      5  C10 NON d   1     -42.384  19.007  -5.226  0.00  0.00     0.035 A 
ATOM      6  C17 NON d   1     -41.564  18.833  -4.098  0.00  0.00     0.044 A 
ENDROOT
BRANCH   5   7
ATOM      7  N1  NON d   1     -43.700  18.465  -5.190  0.00  0.00    -0.323 N 
ATOM      8  C11 NON d   1     -44.137  17.419  -4.383  0.00  0.00     0.257 C 
ATOM      9  O2  NON d   1     -43.449  16.838  -3.546  0.00  0.00    -0.267 OA
ATOM     10  H11 NON d   1     -44.357  18.915  -5.812  0.00  0.00     0.169 HD
BRANCH   8  11
ATOM     11  C12 NON d   1     -45.548  16.947  -4.521  0.00  0.00     0.049 A 
ATOM     12  C13 NON d   1     -46.341  16.874  -3.364  0.00  0.00     0.020 A 
ATOM     13  C14 NON d   1     -47.660  16.436  -3.434  0.00  0.00     0.020 A 
ATOM     14  C15 NON d   1     -48.161  16.078  -4.672  0.00  0.00     0.116 A 
ATOM     15  N2  NON d   1     -47.438  16.132  -5.813  0.00  0.00    -0.272 NA
ATOM     16  C16 NON d   1     -46.152  16.564  -5.710  0.00  0.00     0.133 A 
ENDBRANCH   8  11
ENDBRANCH   5   7
BRANCH   1  17
ATOM     17  C5  NON d   1     -39.405  19.111  -2.838  0.00  0.00     0.169 C 
ATOM     18  O1  NON d   1     -39.064  17.960  -2.574  0.00  0.00    -0.291 OA
BRANCH  17  19
ATOM     19  C4  NON d   1     -39.004  20.324  -2.000  0.00  0.00     0.164 C 
BRANCH  19  20
ATOM     20  S3  NON d   1     -38.634  21.799  -2.997  0.00  0.00    -0.104 SA
BRANCH  20  21
ATOM     21  C3  NON d   1     -39.902  22.957  -2.573  0.00  0.00     0.104 C 
ATOM     22  S2  NON d   1     -41.225  23.343  -3.530  0.00  0.00    -0.065 SA
BRANCH  21  23
ATOM     23  S1  NON d   1     -39.566  23.730  -1.003  0.00  0.00    -0.112 SA
BRANCH  23  24
ATOM     24  C2  NON d   1     -40.678  22.808   0.098  0.00  0.00     0.076 C 
ATOM     25  C1  NON d   1     -40.520  23.200   1.580  0.00  0.00     0.016 C 
ENDBRANCH  23  24
ENDBRANCH  21  23
ENDBRANCH  20  21
ENDBRANCH  19  20
ENDBRANCH  17  19
ENDBRANCH   1  17
TORSDOF 8
ENDMDL
