MODEL 1
REMARK VINA RESULT:   -29.278      0.000      0.000
REMARK INTER + INTRA:         -31.152
REMARK INTER:                 -30.471
REMARK INTRA:                  -0.681
REMARK CONF_INDEPENDENT:        1.193
REMARK UNBOUND:                -0.681
REMARK  4 active torsions:
REMARK  status: ('A' for Active; 'I' for Inactive)
REMARK    1  A    between atoms: O1_1  and  C1_2 
REMARK    2  A    between atoms: N1_6  and  C5_7 
REMARK    3  A    between atoms: C5_7  and  C6_8 
REMARK    4  A    between atoms: N2_10  and  C8_11 
ROOT
ATOM      1  C6  NON d   1     -45.334  17.824  -4.989  0.00  0.00     0.087 A 
ATOM      2  C7  NON d   1     -46.009  17.266  -3.922  0.00  0.00     0.144 A 
ATOM      3  N2  NON d   1     -47.125  16.674  -4.461  0.00  0.00    -0.247 N 
ATOM      4  N3  NON d   1     -47.067  16.770  -5.810  0.00  0.00     0.009 NA
ATOM      5  N4  NON d   1     -45.966  17.442  -6.139  0.00  0.00    -0.161 NA
ENDROOT
BRANCH   1   6
ATOM      6  C5  NON d   1     -44.187  18.780  -4.885  0.00  0.00     0.191 C 
BRANCH   6   7
ATOM      7  N1  NON d   1     -42.858  18.255  -4.490  0.00  0.00    -0.340 N 
ATOM      8  C4  NON d   1     -42.819  17.598  -3.257  0.00  0.00     0.092 C 
ATOM      9  C3  NON d   1     -41.676  17.274  -2.647  0.00  0.00     0.020 C 
ATOM     10  C2  NON d   1     -40.422  17.514  -3.295  0.00  0.00     0.041 C 
ATOM     11  C1  NON d   1     -40.364  18.151  -4.472  0.00  0.00     0.103 C 
ATOM     12  C14 NON d   1     -41.650  18.697  -5.101  0.00  0.00     0.136 C 
ATOM     13  S1  NON d   1     -41.574  19.810  -6.379  0.00  0.00    -0.057 SA
BRANCH  11  14
ATOM     14  O1  NON d   1     -39.154  18.367  -5.113  0.00  0.00    -0.358 OA
ATOM     15  H1  NON d   1     -39.302  18.945  -5.877  0.00  0.00     0.217 HD
ENDBRANCH  11  14
ENDBRANCH   6   7
ENDBRANCH   1   6
BRANCH   3  16
ATOM     16  C8  NON d   1     -48.222  16.101  -3.768  0.00  0.00     0.054 A 
ATOM     17  C9  NON d   1     -48.661  16.655  -2.551  0.00  0.00     0.031 A 
ATOM     18  C10 NON d   1     -49.763  16.105  -1.888  0.00  0.00     0.002 A 
ATOM     19  C11 NON d   1     -50.440  15.019  -2.436  0.00  0.00     0.000 A 
ATOM     20  C12 NON d   1     -50.010  14.465  -3.641  0.00  0.00     0.002 A 
ATOM     21  C13 NON d   1     -48.893  14.991  -4.301  0.00  0.00     0.031 A 
ENDBRANCH   3  16
TORSDOF 4
ENDMDL
MODEL 2
REMARK VINA RESULT:   -28.872      3.956      7.848
REMARK INTER + INTRA:         -30.527
REMARK INTER:                 -30.065
REMARK INTRA:                  -0.462
REMARK CONF_INDEPENDENT:        1.193
REMARK UNBOUND:                -0.462
REMARK  4 active torsions:
REMARK  status: ('A' for Active; 'I' for Inactive)
REMARK    1  A    between atoms: O1_1  and  C1_2 
REMARK    2  A    between atoms: N1_6  and  C5_7 
REMARK    3  A    between atoms: C5_7  and  C6_8 
REMARK    4  A    between atoms: N2_10  and  C8_11 
ROOT
ATOM      1  C6  NON d   1     -48.360  15.826  -3.779  0.00  0.00     0.087 A 
ATOM      2  C7  NON d   1     -47.224  16.418  -3.267  0.00  0.00     0.144 A 
ATOM      3  N2  NON d   1     -46.467  16.769  -4.359  0.00  0.00    -0.247 N 
ATOM      4  N3  NON d   1     -47.171  16.505  -5.485  0.00  0.00     0.009 NA
ATOM      5  N4  NON d   1     -48.335  15.959  -5.139  0.00  0.00    -0.161 NA
ENDROOT
BRANCH   1   6
ATOM      6  C5  NON d   1     -49.374  15.065  -2.983  0.00  0.00     0.191 C 
BRANCH   6   7
ATOM      7  N1  NON d   1     -50.431  15.821  -2.269  0.00  0.00    -0.340 N 
ATOM      8  C4  NON d   1     -51.714  15.710  -2.814  0.00  0.00     0.092 C 
ATOM      9  C3  NON d   1     -52.726  16.499  -2.443  0.00  0.00     0.020 C 
ATOM     10  C2  NON d   1     -52.549  17.447  -1.385  0.00  0.00     0.041 C 
ATOM     11  C1  NON d   1     -51.350  17.630  -0.815  0.00  0.00     0.103 C 
ATOM     12  C14 NON d   1     -50.133  16.868  -1.351  0.00  0.00     0.136 C 
ATOM     13  S1  NON d   1     -48.564  17.339  -0.911  0.00  0.00    -0.057 SA
BRANCH  11  14
ATOM     14  O1  NON d   1     -51.178  18.531   0.224  0.00  0.00    -0.358 OA
ATOM     15  H1  NON d   1     -50.381  18.290   0.720  0.00  0.00     0.217 HD
ENDBRANCH  11  14
ENDBRANCH   6   7
ENDBRANCH   1   6
BRANCH   3  16
ATOM     16  C8  NON d   1     -45.139  17.268  -4.369  0.00  0.00     0.054 A 
ATOM     17  C9  NON d   1     -44.807  18.389  -5.151  0.00  0.00     0.031 A 
ATOM     18  C10 NON d   1     -43.504  18.895  -5.132  0.00  0.00     0.002 A 
ATOM     19  C11 NON d   1     -42.534  18.305  -4.327  0.00  0.00     0.000 A 
ATOM     20  C12 NON d   1     -42.857  17.193  -3.548  0.00  0.00     0.002 A 
ATOM     21  C13 NON d   1     -44.152  16.663  -3.578  0.00  0.00     0.031 A 
ENDBRANCH   3  16
TORSDOF 4
ENDMDL
MODEL 3
REMARK VINA RESULT:   -28.543      4.668      7.971
REMARK INTER + INTRA:         -30.403
REMARK INTER:                 -29.736
REMARK INTRA:                  -0.666
REMARK CONF_INDEPENDENT:        1.193
REMARK UNBOUND:                -0.666
REMARK  4 active torsions:
REMARK  status: ('A' for Active; 'I' for Inactive)
REMARK    1  A    between atoms: O1_1  and  C1_2 
REMARK    2  A    between atoms: N1_6  and  C5_7 
REMARK    3  A    between atoms: C5_7  and  C6_8 
REMARK    4  A    between atoms: N2_10  and  C8_11 
ROOT
ATOM      1  C6  NON d   1     -48.430  16.357  -3.723  0.00  0.00     0.087 A 
ATOM      2  C7  NON d   1     -47.260  16.938  -3.277  0.00  0.00     0.144 A 
ATOM      3  N2  NON d   1     -46.419  16.952  -4.363  0.00  0.00    -0.247 N 
ATOM      4  N3  NON d   1     -47.093  16.505  -5.449  0.00  0.00     0.009 NA
ATOM      5  N4  NON d   1     -48.326  16.170  -5.073  0.00  0.00    -0.161 NA
ENDROOT
BRANCH   1   6
ATOM      6  C5  NON d   1     -49.559  15.903  -2.852  0.00  0.00     0.191 C 
BRANCH   6   7
ATOM      7  N1  NON d   1     -50.161  16.872  -1.905  0.00  0.00    -0.340 N 
ATOM      8  C4  NON d   1     -49.321  17.293  -0.870  0.00  0.00     0.092 C 
ATOM      9  C3  NON d   1     -49.767  17.972   0.191  0.00  0.00     0.020 C 
ATOM     10  C2  NON d   1     -51.138  18.380   0.259  0.00  0.00     0.041 C 
ATOM     11  C1  NON d   1     -52.016  18.010  -0.683  0.00  0.00     0.103 C 
ATOM     12  C14 NON d   1     -51.567  17.075  -1.811  0.00  0.00     0.136 C 
ATOM     13  S1  NON d   1     -52.715  16.302  -2.792  0.00  0.00    -0.057 SA
BRANCH  11  14
ATOM     14  O1  NON d   1     -53.339  18.421  -0.632  0.00  0.00    -0.358 OA
ATOM     15  H1  NON d   1     -53.853  17.903  -1.271  0.00  0.00     0.217 HD
ENDBRANCH  11  14
ENDBRANCH   6   7
ENDBRANCH   1   6
BRANCH   3  16
ATOM     16  C8  NON d   1     -45.045  17.303  -4.390  0.00  0.00     0.054 A 
ATOM     17  C9  NON d   1     -44.621  18.465  -5.060  0.00  0.00     0.031 A 
ATOM     18  C10 NON d   1     -43.269  18.822  -5.056  0.00  0.00     0.002 A 
ATOM     19  C11 NON d   1     -42.339  18.042  -4.374  0.00  0.00     0.000 A 
ATOM     20  C12 NON d   1     -42.753  16.889  -3.707  0.00  0.00     0.002 A 
ATOM     21  C13 NON d   1     -44.100  16.508  -3.725  0.00  0.00     0.031 A 
ENDBRANCH   3  16
TORSDOF 4
ENDMDL
MODEL 4
REMARK VINA RESULT:   -28.325      3.482      7.504
REMARK INTER + INTRA:         -29.284
REMARK INTER:                 -29.518
REMARK INTRA:                   0.235
REMARK CONF_INDEPENDENT:        1.193
REMARK UNBOUND:                 0.235
REMARK  4 active torsions:
REMARK  status: ('A' for Active; 'I' for Inactive)
REMARK    1  A    between atoms: O1_1  and  C1_2 
REMARK    2  A    between atoms: N1_6  and  C5_7 
REMARK    3  A    between atoms: C5_7  and  C6_8 
REMARK    4  A    between atoms: N2_10  and  C8_11 
ROOT
ATOM      1  C6  NON d   1     -47.443  15.929  -4.490  0.00  0.00     0.087 A 
ATOM      2  C7  NON d   1     -46.328  16.481  -3.893  0.00  0.00     0.144 A 
ATOM      3  N2  NON d   1     -45.601  17.039  -4.918  0.00  0.00    -0.247 N 
ATOM      4  N3  NON d   1     -46.306  16.929  -6.068  0.00  0.00     0.009 NA
ATOM      5  N4  NON d   1     -47.440  16.281  -5.811  0.00  0.00    -0.161 NA
ENDROOT
BRANCH   1   6
ATOM      6  C5  NON d   1     -48.414  15.004  -3.824  0.00  0.00     0.191 C 
BRANCH   6   7
ATOM      7  N1  NON d   1     -49.457  15.581  -2.942  0.00  0.00    -0.340 N 
ATOM      8  C4  NON d   1     -50.774  15.349  -3.347  0.00  0.00     0.092 C 
ATOM      9  C3  NON d   1     -51.817  15.985  -2.808  0.00  0.00     0.020 C 
ATOM     10  C2  NON d   1     -51.623  16.881  -1.708  0.00  0.00     0.041 C 
ATOM     11  C1  NON d   1     -50.394  17.172  -1.264  0.00  0.00     0.103 C 
ATOM     12  C14 NON d   1     -49.171  16.598  -1.987  0.00  0.00     0.136 C 
ATOM     13  S1  NON d   1     -47.624  17.227  -1.690  0.00  0.00    -0.057 SA
BRANCH  11  14
ATOM     14  O1  NON d   1     -50.202  18.022  -0.185  0.00  0.00    -0.358 OA
ATOM     15  H1  NON d   1     -49.750  17.536   0.521  0.00  0.00     0.217 HD
ENDBRANCH  11  14
ENDBRANCH   6   7
ENDBRANCH   1   6
BRANCH   3  16
ATOM     16  C8  NON d   1     -44.297  17.592  -4.852  0.00  0.00     0.054 A 
ATOM     17  C9  NON d   1     -44.026  18.844  -5.434  0.00  0.00     0.031 A 
ATOM     18  C10 NON d   1     -42.746  19.399  -5.339  0.00  0.00     0.002 A 
ATOM     19  C11 NON d   1     -41.739  18.724  -4.653  0.00  0.00     0.000 A 
ATOM     20  C12 NON d   1     -42.000  17.483  -4.074  0.00  0.00     0.002 A 
ATOM     21  C13 NON d   1     -43.272  16.907  -4.184  0.00  0.00     0.031 A 
ENDBRANCH   3  16
TORSDOF 4
ENDMDL
MODEL 5
REMARK VINA RESULT:   -27.109      1.559      2.166
REMARK INTER + INTRA:         -28.788
REMARK INTER:                 -28.303
REMARK INTRA:                  -0.485
REMARK CONF_INDEPENDENT:        1.193
REMARK UNBOUND:                -0.485
REMARK  4 active torsions:
REMARK  status: ('A' for Active; 'I' for Inactive)
REMARK    1  A    between atoms: O1_1  and  C1_2 
REMARK    2  A    between atoms: N1_6  and  C5_7 
REMARK    3  A    between atoms: C5_7  and  C6_8 
REMARK    4  A    between atoms: N2_10  and  C8_11 
ROOT
ATOM      1  C6  NON d   1     -45.349  16.734  -4.098  0.00  0.00     0.087 A 
ATOM      2  C7  NON d   1     -46.377  16.205  -3.345  0.00  0.00     0.144 A 
ATOM      3  N2  NON d   1     -47.457  16.139  -4.192  0.00  0.00    -0.247 N 
ATOM      4  N3  NON d   1     -47.065  16.505  -5.435  0.00  0.00     0.009 NA
ATOM      5  N4  NON d   1     -45.777  16.840  -5.392  0.00  0.00    -0.161 NA
ENDROOT
BRANCH   1   6
ATOM      6  C5  NON d   1     -44.040  17.221  -3.557  0.00  0.00     0.191 C 
BRANCH   6   7
ATOM      7  N1  NON d   1     -43.022  17.728  -4.508  0.00  0.00    -0.340 N 
ATOM      8  C4  NON d   1     -41.700  17.401  -4.194  0.00  0.00     0.092 C 
ATOM      9  C3  NON d   1     -40.653  17.965  -4.803  0.00  0.00     0.020 C 
ATOM     10  C2  NON d   1     -40.857  18.878  -5.887  0.00  0.00     0.041 C 
ATOM     11  C1  NON d   1     -42.091  19.258  -6.246  0.00  0.00     0.103 C 
ATOM     12  C14 NON d   1     -43.299  18.767  -5.441  0.00  0.00     0.136 C 
ATOM     13  S1  NON d   1     -44.814  19.506  -5.631  0.00  0.00    -0.057 SA
BRANCH  11  14
ATOM     14  O1  NON d   1     -42.294  20.125  -7.308  0.00  0.00    -0.358 OA
ATOM     15  H1  NON d   1     -41.493  20.654  -7.440  0.00  0.00     0.217 HD
ENDBRANCH  11  14
ENDBRANCH   6   7
ENDBRANCH   1   6
BRANCH   3  16
ATOM     16  C8  NON d   1     -48.798  15.814  -3.862  0.00  0.00     0.054 A 
ATOM     17  C9  NON d   1     -49.352  14.586  -4.269  0.00  0.00     0.031 A 
ATOM     18  C10 NON d   1     -50.663  14.256  -3.914  0.00  0.00     0.002 A 
ATOM     19  C11 NON d   1     -51.421  15.132  -3.141  0.00  0.00     0.000 A 
ATOM     20  C12 NON d   1     -50.878  16.351  -2.734  0.00  0.00     0.002 A 
ATOM     21  C13 NON d   1     -49.575  16.702  -3.105  0.00  0.00     0.031 A 
ENDBRANCH   3  16
TORSDOF 4
ENDMDL
MODEL 6
REMARK VINA RESULT:   -26.990      1.673      2.358
REMARK INTER + INTRA:         -28.820
REMARK INTER:                 -28.183
REMARK INTRA:                  -0.637
REMARK CONF_INDEPENDENT:        1.193
REMARK UNBOUND:                -0.637
REMARK  4 active torsions:
REMARK  status: ('A' for Active; 'I' for Inactive)
REMARK    1  A    between atoms: O1_1  and  C1_2 
REMARK    2  A    between atoms: N1_6  and  C5_7 
REMARK    3  A    between atoms: C5_7  and  C6_8 
REMARK    4  A    between atoms: N2_10  and  C8_11 
ROOT
ATOM      1  C6  NON d   1     -45.244  16.415  -4.247  0.00  0.00     0.087 A 
ATOM      2  C7  NON d   1     -46.279  16.028  -3.421  0.00  0.00     0.144 A 
ATOM      3  N2  NON d   1     -47.421  16.163  -4.174  0.00  0.00    -0.247 N 
ATOM      4  N3  NON d   1     -47.077  16.505  -5.438  0.00  0.00     0.009 NA
ATOM      5  N4  NON d   1     -45.753  16.631  -5.497  0.00  0.00    -0.161 NA
ENDROOT
BRANCH   1   6
ATOM      6  C5  NON d   1     -43.835  16.670  -3.809  0.00  0.00     0.191 C 
BRANCH   6   7
ATOM      7  N1  NON d   1     -43.199  17.958  -4.175  0.00  0.00    -0.340 N 
ATOM      8  C4  NON d   1     -43.602  18.494  -5.401  0.00  0.00     0.092 C 
ATOM      9  C3  NON d   1     -42.967  19.513  -5.987  0.00  0.00     0.020 C 
ATOM     10  C2  NON d   1     -41.881  20.164  -5.319  0.00  0.00     0.041 C 
ATOM     11  C1  NON d   1     -41.420  19.708  -4.146  0.00  0.00     0.103 C 
ATOM     12  C14 NON d   1     -42.012  18.429  -3.545  0.00  0.00     0.136 C 
ATOM     13  S1  NON d   1     -41.219  17.631  -2.275  0.00  0.00    -0.057 SA
BRANCH  11  14
ATOM     14  O1  NON d   1     -40.383  20.348  -3.485  0.00  0.00    -0.358 OA
ATOM     15  H1  NON d   1     -40.204  19.880  -2.655  0.00  0.00     0.217 HD
ENDBRANCH  11  14
ENDBRANCH   6   7
ENDBRANCH   1   6
BRANCH   3  16
ATOM     16  C8  NON d   1     -48.765  16.041  -3.739  0.00  0.00     0.054 A 
ATOM     17  C9  NON d   1     -49.380  14.777  -3.677  0.00  0.00     0.031 A 
ATOM     18  C10 NON d   1     -50.695  14.659  -3.216  0.00  0.00     0.002 A 
ATOM     19  C11 NON d   1     -51.396  15.788  -2.800  0.00  0.00     0.000 A 
ATOM     20  C12 NON d   1     -50.792  17.044  -2.859  0.00  0.00     0.002 A 
ATOM     21  C13 NON d   1     -49.485  17.177  -3.341  0.00  0.00     0.031 A 
ENDBRANCH   3  16
TORSDOF 4
ENDMDL
