MODEL 1
REMARK VINA RESULT:   -28.112      0.000      0.000
REMARK INTER + INTRA:         -30.078
REMARK INTER:                 -29.305
REMARK INTRA:                  -0.773
REMARK CONF_INDEPENDENT:        1.193
REMARK UNBOUND:                -0.773
REMARK  4 active torsions:
REMARK  status: ('A' for Active; 'I' for Inactive)
REMARK    1  A    between atoms: O1_1  and  C1_2 
REMARK    2  A    between atoms: N1_6  and  C5_7 
REMARK    3  A    between atoms: C5_7  and  C6_8 
REMARK    4  A    between atoms: C9_11  and  C10_12 
ROOT
ATOM      1  C6  NON d   1     -40.987  19.090  -3.521  0.00  0.00    -0.040 A 
ATOM      2  C7  NON d   1     -41.750  19.648  -4.563  0.00  0.00     0.010 A 
ATOM      3  C8  NON d   1     -42.989  19.128  -4.941  0.00  0.00     0.013 A 
ATOM      4  C9  NON d   1     -43.542  18.011  -4.303  0.00  0.00    -0.026 A 
ATOM      5  C15 NON d   1     -42.751  17.415  -3.295  0.00  0.00     0.013 A 
ATOM      6  C16 NON d   1     -41.486  17.933  -2.922  0.00  0.00     0.010 A 
ENDROOT
BRANCH   1   7
ATOM      7  C5  NON d   1     -39.717  19.846  -3.186  0.00  0.00     0.168 C 
BRANCH   7   8
ATOM      8  N1  NON d   1     -39.601  20.901  -2.142  0.00  0.00    -0.342 N 
ATOM      9  C4  NON d   1     -38.499  20.725  -1.290  0.00  0.00     0.092 C 
ATOM     10  C3  NON d   1     -38.048  21.673  -0.469  0.00  0.00     0.020 C 
ATOM     11  C2  NON d   1     -38.757  22.908  -0.342  0.00  0.00     0.041 C 
ATOM     12  C1  NON d   1     -39.790  23.186  -1.149  0.00  0.00     0.103 C 
ATOM     13  C17 NON d   1     -40.170  22.202  -2.264  0.00  0.00     0.136 C 
ATOM     14  S1  NON d   1     -41.154  22.704  -3.549  0.00  0.00    -0.057 SA
BRANCH  12  15
ATOM     15  O1  NON d   1     -40.498  24.375  -1.025  0.00  0.00    -0.358 OA
ATOM     16  H1  NON d   1     -40.537  24.807  -1.889  0.00  0.00     0.217 HD
ENDBRANCH  12  15
ENDBRANCH   7   8
ENDBRANCH   1   7
BRANCH   4  17
ATOM     17  C10 NON d   1     -44.899  17.532  -4.671  0.00  0.00    -0.023 A 
ATOM     18  C11 NON d   1     -45.560  16.538  -3.927  0.00  0.00     0.031 A 
ATOM     19  C12 NON d   1     -46.795  16.060  -4.345  0.00  0.00     0.117 A 
ATOM     20  N2  NON d   1     -47.437  16.505  -5.441  0.00  0.00    -0.273 NA
ATOM     21  C13 NON d   1     -46.809  17.468  -6.147  0.00  0.00     0.117 A 
ATOM     22  C14 NON d   1     -45.568  17.999  -5.811  0.00  0.00     0.031 A 
ENDBRANCH   4  17
TORSDOF 4
ENDMDL
MODEL 2
REMARK VINA RESULT:   -28.087      1.188      1.666
REMARK INTER + INTRA:         -30.080
REMARK INTER:                 -29.280
REMARK INTRA:                  -0.799
REMARK CONF_INDEPENDENT:        1.193
REMARK UNBOUND:                -0.799
REMARK  4 active torsions:
REMARK  status: ('A' for Active; 'I' for Inactive)
REMARK    1  A    between atoms: O1_1  and  C1_2 
REMARK    2  A    between atoms: N1_6  and  C5_7 
REMARK    3  A    between atoms: C5_7  and  C6_8 
REMARK    4  A    between atoms: C9_11  and  C10_12 
ROOT
ATOM      1  C6  NON d   1     -40.996  19.079  -3.476  0.00  0.00    -0.040 A 
ATOM      2  C7  NON d   1     -41.684  19.541  -4.613  0.00  0.00     0.010 A 
ATOM      3  C8  NON d   1     -42.921  19.020  -4.998  0.00  0.00     0.013 A 
ATOM      4  C9  NON d   1     -43.545  17.999  -4.271  0.00  0.00    -0.026 A 
ATOM      5  C15 NON d   1     -42.829  17.496  -3.163  0.00  0.00     0.013 A 
ATOM      6  C16 NON d   1     -41.566  18.013  -2.781  0.00  0.00     0.010 A 
ENDROOT
BRANCH   1   7
ATOM      7  C5  NON d   1     -39.717  19.829  -3.158  0.00  0.00     0.168 C 
BRANCH   7   8
ATOM      8  N1  NON d   1     -39.626  21.292  -2.899  0.00  0.00    -0.342 N 
ATOM      9  C4  NON d   1     -39.900  22.077  -4.030  0.00  0.00     0.092 C 
ATOM     10  C3  NON d   1     -40.139  23.387  -3.972  0.00  0.00     0.020 C 
ATOM     11  C2  NON d   1     -40.016  24.085  -2.730  0.00  0.00     0.041 C 
ATOM     12  C1  NON d   1     -39.806  23.413  -1.590  0.00  0.00     0.103 C 
ATOM     13  C17 NON d   1     -39.768  21.878  -1.608  0.00  0.00     0.136 C 
ATOM     14  S1  NON d   1     -39.946  21.002  -0.168  0.00  0.00    -0.057 SA
BRANCH  12  15
ATOM     15  O1  NON d   1     -39.666  24.080  -0.380  0.00  0.00    -0.358 OA
ATOM     16  H1  NON d   1     -39.483  23.432   0.314  0.00  0.00     0.217 HD
ENDBRANCH  12  15
ENDBRANCH   7   8
ENDBRANCH   1   7
BRANCH   4  17
ATOM     17  C10 NON d   1     -44.899  17.525  -4.659  0.00  0.00    -0.023 A 
ATOM     18  C11 NON d   1     -45.568  16.524  -3.930  0.00  0.00     0.031 A 
ATOM     19  C12 NON d   1     -46.799  16.051  -4.365  0.00  0.00     0.117 A 
ATOM     20  N2  NON d   1     -47.429  16.506  -5.464  0.00  0.00    -0.273 NA
ATOM     21  C13 NON d   1     -46.794  17.475  -6.154  0.00  0.00     0.117 A 
ATOM     22  C14 NON d   1     -45.556  18.002  -5.801  0.00  0.00     0.031 A 
ENDBRANCH   4  17
TORSDOF 4
ENDMDL
MODEL 3
REMARK VINA RESULT:   -27.722      1.885      2.365
REMARK INTER + INTRA:         -29.579
REMARK INTER:                 -28.915
REMARK INTRA:                  -0.664
REMARK CONF_INDEPENDENT:        1.193
REMARK UNBOUND:                -0.664
REMARK  4 active torsions:
REMARK  status: ('A' for Active; 'I' for Inactive)
REMARK    1  A    between atoms: O1_1  and  C1_2 
REMARK    2  A    between atoms: N1_6  and  C5_7 
REMARK    3  A    between atoms: C5_7  and  C6_8 
REMARK    4  A    between atoms: C9_11  and  C10_12 
ROOT
ATOM      1  C6  NON d   1     -40.788  18.992  -3.790  0.00  0.00    -0.040 A 
ATOM      2  C7  NON d   1     -41.514  18.131  -2.947  0.00  0.00     0.010 A 
ATOM      3  C8  NON d   1     -42.813  17.716  -3.247  0.00  0.00     0.013 A 
ATOM      4  C9  NON d   1     -43.470  18.140  -4.408  0.00  0.00    -0.026 A 
ATOM      5  C15 NON d   1     -42.763  19.049  -5.226  0.00  0.00     0.013 A 
ATOM      6  C16 NON d   1     -41.450  19.484  -4.914  0.00  0.00     0.010 A 
ENDROOT
BRANCH   1   7
ATOM      7  C5  NON d   1     -39.360  19.255  -3.354  0.00  0.00     0.168 C 
BRANCH   7   8
ATOM      8  N1  NON d   1     -38.950  20.249  -2.323  0.00  0.00    -0.342 N 
ATOM      9  C4  NON d   1     -40.022  20.996  -1.811  0.00  0.00     0.092 C 
ATOM     10  C3  NON d   1     -39.936  21.740  -0.708  0.00  0.00     0.020 C 
ATOM     11  C2  NON d   1     -38.680  21.894  -0.044  0.00  0.00     0.041 C 
ATOM     12  C1  NON d   1     -37.613  21.182  -0.430  0.00  0.00     0.103 C 
ATOM     13  C17 NON d   1     -37.759  20.141  -1.549  0.00  0.00     0.136 C 
ATOM     14  S1  NON d   1     -36.581  18.941  -1.758  0.00  0.00    -0.057 SA
BRANCH  12  15
ATOM     15  O1  NON d   1     -36.383  21.337   0.195  0.00  0.00    -0.358 OA
ATOM     16  H1  NON d   1     -36.478  21.117   1.131  0.00  0.00     0.217 HD
ENDBRANCH  12  15
ENDBRANCH   7   8
ENDBRANCH   1   7
BRANCH   4  17
ATOM     17  C10 NON d   1     -44.819  17.615  -4.741  0.00  0.00    -0.023 A 
ATOM     18  C11 NON d   1     -45.392  16.545  -4.029  0.00  0.00     0.031 A 
ATOM     19  C12 NON d   1     -46.622  16.030  -4.416  0.00  0.00     0.117 A 
ATOM     20  N2  NON d   1     -47.339  16.505  -5.451  0.00  0.00    -0.273 NA
ATOM     21  C13 NON d   1     -46.796  17.540  -6.125  0.00  0.00     0.117 A 
ATOM     22  C14 NON d   1     -45.567  18.113  -5.816  0.00  0.00     0.031 A 
ENDBRANCH   4  17
TORSDOF 4
ENDMDL
MODEL 4
REMARK VINA RESULT:   -27.622      2.557      3.329
REMARK INTER + INTRA:         -29.647
REMARK INTER:                 -28.815
REMARK INTRA:                  -0.831
REMARK CONF_INDEPENDENT:        1.193
REMARK UNBOUND:                -0.831
REMARK  4 active torsions:
REMARK  status: ('A' for Active; 'I' for Inactive)
REMARK    1  A    between atoms: O1_1  and  C1_2 
REMARK    2  A    between atoms: N1_6  and  C5_7 
REMARK    3  A    between atoms: C5_7  and  C6_8 
REMARK    4  A    between atoms: C9_11  and  C10_12 
ROOT
ATOM      1  C6  NON d   1     -40.806  18.699  -3.680  0.00  0.00    -0.040 A 
ATOM      2  C7  NON d   1     -41.466  17.642  -3.028  0.00  0.00     0.010 A 
ATOM      3  C8  NON d   1     -42.780  17.281  -3.336  0.00  0.00     0.013 A 
ATOM      4  C9  NON d   1     -43.517  17.960  -4.313  0.00  0.00    -0.026 A 
ATOM      5  C15 NON d   1     -42.875  19.057  -4.927  0.00  0.00     0.013 A 
ATOM      6  C16 NON d   1     -41.548  19.435  -4.604  0.00  0.00     0.010 A 
ENDROOT
BRANCH   1   7
ATOM      7  C5  NON d   1     -39.354  18.882  -3.286  0.00  0.00     0.168 C 
BRANCH   7   8
ATOM      8  N1  NON d   1     -38.283  19.398  -4.183  0.00  0.00    -0.342 N 
ATOM      9  C4  NON d   1     -37.676  18.400  -4.960  0.00  0.00     0.092 C 
ATOM     10  C3  NON d   1     -36.896  18.660  -6.009  0.00  0.00     0.020 C 
ATOM     11  C2  NON d   1     -36.550  20.010  -6.328  0.00  0.00     0.041 C 
ATOM     12  C1  NON d   1     -37.120  21.031  -5.673  0.00  0.00     0.103 C 
ATOM     13  C17 NON d   1     -38.203  20.751  -4.623  0.00  0.00     0.136 C 
ATOM     14  S1  NON d   1     -39.234  21.993  -4.107  0.00  0.00    -0.057 SA
BRANCH  12  15
ATOM     15  O1  NON d   1     -36.779  22.346  -5.961  0.00  0.00    -0.358 OA
ATOM     16  H1  NON d   1     -37.072  22.911  -5.233  0.00  0.00     0.217 HD
ENDBRANCH  12  15
ENDBRANCH   7   8
ENDBRANCH   1   7
BRANCH   4  17
ATOM     17  C10 NON d   1     -44.883  17.499  -4.676  0.00  0.00    -0.023 A 
ATOM     18  C11 NON d   1     -45.549  16.507  -3.934  0.00  0.00     0.031 A 
ATOM     19  C12 NON d   1     -46.793  16.046  -4.347  0.00  0.00     0.117 A 
ATOM     20  N2  NON d   1     -47.436  16.505  -5.436  0.00  0.00    -0.273 NA
ATOM     21  C13 NON d   1     -46.803  17.466  -6.140  0.00  0.00     0.117 A 
ATOM     22  C14 NON d   1     -45.554  17.981  -5.809  0.00  0.00     0.031 A 
ENDBRANCH   4  17
TORSDOF 4
ENDMDL
MODEL 5
REMARK VINA RESULT:   -27.590      2.045      2.580
REMARK INTER + INTRA:         -29.626
REMARK INTER:                 -28.783
REMARK INTRA:                  -0.843
REMARK CONF_INDEPENDENT:        1.193
REMARK UNBOUND:                -0.843
REMARK  4 active torsions:
REMARK  status: ('A' for Active; 'I' for Inactive)
REMARK    1  A    between atoms: O1_1  and  C1_2 
REMARK    2  A    between atoms: N1_6  and  C5_7 
REMARK    3  A    between atoms: C5_7  and  C6_8 
REMARK    4  A    between atoms: C9_11  and  C10_12 
ROOT
ATOM      1  C6  NON d   1     -41.025  19.183  -3.540  0.00  0.00    -0.040 A 
ATOM      2  C7  NON d   1     -41.672  19.531  -4.740  0.00  0.00     0.010 A 
ATOM      3  C8  NON d   1     -42.906  18.989  -5.105  0.00  0.00     0.013 A 
ATOM      4  C9  NON d   1     -43.568  18.060  -4.293  0.00  0.00    -0.026 A 
ATOM      5  C15 NON d   1     -42.893  17.667  -3.117  0.00  0.00     0.013 A 
ATOM      6  C16 NON d   1     -41.633  18.205  -2.753  0.00  0.00     0.010 A 
ENDROOT
BRANCH   1   7
ATOM      7  C5  NON d   1     -39.744  19.945  -3.264  0.00  0.00     0.168 C 
BRANCH   7   8
ATOM      8  N1  NON d   1     -39.125  20.939  -4.184  0.00  0.00    -0.342 N 
ATOM      9  C4  NON d   1     -38.171  20.382  -5.049  0.00  0.00     0.092 C 
ATOM     10  C3  NON d   1     -37.694  21.015  -6.120  0.00  0.00     0.020 C 
ATOM     11  C2  NON d   1     -38.068  22.371  -6.377  0.00  0.00     0.041 C 
ATOM     12  C1  NON d   1     -39.009  22.970  -5.635  0.00  0.00     0.103 C 
ATOM     13  C17 NON d   1     -39.741  22.171  -4.547  0.00  0.00     0.136 C 
ATOM     14  S1  NON d   1     -41.203  22.742  -3.906  0.00  0.00    -0.057 SA
BRANCH  12  15
ATOM     15  O1  NON d   1     -39.368  24.292  -5.862  0.00  0.00    -0.358 OA
ATOM     16  H1  NON d   1     -39.458  24.742  -5.011  0.00  0.00     0.217 HD
ENDBRANCH  12  15
ENDBRANCH   7   8
ENDBRANCH   1   7
BRANCH   4  17
ATOM     17  C10 NON d   1     -44.919  17.565  -4.669  0.00  0.00    -0.023 A 
ATOM     18  C11 NON d   1     -45.590  16.596  -3.902  0.00  0.00     0.031 A 
ATOM     19  C12 NON d   1     -46.817  16.101  -4.324  0.00  0.00     0.117 A 
ATOM     20  N2  NON d   1     -47.440  16.505  -5.447  0.00  0.00    -0.273 NA
ATOM     21  C13 NON d   1     -46.802  17.444  -6.175  0.00  0.00     0.117 A 
ATOM     22  C14 NON d   1     -45.568  17.990  -5.836  0.00  0.00     0.031 A 
ENDBRANCH   4  17
TORSDOF 4
ENDMDL
MODEL 6
REMARK VINA RESULT:   -27.543      1.567      2.109
REMARK INTER + INTRA:         -29.582
REMARK INTER:                 -28.737
REMARK INTRA:                  -0.845
REMARK CONF_INDEPENDENT:        1.193
REMARK UNBOUND:                -0.845
REMARK  4 active torsions:
REMARK  status: ('A' for Active; 'I' for Inactive)
REMARK    1  A    between atoms: O1_1  and  C1_2 
REMARK    2  A    between atoms: N1_6  and  C5_7 
REMARK    3  A    between atoms: C5_7  and  C6_8 
REMARK    4  A    between atoms: C9_11  and  C10_12 
ROOT
ATOM      1  C6  NON d   1     -40.806  18.699  -3.680  0.00  0.00    -0.040 A 
ATOM      2  C7  NON d   1     -41.466  17.642  -3.028  0.00  0.00     0.010 A 
ATOM      3  C8  NON d   1     -42.780  17.281  -3.336  0.00  0.00     0.013 A 
ATOM      4  C9  NON d   1     -43.517  17.960  -4.313  0.00  0.00    -0.026 A 
ATOM      5  C15 NON d   1     -42.875  19.057  -4.927  0.00  0.00     0.013 A 
ATOM      6  C16 NON d   1     -41.548  19.435  -4.604  0.00  0.00     0.010 A 
ENDROOT
BRANCH   1   7
ATOM      7  C5  NON d   1     -39.354  18.882  -3.286  0.00  0.00     0.168 C 
BRANCH   7   8
ATOM      8  N1  NON d   1     -38.637  20.187  -3.244  0.00  0.00    -0.342 N 
ATOM      9  C4  NON d   1     -38.079  20.557  -4.477  0.00  0.00     0.092 C 
ATOM     10  C3  NON d   1     -37.634  21.785  -4.741  0.00  0.00     0.020 C 
ATOM     11  C2  NON d   1     -37.609  22.776  -3.711  0.00  0.00     0.041 C 
ATOM     12  C1  NON d   1     -38.165  22.530  -2.516  0.00  0.00     0.103 C 
ATOM     13  C17 NON d   1     -38.896  21.201  -2.278  0.00  0.00     0.136 C 
ATOM     14  S1  NON d   1     -39.964  21.037  -0.972  0.00  0.00    -0.057 SA
BRANCH  12  15
ATOM     15  O1  NON d   1     -38.131  23.477  -1.501  0.00  0.00    -0.358 OA
ATOM     16  H1  NON d   1     -38.328  23.041  -0.661  0.00  0.00     0.217 HD
ENDBRANCH  12  15
ENDBRANCH   7   8
ENDBRANCH   1   7
BRANCH   4  17
ATOM     17  C10 NON d   1     -44.883  17.499  -4.676  0.00  0.00    -0.023 A 
ATOM     18  C11 NON d   1     -45.549  16.507  -3.934  0.00  0.00     0.031 A 
ATOM     19  C12 NON d   1     -46.793  16.046  -4.347  0.00  0.00     0.117 A 
ATOM     20  N2  NON d   1     -47.436  16.505  -5.436  0.00  0.00    -0.273 NA
ATOM     21  C13 NON d   1     -46.803  17.466  -6.140  0.00  0.00     0.117 A 
ATOM     22  C14 NON d   1     -45.554  17.981  -5.809  0.00  0.00     0.031 A 
ENDBRANCH   4  17
TORSDOF 4
ENDMDL
MODEL 7
REMARK VINA RESULT:   -27.400      1.886      2.267
REMARK INTER + INTRA:         -29.338
REMARK INTER:                 -28.593
REMARK INTRA:                  -0.745
REMARK CONF_INDEPENDENT:        1.193
REMARK UNBOUND:                -0.745
REMARK  4 active torsions:
REMARK  status: ('A' for Active; 'I' for Inactive)
REMARK    1  A    between atoms: O1_1  and  C1_2 
REMARK    2  A    between atoms: N1_6  and  C5_7 
REMARK    3  A    between atoms: C5_7  and  C6_8 
REMARK    4  A    between atoms: C9_11  and  C10_12 
ROOT
ATOM      1  C6  NON d   1     -40.805  18.707  -3.701  0.00  0.00    -0.040 A 
ATOM      2  C7  NON d   1     -41.603  17.935  -2.837  0.00  0.00     0.010 A 
ATOM      3  C8  NON d   1     -42.915  17.577  -3.156  0.00  0.00     0.013 A 
ATOM      4  C9  NON d   1     -43.513  17.975  -4.358  0.00  0.00    -0.026 A 
ATOM      5  C15 NON d   1     -42.732  18.798  -5.199  0.00  0.00     0.013 A 
ATOM      6  C16 NON d   1     -41.406  19.175  -4.870  0.00  0.00     0.010 A 
ENDROOT
BRANCH   1   7
ATOM      7  C5  NON d   1     -39.377  18.913  -3.235  0.00  0.00     0.168 C 
BRANCH   7   8
ATOM      8  N1  NON d   1     -38.746  20.236  -2.971  0.00  0.00    -0.342 N 
ATOM      9  C4  NON d   1     -38.806  20.624  -1.623  0.00  0.00     0.092 C 
ATOM     10  C3  NON d   1     -38.083  21.622  -1.115  0.00  0.00     0.020 C 
ATOM     11  C2  NON d   1     -37.275  22.431  -1.973  0.00  0.00     0.041 C 
ATOM     12  C1  NON d   1     -37.117  22.107  -3.264  0.00  0.00     0.103 C 
ATOM     13  C17 NON d   1     -37.752  20.820  -3.808  0.00  0.00     0.136 C 
ATOM     14  S1  NON d   1     -37.224  20.162  -5.278  0.00  0.00    -0.057 SA
BRANCH  12  15
ATOM     15  O1  NON d   1     -36.350  22.895  -4.112  0.00  0.00    -0.358 OA
ATOM     16  H1  NON d   1     -36.366  22.507  -4.998  0.00  0.00     0.217 HD
ENDBRANCH  12  15
ENDBRANCH   7   8
ENDBRANCH   1   7
BRANCH   4  17
ATOM     17  C10 NON d   1     -44.880  17.508  -4.705  0.00  0.00    -0.023 A 
ATOM     18  C11 NON d   1     -45.530  16.507  -3.960  0.00  0.00     0.031 A 
ATOM     19  C12 NON d   1     -46.777  16.041  -4.359  0.00  0.00     0.117 A 
ATOM     20  N2  NON d   1     -47.439  16.505  -5.436  0.00  0.00    -0.273 NA
ATOM     21  C13 NON d   1     -46.821  17.475  -6.141  0.00  0.00     0.117 A 
ATOM     22  C14 NON d   1     -45.570  17.994  -5.824  0.00  0.00     0.031 A 
ENDBRANCH   4  17
TORSDOF 4
ENDMDL
MODEL 8
REMARK VINA RESULT:   -26.524      1.683      2.228
REMARK INTER + INTRA:         -28.430
REMARK INTER:                 -27.717
REMARK INTRA:                  -0.713
REMARK CONF_INDEPENDENT:        1.193
REMARK UNBOUND:                -0.713
REMARK  4 active torsions:
REMARK  status: ('A' for Active; 'I' for Inactive)
REMARK    1  A    between atoms: O1_1  and  C1_2 
REMARK    2  A    between atoms: N1_6  and  C5_7 
REMARK    3  A    between atoms: C5_7  and  C6_8 
REMARK    4  A    between atoms: C9_11  and  C10_12 
ROOT
ATOM      1  C6  NON d   1     -41.104  19.566  -3.768  0.00  0.00    -0.040 A 
ATOM      2  C7  NON d   1     -42.023  20.131  -4.671  0.00  0.00     0.010 A 
ATOM      3  C8  NON d   1     -43.205  19.483  -5.034  0.00  0.00     0.013 A 
ATOM      4  C9  NON d   1     -43.540  18.225  -4.519  0.00  0.00    -0.026 A 
ATOM      5  C15 NON d   1     -42.591  17.632  -3.658  0.00  0.00     0.013 A 
ATOM      6  C16 NON d   1     -41.383  18.281  -3.301  0.00  0.00     0.010 A 
ENDROOT
BRANCH   1   7
ATOM      7  C5  NON d   1     -39.927  20.455  -3.416  0.00  0.00     0.168 C 
BRANCH   7   8
ATOM      8  N1  NON d   1     -39.942  21.944  -3.448  0.00  0.00    -0.342 N 
ATOM      9  C4  NON d   1     -40.139  22.527  -2.187  0.00  0.00     0.092 C 
ATOM     10  C3  NON d   1     -39.922  23.818  -1.934  0.00  0.00     0.020 C 
ATOM     11  C2  NON d   1     -39.573  24.708  -2.997  0.00  0.00     0.041 C 
ATOM     12  C1  NON d   1     -39.315  24.235  -4.224  0.00  0.00     0.103 C 
ATOM     13  C17 NON d   1     -39.326  22.720  -4.472  0.00  0.00     0.136 C 
ATOM     14  S1  NON d   1     -38.592  22.076  -5.857  0.00  0.00    -0.057 SA
BRANCH  12  15
ATOM     15  O1  NON d   1     -38.993  25.090  -5.269  0.00  0.00    -0.358 OA
ATOM     16  H1  NON d   1     -39.690  25.043  -5.938  0.00  0.00     0.217 HD
ENDBRANCH  12  15
ENDBRANCH   7   8
ENDBRANCH   1   7
BRANCH   4  17
ATOM     17  C10 NON d   1     -44.844  17.599  -4.860  0.00  0.00    -0.023 A 
ATOM     18  C11 NON d   1     -45.636  18.072  -5.922  0.00  0.00     0.031 A 
ATOM     19  C12 NON d   1     -46.884  17.512  -6.164  0.00  0.00     0.117 A 
ATOM     20  N2  NON d   1     -47.404  16.505  -5.439  0.00  0.00    -0.273 NA
ATOM     21  C13 NON d   1     -46.639  16.042  -4.429  0.00  0.00     0.117 A 
ATOM     22  C14 NON d   1     -45.383  16.547  -4.107  0.00  0.00     0.031 A 
ENDBRANCH   4  17
TORSDOF 4
ENDMDL
