MODEL 1
REMARK VINA RESULT:   -15.386      0.000      0.000
REMARK INTER + INTRA:         -19.123
REMARK INTER:                 -17.176
REMARK INTRA:                  -1.947
REMARK CONF_INDEPENDENT:        1.790
REMARK UNBOUND:                -1.947
REMARK  6 active torsions:
REMARK  status: ('A' for Active; 'I' for Inactive)
REMARK    1  A    between atoms: O1_2  and  C2_3 
REMARK    2  A    between atoms: C5_6  and  N1_7 
REMARK    3  A    between atoms: C6_8  and  C7_9 
REMARK    4  A    between atoms: C11_13  and  C12_14 
REMARK    5  A    between atoms: C13_15  and  C14_16 
REMARK       I    between atoms: C14_16  and  N2_18 
REMARK    6  A    between atoms: N2_18  and  O3_19 
ROOT
ATOM      1  N1  NON d   1     -40.314  21.831  -5.512  0.00  0.00    -0.293 N 
ATOM      2  C6  NON d   1     -40.656  20.485  -5.713  0.00  0.00     0.146 A 
ATOM      3  N3  NON d   1     -40.397  20.131  -6.966  0.00  0.00    -0.228 NA
ATOM      4  C16 NON d   1     -39.919  21.228  -7.602  0.00  0.00     0.086 A 
ATOM      5  C17 NON d   1     -39.527  21.358  -8.944  0.00  0.00     0.034 A 
ATOM      6  C18 NON d   1     -39.120  22.609  -9.412  0.00  0.00     0.002 A 
ATOM      7  C19 NON d   1     -39.121  23.711  -8.560  0.00  0.00     0.002 A 
ATOM      8  C20 NON d   1     -39.504  23.593  -7.220  0.00  0.00     0.032 A 
ATOM      9  C21 NON d   1     -39.871  22.319  -6.748  0.00  0.00     0.070 A 
ENDROOT
BRANCH   2  10
ATOM     10  C7  NON d   1     -41.163  19.472  -4.765  0.00  0.00     0.011 A 
ATOM     11  C8  NON d   1     -40.450  18.947  -3.684  0.00  0.00     0.015 A 
ATOM     12  C9  NON d   1     -41.016  17.953  -2.876  0.00  0.00     0.002 A 
ATOM     13  C10 NON d   1     -42.265  17.410  -3.186  0.00  0.00     0.011 A 
ATOM     14  C11 NON d   1     -42.961  17.851  -4.311  0.00  0.00    -0.035 A 
ATOM     15  C15 NON d   1     -42.424  18.909  -5.054  0.00  0.00     0.026 A 
BRANCH  14  16
ATOM     16  C12 NON d   1     -44.217  17.194  -4.702  0.00  0.00     0.017 C 
ATOM     17  C13 NON d   1     -45.203  17.851  -5.335  0.00  0.00     0.077 C 
BRANCH  17  18
ATOM     18  C14 NON d   1     -46.426  17.142  -5.772  0.00  0.00     0.264 C 
ATOM     19  O2  NON d   1     -47.432  17.708  -6.185  0.00  0.00    -0.266 OA
ATOM     20  N2  NON d   1     -46.337  15.781  -5.645  0.00  0.00    -0.234 N 
ATOM     21  H11 NON d   1     -45.565  15.278  -5.222  0.00  0.00     0.197 HD
BRANCH  20  22
ATOM     22  O3  NON d   1     -47.502  15.040  -5.941  0.00  0.00    -0.287 OA
ATOM     23  H12 NON d   1     -48.028  15.683  -6.464  0.00  0.00     0.244 HD
ENDBRANCH  20  22
ENDBRANCH  17  18
ENDBRANCH  14  16
ENDBRANCH   2  10
BRANCH   1  24
ATOM     24  C5  NON d   1     -40.398  22.623  -4.327  0.00  0.00     0.041 A 
ATOM     25  C4  NON d   1     -39.962  22.135  -3.093  0.00  0.00     0.033 A 
ATOM     26  C3  NON d   1     -40.066  22.943  -1.952  0.00  0.00     0.039 A 
ATOM     27  C2  NON d   1     -40.628  24.221  -2.023  0.00  0.00     0.068 A 
ATOM     28  C23 NON d   1     -41.062  24.706  -3.253  0.00  0.00     0.039 A 
ATOM     29  C22 NON d   1     -40.943  23.913  -4.400  0.00  0.00     0.033 A 
BRANCH  27  30
ATOM     30  O1  NON d   1     -40.679  24.902  -0.838  0.00  0.00    -0.356 OA
ATOM     31  C1  NON d   1     -41.320  24.237   0.246  0.00  0.00     0.210 C 
ENDBRANCH  27  30
ENDBRANCH   1  24
TORSDOF 6
ENDMDL
MODEL 2
REMARK VINA RESULT:   -15.326      1.536      2.305
REMARK INTER + INTRA:         -19.044
REMARK INTER:                 -17.116
REMARK INTRA:                  -1.929
REMARK CONF_INDEPENDENT:        1.790
REMARK UNBOUND:                -1.929
REMARK  6 active torsions:
REMARK  status: ('A' for Active; 'I' for Inactive)
REMARK    1  A    between atoms: O1_2  and  C2_3 
REMARK    2  A    between atoms: C5_6  and  N1_7 
REMARK    3  A    between atoms: C6_8  and  C7_9 
REMARK    4  A    between atoms: C11_13  and  C12_14 
REMARK    5  A    between atoms: C13_15  and  C14_16 
REMARK       I    between atoms: C14_16  and  N2_18 
REMARK    6  A    between atoms: N2_18  and  O3_19 
ROOT
ATOM      1  N1  NON d   1     -40.360  22.380  -3.247  0.00  0.00    -0.293 N 
ATOM      2  C6  NON d   1     -40.568  21.225  -4.016  0.00  0.00     0.146 A 
ATOM      3  N3  NON d   1     -40.234  21.451  -5.280  0.00  0.00    -0.228 NA
ATOM      4  C16 NON d   1     -39.837  22.745  -5.365  0.00  0.00     0.086 A 
ATOM      5  C17 NON d   1     -39.412  23.456  -6.498  0.00  0.00     0.034 A 
ATOM      6  C18 NON d   1     -39.106  24.813  -6.370  0.00  0.00     0.002 A 
ATOM      7  C19 NON d   1     -39.239  25.450  -5.138  0.00  0.00     0.002 A 
ATOM      8  C20 NON d   1     -39.656  24.750  -4.001  0.00  0.00     0.032 A 
ATOM      9  C21 NON d   1     -39.920  23.374  -4.132  0.00  0.00     0.070 A 
ENDROOT
BRANCH   2  10
ATOM     10  C7  NON d   1     -41.012  19.874  -3.617  0.00  0.00     0.011 A 
ATOM     11  C8  NON d   1     -40.354  19.041  -2.708  0.00  0.00     0.015 A 
ATOM     12  C9  NON d   1     -40.842  17.757  -2.439  0.00  0.00     0.002 A 
ATOM     13  C10 NON d   1     -41.945  17.255  -3.135  0.00  0.00     0.011 A 
ATOM     14  C11 NON d   1     -42.568  18.030  -4.113  0.00  0.00    -0.035 A 
ATOM     15  C15 NON d   1     -42.125  19.344  -4.303  0.00  0.00     0.026 A 
BRANCH  14  16
ATOM     16  C12 NON d   1     -43.648  17.455  -4.928  0.00  0.00     0.017 C 
ATOM     17  C13 NON d   1     -44.936  17.795  -4.753  0.00  0.00     0.077 C 
BRANCH  17  18
ATOM     18  C14 NON d   1     -45.990  17.246  -5.635  0.00  0.00     0.264 C 
ATOM     19  O2  NON d   1     -46.550  17.893  -6.513  0.00  0.00    -0.266 OA
ATOM     20  N2  NON d   1     -46.304  15.942  -5.357  0.00  0.00    -0.234 N 
ATOM     21  H11 NON d   1     -45.936  15.399  -4.584  0.00  0.00     0.197 HD
BRANCH  20  22
ATOM     22  O3  NON d   1     -47.375  15.379  -6.084  0.00  0.00    -0.287 OA
ATOM     23  H12 NON d   1     -47.325  15.867  -6.936  0.00  0.00     0.244 HD
ENDBRANCH  20  22
ENDBRANCH  17  18
ENDBRANCH  14  16
ENDBRANCH   2  10
BRANCH   1  24
ATOM     24  C5  NON d   1     -40.558  22.589  -1.849  0.00  0.00     0.041 A 
ATOM     25  C4  NON d   1     -39.948  21.771  -0.896  0.00  0.00     0.033 A 
ATOM     26  C3  NON d   1     -40.172  22.008   0.467  0.00  0.00     0.039 A 
ATOM     27  C2  NON d   1     -41.024  23.032   0.890  0.00  0.00     0.068 A 
ATOM     28  C23 NON d   1     -41.632  23.847  -0.061  0.00  0.00     0.039 A 
ATOM     29  C22 NON d   1     -41.397  23.630  -1.423  0.00  0.00     0.033 A 
BRANCH  27  30
ATOM     30  O1  NON d   1     -41.165  23.151   2.245  0.00  0.00    -0.356 OA
ATOM     31  C1  NON d   1     -40.734  24.381   2.819  0.00  0.00     0.210 C 
ENDBRANCH  27  30
ENDBRANCH   1  24
TORSDOF 6
ENDMDL
MODEL 3
REMARK VINA RESULT:   -15.255      0.951      1.480
REMARK INTER + INTRA:         -19.020
REMARK INTER:                 -17.045
REMARK INTRA:                  -1.975
REMARK CONF_INDEPENDENT:        1.790
REMARK UNBOUND:                -1.975
REMARK  6 active torsions:
REMARK  status: ('A' for Active; 'I' for Inactive)
REMARK    1  A    between atoms: O1_2  and  C2_3 
REMARK    2  A    between atoms: C5_6  and  N1_7 
REMARK    3  A    between atoms: C6_8  and  C7_9 
REMARK    4  A    between atoms: C11_13  and  C12_14 
REMARK    5  A    between atoms: C13_15  and  C14_16 
REMARK       I    between atoms: C14_16  and  N2_18 
REMARK    6  A    between atoms: N2_18  and  O3_19 
ROOT
ATOM      1  N1  NON d   1     -40.422  22.009  -4.405  0.00  0.00    -0.293 N 
ATOM      2  C6  NON d   1     -40.706  20.732  -4.913  0.00  0.00     0.146 A 
ATOM      3  N3  NON d   1     -40.428  20.686  -6.211  0.00  0.00    -0.228 NA
ATOM      4  C16 NON d   1     -39.993  21.918  -6.572  0.00  0.00     0.086 A 
ATOM      5  C17 NON d   1     -39.602  22.368  -7.843  0.00  0.00     0.034 A 
ATOM      6  C18 NON d   1     -39.246  23.709  -8.006  0.00  0.00     0.002 A 
ATOM      7  C19 NON d   1     -39.296  24.585  -6.925  0.00  0.00     0.002 A 
ATOM      8  C20 NON d   1     -39.679  24.147  -5.653  0.00  0.00     0.032 A 
ATOM      9  C21 NON d   1     -39.995  22.785  -5.491  0.00  0.00     0.070 A 
ENDROOT
BRANCH   2  10
ATOM     10  C7  NON d   1     -41.174  19.509  -4.230  0.00  0.00     0.011 A 
ATOM     11  C8  NON d   1     -40.461  18.803  -3.258  0.00  0.00     0.015 A 
ATOM     12  C9  NON d   1     -40.984  17.626  -2.709  0.00  0.00     0.002 A 
ATOM     13  C10 NON d   1     -42.185  17.092  -3.184  0.00  0.00     0.011 A 
ATOM     14  C11 NON d   1     -42.875  17.727  -4.216  0.00  0.00    -0.035 A 
ATOM     15  C15 NON d   1     -42.386  18.951  -4.689  0.00  0.00     0.026 A 
BRANCH  14  16
ATOM     16  C12 NON d   1     -44.071  17.100  -4.796  0.00  0.00     0.017 C 
ATOM     17  C13 NON d   1     -45.189  17.797  -5.060  0.00  0.00     0.077 C 
BRANCH  17  18
ATOM     18  C14 NON d   1     -46.352  17.146  -5.704  0.00  0.00     0.264 C 
ATOM     19  O2  NON d   1     -47.297  17.761  -6.185  0.00  0.00    -0.266 OA
ATOM     20  N2  NON d   1     -46.285  15.778  -5.685  0.00  0.00    -0.234 N 
ATOM     21  H11 NON d   1     -45.574  15.229  -5.217  0.00  0.00     0.197 HD
BRANCH  20  22
ATOM     22  O3  NON d   1     -47.408  15.083  -6.185  0.00  0.00    -0.287 OA
ATOM     23  H12 NON d   1     -47.820  15.753  -6.773  0.00  0.00     0.244 HD
ENDBRANCH  20  22
ENDBRANCH  17  18
ENDBRANCH  14  16
ENDBRANCH   2  10
BRANCH   1  24
ATOM     24  C5  NON d   1     -40.543  22.503  -3.071  0.00  0.00     0.041 A 
ATOM     25  C4  NON d   1     -41.260  23.668  -2.788  0.00  0.00     0.033 A 
ATOM     26  C3  NON d   1     -41.351  24.121  -1.465  0.00  0.00     0.039 A 
ATOM     27  C2  NON d   1     -40.709  23.444  -0.425  0.00  0.00     0.068 A 
ATOM     28  C23 NON d   1     -39.995  22.283  -0.708  0.00  0.00     0.039 A 
ATOM     29  C22 NON d   1     -39.916  21.813  -2.023  0.00  0.00     0.033 A 
BRANCH  27  30
ATOM     30  O1  NON d   1     -40.869  23.996   0.817  0.00  0.00    -0.356 OA
ATOM     31  C1  NON d   1     -41.050  23.083   1.895  0.00  0.00     0.210 C 
ENDBRANCH  27  30
ENDBRANCH   1  24
TORSDOF 6
ENDMDL
MODEL 4
REMARK VINA RESULT:   -15.110      2.560      4.606
REMARK INTER + INTRA:         -18.987
REMARK INTER:                 -16.900
REMARK INTRA:                  -2.087
REMARK CONF_INDEPENDENT:        1.790
REMARK UNBOUND:                -2.087
REMARK  6 active torsions:
REMARK  status: ('A' for Active; 'I' for Inactive)
REMARK    1  A    between atoms: O1_2  and  C2_3 
REMARK    2  A    between atoms: C5_6  and  N1_7 
REMARK    3  A    between atoms: C6_8  and  C7_9 
REMARK    4  A    between atoms: C11_13  and  C12_14 
REMARK    5  A    between atoms: C13_15  and  C14_16 
REMARK       I    between atoms: C14_16  and  N2_18 
REMARK    6  A    between atoms: N2_18  and  O3_19 
ROOT
ATOM      1  N1  NON d   1     -40.139  21.700  -5.374  0.00  0.00    -0.293 N 
ATOM      2  C6  NON d   1     -40.923  21.267  -4.293  0.00  0.00     0.146 A 
ATOM      3  N3  NON d   1     -41.421  22.312  -3.644  0.00  0.00    -0.228 NA
ATOM      4  C16 NON d   1     -40.955  23.426  -4.260  0.00  0.00     0.086 A 
ATOM      5  C17 NON d   1     -41.187  24.770  -3.926  0.00  0.00     0.034 A 
ATOM      6  C18 NON d   1     -40.550  25.770  -4.665  0.00  0.00     0.002 A 
ATOM      7  C19 NON d   1     -39.688  25.433  -5.705  0.00  0.00     0.002 A 
ATOM      8  C20 NON d   1     -39.454  24.098  -6.051  0.00  0.00     0.032 A 
ATOM      9  C21 NON d   1     -40.134  23.100  -5.327  0.00  0.00     0.070 A 
ENDROOT
BRANCH   2  10
ATOM     10  C7  NON d   1     -41.291  19.904  -3.859  0.00  0.00     0.011 A 
ATOM     11  C8  NON d   1     -40.559  19.112  -2.971  0.00  0.00     0.015 A 
ATOM     12  C9  NON d   1     -40.980  17.813  -2.665  0.00  0.00     0.002 A 
ATOM     13  C10 NON d   1     -42.090  17.255  -3.305  0.00  0.00     0.011 A 
ATOM     14  C11 NON d   1     -42.788  17.990  -4.264  0.00  0.00    -0.035 A 
ATOM     15  C15 NON d   1     -42.410  19.319  -4.489  0.00  0.00     0.026 A 
BRANCH  14  16
ATOM     16  C12 NON d   1     -43.877  17.359  -5.023  0.00  0.00     0.017 C 
ATOM     17  C13 NON d   1     -45.153  17.768  -4.920  0.00  0.00     0.077 C 
BRANCH  17  18
ATOM     18  C14 NON d   1     -46.214  17.153  -5.749  0.00  0.00     0.264 C 
ATOM     19  O2  NON d   1     -46.891  17.775  -6.560  0.00  0.00    -0.266 OA
ATOM     20  N2  NON d   1     -46.388  15.818  -5.501  0.00  0.00    -0.234 N 
ATOM     21  H11 NON d   1     -45.919  15.286  -4.776  0.00  0.00     0.197 HD
BRANCH  20  22
ATOM     22  O3  NON d   1     -47.454  15.183  -6.175  0.00  0.00    -0.287 OA
ATOM     23  H12 NON d   1     -47.804  15.908  -6.737  0.00  0.00     0.244 HD
ENDBRANCH  20  22
ENDBRANCH  17  18
ENDBRANCH  14  16
ENDBRANCH   2  10
BRANCH   1  24
ATOM     24  C5  NON d   1     -39.436  20.932  -6.351  0.00  0.00     0.041 A 
ATOM     25  C4  NON d   1     -38.040  20.903  -6.388  0.00  0.00     0.033 A 
ATOM     26  C3  NON d   1     -37.388  20.139  -7.366  0.00  0.00     0.039 A 
ATOM     27  C2  NON d   1     -38.112  19.431  -8.328  0.00  0.00     0.068 A 
ATOM     28  C23 NON d   1     -39.504  19.461  -8.291  0.00  0.00     0.039 A 
ATOM     29  C22 NON d   1     -40.162  20.203  -7.305  0.00  0.00     0.033 A 
BRANCH  27  30
ATOM     30  O1  NON d   1     -37.357  18.734  -9.231  0.00  0.00    -0.356 OA
ATOM     31  C1  NON d   1     -36.323  19.463  -9.885  0.00  0.00     0.210 C 
ENDBRANCH  27  30
ENDBRANCH   1  24
TORSDOF 6
ENDMDL
MODEL 5
REMARK VINA RESULT:   -13.802      2.253      4.714
REMARK INTER + INTRA:         -17.494
REMARK INTER:                 -15.592
REMARK INTRA:                  -1.902
REMARK CONF_INDEPENDENT:        1.790
REMARK UNBOUND:                -1.902
REMARK  6 active torsions:
REMARK  status: ('A' for Active; 'I' for Inactive)
REMARK    1  A    between atoms: O1_2  and  C2_3 
REMARK    2  A    between atoms: C5_6  and  N1_7 
REMARK    3  A    between atoms: C6_8  and  C7_9 
REMARK    4  A    between atoms: C11_13  and  C12_14 
REMARK    5  A    between atoms: C13_15  and  C14_16 
REMARK       I    between atoms: C14_16  and  N2_18 
REMARK    6  A    between atoms: N2_18  and  O3_19 
ROOT
ATOM      1  N1  NON d   1     -39.850  22.111  -4.568  0.00  0.00    -0.293 N 
ATOM      2  C6  NON d   1     -40.333  21.357  -3.488  0.00  0.00     0.146 A 
ATOM      3  N3  NON d   1     -40.375  22.105  -2.392  0.00  0.00    -0.228 NA
ATOM      4  C16 NON d   1     -39.900  23.331  -2.725  0.00  0.00     0.086 A 
ATOM      5  C17 NON d   1     -39.729  24.454  -1.901  0.00  0.00     0.034 A 
ATOM      6  C18 NON d   1     -39.158  25.609  -2.441  0.00  0.00     0.002 A 
ATOM      7  C19 NON d   1     -38.750  25.634  -3.772  0.00  0.00     0.002 A 
ATOM      8  C20 NON d   1     -38.920  24.522  -4.604  0.00  0.00     0.032 A 
ATOM      9  C21 NON d   1     -39.536  23.379  -4.061  0.00  0.00     0.070 A 
ENDROOT
BRANCH   2  10
ATOM     10  C7  NON d   1     -40.826  19.966  -3.432  0.00  0.00     0.011 A 
ATOM     11  C8  NON d   1     -40.135  18.884  -2.881  0.00  0.00     0.015 A 
ATOM     12  C9  NON d   1     -40.682  17.596  -2.924  0.00  0.00     0.002 A 
ATOM     13  C10 NON d   1     -41.885  17.356  -3.592  0.00  0.00     0.011 A 
ATOM     14  C11 NON d   1     -42.553  18.401  -4.229  0.00  0.00    -0.035 A 
ATOM     15  C15 NON d   1     -42.041  19.697  -4.097  0.00  0.00     0.026 A 
BRANCH  14  16
ATOM     16  C12 NON d   1     -43.752  18.124  -5.033  0.00  0.00     0.017 C 
ATOM     17  C13 NON d   1     -44.687  17.240  -4.645  0.00  0.00     0.077 C 
BRANCH  17  18
ATOM     18  C14 NON d   1     -45.914  17.035  -5.447  0.00  0.00     0.264 C 
ATOM     19  O2  NON d   1     -46.336  17.844  -6.266  0.00  0.00    -0.266 OA
ATOM     20  N2  NON d   1     -46.554  15.858  -5.164  0.00  0.00    -0.234 N 
ATOM     21  H11 NON d   1     -46.296  15.207  -4.432  0.00  0.00     0.197 HD
BRANCH  20  22
ATOM     22  O3  NON d   1     -47.791  15.639  -5.811  0.00  0.00    -0.287 OA
ATOM     23  H12 NON d   1     -47.888  16.454  -6.351  0.00  0.00     0.244 HD
ENDBRANCH  20  22
ENDBRANCH  17  18
ENDBRANCH  14  16
ENDBRANCH   2  10
BRANCH   1  24
ATOM     24  C5  NON d   1     -39.660  21.728  -5.931  0.00  0.00     0.041 A 
ATOM     25  C4  NON d   1     -39.535  22.681  -6.944  0.00  0.00     0.033 A 
ATOM     26  C3  NON d   1     -39.354  22.263  -8.270  0.00  0.00     0.039 A 
ATOM     27  C2  NON d   1     -39.329  20.905  -8.600  0.00  0.00     0.068 A 
ATOM     28  C23 NON d   1     -39.454  19.957  -7.589  0.00  0.00     0.039 A 
ATOM     29  C22 NON d   1     -39.614  20.366  -6.261  0.00  0.00     0.033 A 
BRANCH  27  30
ATOM     30  O1  NON d   1     -39.156  20.631  -9.929  0.00  0.00    -0.356 OA
ATOM     31  C1  NON d   1     -39.143  21.751 -10.809  0.00  0.00     0.210 C 
ENDBRANCH  27  30
ENDBRANCH   1  24
TORSDOF 6
ENDMDL
MODEL 6
REMARK VINA RESULT:   -12.990      2.207      4.692
REMARK INTER + INTRA:         -16.708
REMARK INTER:                 -14.780
REMARK INTRA:                  -1.928
REMARK CONF_INDEPENDENT:        1.790
REMARK UNBOUND:                -1.928
REMARK  6 active torsions:
REMARK  status: ('A' for Active; 'I' for Inactive)
REMARK    1  A    between atoms: O1_2  and  C2_3 
REMARK    2  A    between atoms: C5_6  and  N1_7 
REMARK    3  A    between atoms: C6_8  and  C7_9 
REMARK    4  A    between atoms: C11_13  and  C12_14 
REMARK    5  A    between atoms: C13_15  and  C14_16 
REMARK       I    between atoms: C14_16  and  N2_18 
REMARK    6  A    between atoms: N2_18  and  O3_19 
ROOT
ATOM      1  N1  NON d   1     -40.483  22.637  -4.549  0.00  0.00    -0.293 N 
ATOM      2  C6  NON d   1     -40.681  21.790  -3.448  0.00  0.00     0.146 A 
ATOM      3  N3  NON d   1     -40.947  22.507  -2.363  0.00  0.00    -0.228 NA
ATOM      4  C16 NON d   1     -40.899  23.813  -2.723  0.00  0.00     0.086 A 
ATOM      5  C17 NON d   1     -41.090  24.948  -1.920  0.00  0.00     0.034 A 
ATOM      6  C18 NON d   1     -40.931  26.214  -2.489  0.00  0.00     0.002 A 
ATOM      7  C19 NON d   1     -40.572  26.342  -3.829  0.00  0.00     0.002 A 
ATOM      8  C20 NON d   1     -40.385  25.217  -4.640  0.00  0.00     0.032 A 
ATOM      9  C21 NON d   1     -40.590  23.948  -4.068  0.00  0.00     0.070 A 
ENDROOT
BRANCH   2  10
ATOM     10  C7  NON d   1     -40.696  20.315  -3.361  0.00  0.00     0.011 A 
ATOM     11  C8  NON d   1     -39.634  19.520  -2.925  0.00  0.00     0.015 A 
ATOM     12  C9  NON d   1     -39.744  18.124  -2.927  0.00  0.00     0.002 A 
ATOM     13  C10 NON d   1     -40.884  17.502  -3.443  0.00  0.00     0.011 A 
ATOM     14  C11 NON d   1     -41.924  18.269  -3.968  0.00  0.00    -0.035 A 
ATOM     15  C15 NON d   1     -41.837  19.662  -3.872  0.00  0.00     0.026 A 
BRANCH  14  16
ATOM     16  C12 NON d   1     -43.066  17.610  -4.620  0.00  0.00     0.017 C 
ATOM     17  C13 NON d   1     -44.268  18.201  -4.727  0.00  0.00     0.077 C 
BRANCH  17  18
ATOM     18  C14 NON d   1     -45.376  17.535  -5.448  0.00  0.00     0.264 C 
ATOM     19  O2  NON d   1     -45.941  18.017  -6.423  0.00  0.00    -0.266 OA
ATOM     20  N2  NON d   1     -45.732  16.332  -4.899  0.00  0.00    -0.234 N 
ATOM     21  H11 NON d   1     -45.359  15.941  -4.042  0.00  0.00     0.197 HD
BRANCH  20  22
ATOM     22  O3  NON d   1     -46.853  15.685  -5.466  0.00  0.00    -0.287 OA
ATOM     23  H12 NON d   1     -46.912  16.112  -6.349  0.00  0.00     0.244 HD
ENDBRANCH  20  22
ENDBRANCH  17  18
ENDBRANCH  14  16
ENDBRANCH   2  10
BRANCH   1  24
ATOM     24  C5  NON d   1     -40.199  22.308  -5.909  0.00  0.00     0.041 A 
ATOM     25  C4  NON d   1     -40.621  21.100  -6.469  0.00  0.00     0.033 A 
ATOM     26  C3  NON d   1     -40.318  20.814  -7.807  0.00  0.00     0.039 A 
ATOM     27  C2  NON d   1     -39.571  21.704  -8.584  0.00  0.00     0.068 A 
ATOM     28  C23 NON d   1     -39.151  22.907  -8.024  0.00  0.00     0.039 A 
ATOM     29  C22 NON d   1     -39.467  23.210  -6.695  0.00  0.00     0.033 A 
BRANCH  27  30
ATOM     30  O1  NON d   1     -39.336  21.301  -9.870  0.00  0.00    -0.356 OA
ATOM     31  C1  NON d   1     -38.579  22.192 -10.682  0.00  0.00     0.210 C 
ENDBRANCH  27  30
ENDBRANCH   1  24
TORSDOF 6
ENDMDL
MODEL 7
REMARK VINA RESULT:   -12.829      2.423      3.403
REMARK INTER + INTRA:         -16.621
REMARK INTER:                 -14.618
REMARK INTRA:                  -2.003
REMARK CONF_INDEPENDENT:        1.790
REMARK UNBOUND:                -2.003
REMARK  6 active torsions:
REMARK  status: ('A' for Active; 'I' for Inactive)
REMARK    1  A    between atoms: O1_2  and  C2_3 
REMARK    2  A    between atoms: C5_6  and  N1_7 
REMARK    3  A    between atoms: C6_8  and  C7_9 
REMARK    4  A    between atoms: C11_13  and  C12_14 
REMARK    5  A    between atoms: C13_15  and  C14_16 
REMARK       I    between atoms: C14_16  and  N2_18 
REMARK    6  A    between atoms: N2_18  and  O3_19 
ROOT
ATOM      1  N1  NON d   1     -39.452  22.289  -3.086  0.00  0.00    -0.293 N 
ATOM      2  C6  NON d   1     -40.375  21.497  -3.786  0.00  0.00     0.146 A 
ATOM      3  N3  NON d   1     -40.924  22.198  -4.771  0.00  0.00    -0.228 NA
ATOM      4  C16 NON d   1     -40.400  23.448  -4.713  0.00  0.00     0.086 A 
ATOM      5  C17 NON d   1     -40.685  24.553  -5.530  0.00  0.00     0.034 A 
ATOM      6  C18 NON d   1     -40.071  25.776  -5.252  0.00  0.00     0.002 A 
ATOM      7  C19 NON d   1     -39.203  25.896  -4.170  0.00  0.00     0.002 A 
ATOM      8  C20 NON d   1     -38.907  24.800  -3.353  0.00  0.00     0.032 A 
ATOM      9  C21 NON d   1     -39.498  23.562  -3.667  0.00  0.00     0.070 A 
ENDROOT
BRANCH   2  10
ATOM     10  C7  NON d   1     -40.738  20.074  -3.624  0.00  0.00     0.011 A 
ATOM     11  C8  NON d   1     -39.961  19.111  -2.975  0.00  0.00     0.015 A 
ATOM     12  C9  NON d   1     -40.383  17.777  -2.921  0.00  0.00     0.002 A 
ATOM     13  C10 NON d   1     -41.543  17.371  -3.586  0.00  0.00     0.011 A 
ATOM     14  C11 NON d   1     -42.291  18.293  -4.317  0.00  0.00    -0.035 A 
ATOM     15  C15 NON d   1     -41.906  19.638  -4.284  0.00  0.00     0.026 A 
BRANCH  14  16
ATOM     16  C12 NON d   1     -43.439  17.839  -5.115  0.00  0.00     0.017 C 
ATOM     17  C13 NON d   1     -44.661  17.673  -4.581  0.00  0.00     0.077 C 
BRANCH  17  18
ATOM     18  C14 NON d   1     -45.809  17.278  -5.428  0.00  0.00     0.264 C 
ATOM     19  O2  NON d   1     -46.311  18.006  -6.278  0.00  0.00    -0.266 OA
ATOM     20  N2  NON d   1     -46.281  16.023  -5.149  0.00  0.00    -0.234 N 
ATOM     21  H11 NON d   1     -45.960  15.426  -4.396  0.00  0.00     0.197 HD
BRANCH  20  22
ATOM     22  O3  NON d   1     -47.443  15.615  -5.841  0.00  0.00    -0.287 OA
ATOM     23  H12 NON d   1     -47.513  16.297  -6.545  0.00  0.00     0.244 HD
ENDBRANCH  20  22
ENDBRANCH  17  18
ENDBRANCH  14  16
ENDBRANCH   2  10
BRANCH   1  24
ATOM     24  C5  NON d   1     -38.618  21.947  -1.979  0.00  0.00     0.041 A 
ATOM     25  C4  NON d   1     -39.145  21.765  -0.699  0.00  0.00     0.033 A 
ATOM     26  C3  NON d   1     -38.291  21.434   0.362  0.00  0.00     0.039 A 
ATOM     27  C2  NON d   1     -36.912  21.315   0.167  0.00  0.00     0.068 A 
ATOM     28  C23 NON d   1     -36.388  21.497  -1.109  0.00  0.00     0.039 A 
ATOM     29  C22 NON d   1     -37.236  21.807  -2.178  0.00  0.00     0.033 A 
BRANCH  27  30
ATOM     30  O1  NON d   1     -36.190  20.998   1.285  0.00  0.00    -0.356 OA
ATOM     31  C1  NON d   1     -36.755  21.384   2.533  0.00  0.00     0.210 C 
ENDBRANCH  27  30
ENDBRANCH   1  24
TORSDOF 6
ENDMDL
MODEL 8
REMARK VINA RESULT:   -12.753      1.772      2.259
REMARK INTER + INTRA:         -16.531
REMARK INTER:                 -14.542
REMARK INTRA:                  -1.989
REMARK CONF_INDEPENDENT:        1.790
REMARK UNBOUND:                -1.989
REMARK  6 active torsions:
REMARK  status: ('A' for Active; 'I' for Inactive)
REMARK    1  A    between atoms: O1_2  and  C2_3 
REMARK    2  A    between atoms: C5_6  and  N1_7 
REMARK    3  A    between atoms: C6_8  and  C7_9 
REMARK    4  A    between atoms: C11_13  and  C12_14 
REMARK    5  A    between atoms: C13_15  and  C14_16 
REMARK       I    between atoms: C14_16  and  N2_18 
REMARK    6  A    between atoms: N2_18  and  O3_19 
ROOT
ATOM      1  N1  NON d   1     -39.302  20.958  -5.689  0.00  0.00    -0.293 N 
ATOM      2  C6  NON d   1     -40.320  20.011  -5.874  0.00  0.00     0.146 A 
ATOM      3  N3  NON d   1     -40.642  19.933  -7.160  0.00  0.00    -0.228 NA
ATOM      4  C16 NON d   1     -39.874  20.834  -7.821  0.00  0.00     0.086 A 
ATOM      5  C17 NON d   1     -39.865  21.135  -9.192  0.00  0.00     0.034 A 
ATOM      6  C18 NON d   1     -39.030  22.154  -9.655  0.00  0.00     0.002 A 
ATOM      7  C19 NON d   1     -38.231  22.867  -8.764  0.00  0.00     0.002 A 
ATOM      8  C20 NON d   1     -38.227  22.571  -7.397  0.00  0.00     0.032 A 
ATOM      9  C21 NON d   1     -39.040  21.515  -6.947  0.00  0.00     0.070 A 
ENDROOT
BRANCH   2  10
ATOM     10  C7  NON d   1     -40.983  19.111  -4.908  0.00  0.00     0.011 A 
ATOM     11  C8  NON d   1     -40.485  18.771  -3.648  0.00  0.00     0.015 A 
ATOM     12  C9  NON d   1     -41.177  17.869  -2.831  0.00  0.00     0.002 A 
ATOM     13  C10 NON d   1     -42.330  17.229  -3.295  0.00  0.00     0.011 A 
ATOM     14  C11 NON d   1     -42.800  17.481  -4.583  0.00  0.00    -0.035 A 
ATOM     15  C15 NON d   1     -42.150  18.454  -5.351  0.00  0.00     0.026 A 
BRANCH  14  16
ATOM     16  C12 NON d   1     -43.939  16.716  -5.112  0.00  0.00     0.017 C 
ATOM     17  C13 NON d   1     -45.212  17.106  -4.925  0.00  0.00     0.077 C 
BRANCH  17  18
ATOM     18  C14 NON d   1     -46.331  16.348  -5.528  0.00  0.00     0.264 C 
ATOM     19  O2  NON d   1     -46.309  15.137  -5.719  0.00  0.00    -0.266 OA
ATOM     20  N2  NON d   1     -47.392  17.139  -5.881  0.00  0.00    -0.234 N 
ATOM     21  H11 NON d   1     -47.417  18.151  -5.828  0.00  0.00     0.197 HD
BRANCH  20  22
ATOM     22  O3  NON d   1     -48.456  16.505  -6.559  0.00  0.00    -0.287 OA
ATOM     23  H12 NON d   1     -48.104  15.597  -6.691  0.00  0.00     0.244 HD
ENDBRANCH  20  22
ENDBRANCH  17  18
ENDBRANCH  14  16
ENDBRANCH   2  10
BRANCH   1  24
ATOM     24  C5  NON d   1     -38.635  21.351  -4.489  0.00  0.00     0.041 A 
ATOM     25  C4  NON d   1     -38.951  22.545  -3.838  0.00  0.00     0.033 A 
ATOM     26  C3  NON d   1     -38.270  22.897  -2.664  0.00  0.00     0.039 A 
ATOM     27  C2  NON d   1     -37.254  22.086  -2.151  0.00  0.00     0.068 A 
ATOM     28  C23 NON d   1     -36.939  20.896  -2.801  0.00  0.00     0.039 A 
ATOM     29  C22 NON d   1     -37.629  20.528  -3.961  0.00  0.00     0.033 A 
BRANCH  27  30
ATOM     30  O1  NON d   1     -36.662  22.547  -1.007  0.00  0.00    -0.356 OA
ATOM     31  C1  NON d   1     -37.342  22.268   0.213  0.00  0.00     0.210 C 
ENDBRANCH  27  30
ENDBRANCH   1  24
TORSDOF 6
ENDMDL
