MODEL 1
REMARK VINA RESULT:   -35.613      0.000      0.000
REMARK INTER + INTRA:         -40.381
REMARK INTER:                 -38.894
REMARK INTRA:                  -1.487
REMARK CONF_INDEPENDENT:        3.281
REMARK UNBOUND:                -1.487
REMARK  11 active torsions:
REMARK  status: ('A' for Active; 'I' for Inactive)
REMARK    1  A    between atoms: C1_2  and  C2_3 
REMARK       I    between atoms: C1_2  and  N2_24 
REMARK    2  A    between atoms: C2_3  and  C3_4 
REMARK    3  A    between atoms: C3_4  and  C4_5 
REMARK    4  A    between atoms: C4_5  and  C5_6 
REMARK    5  A    between atoms: C5_6  and  C6_7 
REMARK    6  A    between atoms: C6_7  and  C7_8 
REMARK    7  A    between atoms: C7_8  and  C8_9 
REMARK    8  A    between atoms: C8_9  and  C9_12 
REMARK    9  A    between atoms: N1_10  and  O2_11 
REMARK   10  A    between atoms: C12_15  and  C13_16 
REMARK   11  A    between atoms: N2_24  and  O3_25 
ROOT
ATOM      1  C8  NON d   1     -46.562  16.623  -4.696  0.00  0.00     0.071 C 
ATOM      2  N1  NON d   1     -47.065  16.504  -5.899  0.00  0.00    -0.140 NA
ENDROOT
BRANCH   1   3
ATOM      3  C7  NON d   1     -47.354  16.057  -3.489  0.00  0.00     0.062 C 
BRANCH   3   4
ATOM      4  C6  NON d   1     -47.874  16.919  -2.353  0.00  0.00     0.006 C 
BRANCH   4   5
ATOM      5  C5  NON d   1     -49.251  16.517  -1.806  0.00  0.00     0.000 C 
BRANCH   5   6
ATOM      6  C4  NON d   1     -50.400  16.588  -2.821  0.00  0.00     0.000 C 
BRANCH   6   7
ATOM      7  C3  NON d   1     -51.664  17.243  -2.258  0.00  0.00     0.009 C 
BRANCH   7   8
ATOM      8  C2  NON d   1     -52.910  16.374  -2.441  0.00  0.00     0.105 C 
BRANCH   8   9
ATOM      9  C1  NON d   1     -54.220  17.142  -2.492  0.00  0.00     0.240 C 
ATOM     10  O1  NON d   1     -54.904  17.273  -3.500  0.00  0.00    -0.271 OA
ATOM     11  N2  NON d   1     -54.562  17.628  -1.241  0.00  0.00    -0.237 N 
ATOM     12  H23 NON d   1     -53.836  17.802  -0.553  0.00  0.00     0.197 HD
BRANCH  11  13
ATOM     13  O3  NON d   1     -55.642  18.538  -1.211  0.00  0.00    -0.287 OA
ATOM     14  H24 NON d   1     -56.220  18.189  -1.917  0.00  0.00     0.244 HD
ENDBRANCH  11  13
ENDBRANCH   8   9
ENDBRANCH   7   8
ENDBRANCH   6   7
ENDBRANCH   5   6
ENDBRANCH   4   5
ENDBRANCH   3   4
ENDBRANCH   1   3
BRANCH   1  15
ATOM     15  C9  NON d   1     -45.194  17.287  -4.610  0.00  0.00    -0.009 A 
ATOM     16  C10 NON d   1     -44.814  18.472  -5.218  0.00  0.00     0.014 A 
ATOM     17  C11 NON d   1     -43.516  19.002  -5.068  0.00  0.00     0.013 A 
ATOM     18  C12 NON d   1     -42.517  18.378  -4.303  0.00  0.00    -0.026 A 
ATOM     19  C19 NON d   1     -42.910  17.178  -3.690  0.00  0.00     0.013 A 
ATOM     20  C20 NON d   1     -44.208  16.648  -3.836  0.00  0.00     0.014 A 
BRANCH  18  21
ATOM     21  C13 NON d   1     -41.141  18.959  -4.161  0.00  0.00    -0.026 A 
ATOM     22  C14 NON d   1     -40.641  19.410  -2.920  0.00  0.00     0.012 A 
ATOM     23  C15 NON d   1     -39.355  19.950  -2.777  0.00  0.00     0.001 A 
ATOM     24  C16 NON d   1     -38.521  20.065  -3.878  0.00  0.00     0.000 A 
ATOM     25  C17 NON d   1     -38.974  19.636  -5.119  0.00  0.00     0.001 A 
ATOM     26  C18 NON d   1     -40.261  19.092  -5.254  0.00  0.00     0.012 A 
ENDBRANCH  18  21
ENDBRANCH   1  15
BRANCH   2  27
ATOM     27  O2  NON d   1     -48.304  15.853  -5.912  0.00  0.00    -0.266 OA
ATOM     28  H13 NON d   1     -48.724  16.221  -6.712  0.00  0.00     0.247 HD
ENDBRANCH   2  27
TORSDOF 11
ENDMDL
