MODEL 1
REMARK VINA RESULT:   -34.737      0.000      0.000
REMARK INTER + INTRA:         -38.109
REMARK INTER:                 -37.123
REMARK INTRA:                  -0.986
REMARK CONF_INDEPENDENT:        2.386
REMARK UNBOUND:                -0.986
REMARK  8 active torsions:
REMARK  status: ('A' for Active; 'I' for Inactive)
REMARK    1  A    between atoms: C5_5  and  N1_6 
REMARK       I    between atoms: N1_6  and  C6_7 
REMARK    2  A    between atoms: C6_7  and  C7_9 
REMARK    3  A    between atoms: C10_12  and  C11_13 
REMARK       I    between atoms: C11_13  and  N2_15 
REMARK    4  A    between atoms: N2_15  and  C12_16 
REMARK    5  A    between atoms: C17_21  and  N3_22 
REMARK    6  A    between atoms: C21_26  and  N4_27 
REMARK    7  A    between atoms: N4_27  and  C22_28 
REMARK    8  A    between atoms: C24_31  and  C25_32 
ROOT
ATOM      1  N1  NON d   1     -40.825  21.546  -4.614  0.00  0.00    -0.323 N 
ATOM      2  C6  NON d   1     -40.571  20.207  -4.893  0.00  0.00     0.256 C 
ATOM      3  O1  NON d   1     -39.473  19.766  -5.231  0.00  0.00    -0.267 OA
ATOM      4  H6  NON d   1     -41.770  21.826  -4.395  0.00  0.00     0.169 HD
ENDROOT
BRANCH   1   5
ATOM      5  C5  NON d   1     -39.840  22.584  -4.596  0.00  0.00     0.037 A 
ATOM      6  C4  NON d   1     -38.607  22.484  -5.246  0.00  0.00     0.030 A 
ATOM      7  C3  NON d   1     -37.670  23.517  -5.201  0.00  0.00     0.011 A 
ATOM      8  C2  NON d   1     -37.939  24.688  -4.489  0.00  0.00    -0.035 A 
ATOM      9  C1  NON d   1     -36.906  25.829  -4.436  0.00  0.00     0.050 C 
ATOM     10  C21 NON d   1     -39.176  24.838  -3.816  0.00  0.00     0.057 A 
ATOM     11  C20 NON d   1     -40.107  23.766  -3.882  0.00  0.00     0.060 A 
BRANCH  10  12
ATOM     12  N4  NON d   1     -39.578  26.001  -3.090  0.00  0.00    -0.188 N 
ATOM     13  H19 NON d   1     -38.925  26.759  -3.266  0.00  0.00     0.184 HD
BRANCH  12  14
ATOM     14  C22 NON d   1     -39.939  26.149  -1.740  0.00  0.00     0.726 A 
ATOM     15  N5  NON d   1     -39.050  25.703  -0.836  0.00  0.00    -0.074 NA
ATOM     16  C23 NON d   1     -39.450  25.660   0.461  0.00  0.00     0.150 A 
ATOM     17  C24 NON d   1     -40.694  26.050   0.916  0.00  0.00     0.012 A 
ATOM     18  C30 NON d   1     -41.475  26.602  -0.081  0.00  0.00     0.150 A 
ATOM     19  N7  NON d   1     -41.121  26.674  -1.387  0.00  0.00    -0.074 NA
BRANCH  17  20
ATOM     20  C25 NON d   1     -41.172  25.829   2.286  0.00  0.00    -0.005 A 
ATOM     21  C26 NON d   1     -40.690  24.803   3.105  0.00  0.00     0.015 A 
ATOM     22  C27 NON d   1     -41.203  24.628   4.394  0.00  0.00     0.020 A 
ATOM     23  C28 NON d   1     -42.193  25.486   4.835  0.00  0.00     0.116 A 
ATOM     24  N6  NON d   1     -42.693  26.488   4.083  0.00  0.00    -0.272 NA
ATOM     25  C29 NON d   1     -42.177  26.631   2.838  0.00  0.00     0.128 A 
ENDBRANCH  17  20
ENDBRANCH  12  14
ENDBRANCH  10  12
ENDBRANCH   1   5
BRANCH   2  26
ATOM     26  C7  NON d   1     -41.675  19.192  -4.788  0.00  0.00     0.032 A 
ATOM     27  C8  NON d   1     -42.913  19.597  -5.313  0.00  0.00     0.018 A 
ATOM     28  C9  NON d   1     -44.037  18.774  -5.261  0.00  0.00     0.018 A 
ATOM     29  C10 NON d   1     -43.979  17.500  -4.683  0.00  0.00     0.032 A 
ATOM     30  C18 NON d   1     -42.750  17.078  -4.150  0.00  0.00     0.018 A 
ATOM     31  C19 NON d   1     -41.602  17.918  -4.203  0.00  0.00     0.018 A 
BRANCH  29  32
ATOM     32  C11 NON d   1     -45.254  16.705  -4.737  0.00  0.00     0.256 C 
ATOM     33  O2  NON d   1     -45.362  15.903  -5.662  0.00  0.00    -0.267 OA
ATOM     34  N2  NON d   1     -46.212  16.906  -3.759  0.00  0.00    -0.321 N 
ATOM     35  H9  NON d   1     -46.055  17.572  -3.016  0.00  0.00     0.169 HD
BRANCH  34  36
ATOM     36  C12 NON d   1     -47.509  16.308  -3.726  0.00  0.00     0.056 A 
ATOM     37  C13 NON d   1     -48.209  16.038  -2.545  0.00  0.00     0.031 A 
ATOM     38  C14 NON d   1     -49.445  15.382  -2.572  0.00  0.00     0.002 A 
ATOM     39  C15 NON d   1     -49.990  14.973  -3.781  0.00  0.00     0.002 A 
ATOM     40  C16 NON d   1     -49.311  15.236  -4.970  0.00  0.00     0.025 A 
ATOM     41  C17 NON d   1     -48.094  15.936  -4.955  0.00  0.00     0.033 A 
BRANCH  41  42
ATOM     42  N3  NON d   1     -47.440  16.211  -6.185  0.00  0.00    -0.301 NA
ATOM     43  H14 NON d   1     -46.845  15.425  -6.440  0.00  0.00     0.124 HD
ATOM     44  H15 NON d   1     -46.882  17.062  -6.129  0.00  0.00     0.124 HD
ENDBRANCH  41  42
ENDBRANCH  34  36
ENDBRANCH  29  32
ENDBRANCH   2  26
TORSDOF 8
ENDMDL
MODEL 2
REMARK VINA RESULT:   -34.488      0.867      1.187
REMARK INTER + INTRA:         -38.326
REMARK INTER:                 -36.874
REMARK INTRA:                  -1.452
REMARK CONF_INDEPENDENT:        2.386
REMARK UNBOUND:                -1.452
REMARK  8 active torsions:
REMARK  status: ('A' for Active; 'I' for Inactive)
REMARK    1  A    between atoms: C5_5  and  N1_6 
REMARK       I    between atoms: N1_6  and  C6_7 
REMARK    2  A    between atoms: C6_7  and  C7_9 
REMARK    3  A    between atoms: C10_12  and  C11_13 
REMARK       I    between atoms: C11_13  and  N2_15 
REMARK    4  A    between atoms: N2_15  and  C12_16 
REMARK    5  A    between atoms: C17_21  and  N3_22 
REMARK    6  A    between atoms: C21_26  and  N4_27 
REMARK    7  A    between atoms: N4_27  and  C22_28 
REMARK    8  A    between atoms: C24_31  and  C25_32 
ROOT
ATOM      1  N1  NON d   1     -40.613  21.533  -4.652  0.00  0.00    -0.323 N 
ATOM      2  C6  NON d   1     -40.526  20.375  -5.419  0.00  0.00     0.256 C 
ATOM      3  O1  NON d   1     -39.600  20.121  -6.189  0.00  0.00    -0.267 OA
ATOM      4  H6  NON d   1     -41.436  21.681  -4.088  0.00  0.00     0.169 HD
ENDROOT
BRANCH   1   5
ATOM      5  C5  NON d   1     -39.609  22.549  -4.583  0.00  0.00     0.037 A 
ATOM      6  C4  NON d   1     -38.923  23.031  -5.702  0.00  0.00     0.030 A 
ATOM      7  C3  NON d   1     -37.945  24.020  -5.592  0.00  0.00     0.011 A 
ATOM      8  C2  NON d   1     -37.617  24.557  -4.345  0.00  0.00    -0.035 A 
ATOM      9  C1  NON d   1     -36.537  25.648  -4.220  0.00  0.00     0.050 C 
ATOM     10  C21 NON d   1     -38.285  24.104  -3.182  0.00  0.00     0.057 A 
ATOM     11  C20 NON d   1     -39.274  23.094  -3.329  0.00  0.00     0.060 A 
BRANCH  10  12
ATOM     12  N4  NON d   1     -38.062  24.603  -1.862  0.00  0.00    -0.188 N 
ATOM     13  H19 NON d   1     -37.216  24.193  -1.477  0.00  0.00     0.184 HD
BRANCH  12  14
ATOM     14  C22 NON d   1     -38.938  24.701  -0.768  0.00  0.00     0.726 A 
ATOM     15  N5  NON d   1     -39.848  25.690  -0.824  0.00  0.00    -0.074 NA
ATOM     16  C23 NON d   1     -40.579  25.926   0.296  0.00  0.00     0.150 A 
ATOM     17  C24 NON d   1     -40.462  25.220   1.477  0.00  0.00     0.012 A 
ATOM     18  C30 NON d   1     -39.588  24.157   1.376  0.00  0.00     0.150 A 
ATOM     19  N7  NON d   1     -38.840  23.873   0.282  0.00  0.00    -0.074 NA
BRANCH  17  20
ATOM     20  C25 NON d   1     -41.126  25.602   2.729  0.00  0.00    -0.005 A 
ATOM     21  C26 NON d   1     -41.025  24.852   3.905  0.00  0.00     0.015 A 
ATOM     22  C27 NON d   1     -41.701  25.254   5.061  0.00  0.00     0.020 A 
ATOM     23  C28 NON d   1     -42.471  26.401   5.012  0.00  0.00     0.116 A 
ATOM     24  N6  NON d   1     -42.604  27.157   3.903  0.00  0.00    -0.272 NA
ATOM     25  C29 NON d   1     -41.937  26.740   2.799  0.00  0.00     0.128 A 
ENDBRANCH  17  20
ENDBRANCH  12  14
ENDBRANCH  10  12
ENDBRANCH   1   5
BRANCH   2  26
ATOM     26  C7  NON d   1     -41.607  19.333  -5.336  0.00  0.00     0.032 A 
ATOM     27  C8  NON d   1     -42.892  19.825  -5.056  0.00  0.00     0.018 A 
ATOM     28  C9  NON d   1     -43.989  18.975  -4.920  0.00  0.00     0.018 A 
ATOM     29  C10 NON d   1     -43.857  17.589  -5.061  0.00  0.00     0.032 A 
ATOM     30  C18 NON d   1     -42.579  17.077  -5.339  0.00  0.00     0.018 A 
ATOM     31  C19 NON d   1     -41.459  17.944  -5.478  0.00  0.00     0.018 A 
BRANCH  29  32
ATOM     32  C11 NON d   1     -45.131  16.800  -4.934  0.00  0.00     0.256 C 
ATOM     33  O2  NON d   1     -45.290  15.881  -5.735  0.00  0.00    -0.267 OA
ATOM     34  N2  NON d   1     -46.031  17.134  -3.938  0.00  0.00    -0.321 N 
ATOM     35  H9  NON d   1     -45.832  17.893  -3.301  0.00  0.00     0.169 HD
BRANCH  34  36
ATOM     36  C12 NON d   1     -47.322  16.553  -3.749  0.00  0.00     0.056 A 
ATOM     37  C13 NON d   1     -47.930  16.402  -2.498  0.00  0.00     0.031 A 
ATOM     38  C14 NON d   1     -49.165  15.757  -2.368  0.00  0.00     0.002 A 
ATOM     39  C15 NON d   1     -49.800  15.238  -3.488  0.00  0.00     0.002 A 
ATOM     40  C16 NON d   1     -49.214  15.380  -4.744  0.00  0.00     0.025 A 
ATOM     41  C17 NON d   1     -47.998  16.069  -4.889  0.00  0.00     0.033 A 
BRANCH  41  42
ATOM     42  N3  NON d   1     -47.440  16.219  -6.185  0.00  0.00    -0.301 NA
ATOM     43  H14 NON d   1     -46.783  15.463  -6.366  0.00  0.00     0.124 HD
ATOM     44  H15 NON d   1     -46.968  17.117  -6.287  0.00  0.00     0.124 HD
ENDBRANCH  41  42
ENDBRANCH  34  36
ENDBRANCH  29  32
ENDBRANCH   2  26
TORSDOF 8
ENDMDL
MODEL 3
REMARK VINA RESULT:   -33.764      5.266      8.663
REMARK INTER + INTRA:         -37.715
REMARK INTER:                 -36.150
REMARK INTRA:                  -1.565
REMARK CONF_INDEPENDENT:        2.386
REMARK UNBOUND:                -1.565
REMARK  8 active torsions:
REMARK  status: ('A' for Active; 'I' for Inactive)
REMARK    1  A    between atoms: C5_5  and  N1_6 
REMARK       I    between atoms: N1_6  and  C6_7 
REMARK    2  A    between atoms: C6_7  and  C7_9 
REMARK    3  A    between atoms: C10_12  and  C11_13 
REMARK       I    between atoms: C11_13  and  N2_15 
REMARK    4  A    between atoms: N2_15  and  C12_16 
REMARK    5  A    between atoms: C17_21  and  N3_22 
REMARK    6  A    between atoms: C21_26  and  N4_27 
REMARK    7  A    between atoms: N4_27  and  C22_28 
REMARK    8  A    between atoms: C24_31  and  C25_32 
ROOT
ATOM      1  N1  NON d   1     -40.502  21.059  -6.235  0.00  0.00    -0.323 N 
ATOM      2  C6  NON d   1     -40.534  20.266  -5.092  0.00  0.00     0.256 C 
ATOM      3  O1  NON d   1     -39.704  20.322  -4.185  0.00  0.00    -0.267 OA
ATOM      4  H6  NON d   1     -41.195  20.906  -6.952  0.00  0.00     0.169 HD
ENDROOT
BRANCH   1   5
ATOM      5  C5  NON d   1     -39.558  22.105  -6.482  0.00  0.00     0.037 A 
ATOM      6  C4  NON d   1     -38.272  22.127  -5.935  0.00  0.00     0.030 A 
ATOM      7  C3  NON d   1     -37.382  23.169  -6.196  0.00  0.00     0.011 A 
ATOM      8  C2  NON d   1     -37.759  24.235  -7.016  0.00  0.00    -0.035 A 
ATOM      9  C1  NON d   1     -36.780  25.387  -7.305  0.00  0.00     0.050 C 
ATOM     10  C21 NON d   1     -39.051  24.258  -7.596  0.00  0.00     0.057 A 
ATOM     11  C20 NON d   1     -39.933  23.181  -7.308  0.00  0.00     0.060 A 
BRANCH  10  12
ATOM     12  N4  NON d   1     -39.535  25.272  -8.478  0.00  0.00    -0.188 N 
ATOM     13  H19 NON d   1     -40.367  25.702  -8.084  0.00  0.00     0.184 HD
BRANCH  12  14
ATOM     14  C22 NON d   1     -39.776  25.233  -9.862  0.00  0.00     0.726 A 
ATOM     15  N5  NON d   1     -39.755  26.416 -10.501  0.00  0.00    -0.074 NA
ATOM     16  C23 NON d   1     -40.169  26.431 -11.794  0.00  0.00     0.150 A 
ATOM     17  C24 NON d   1     -40.598  25.324 -12.498  0.00  0.00     0.012 A 
ATOM     18  C30 NON d   1     -40.461  24.152 -11.780  0.00  0.00     0.150 A 
ATOM     19  N7  NON d   1     -40.047  24.081 -10.492  0.00  0.00    -0.074 NA
BRANCH  17  20
ATOM     20  C25 NON d   1     -41.210  25.386 -13.831  0.00  0.00    -0.005 A 
ATOM     21  C26 NON d   1     -40.754  24.629 -14.915  0.00  0.00     0.015 A 
ATOM     22  C27 NON d   1     -41.363  24.750 -16.168  0.00  0.00     0.020 A 
ATOM     23  C28 NON d   1     -42.418  25.632 -16.308  0.00  0.00     0.116 A 
ATOM     24  N6  NON d   1     -42.893  26.386 -15.295  0.00  0.00    -0.272 NA
ATOM     25  C29 NON d   1     -42.281  26.248 -14.095  0.00  0.00     0.128 A 
ENDBRANCH  17  20
ENDBRANCH  12  14
ENDBRANCH  10  12
ENDBRANCH   1   5
BRANCH   2  26
ATOM     26  C7  NON d   1     -41.635  19.259  -4.904  0.00  0.00     0.032 A 
ATOM     27  C8  NON d   1     -42.846  19.570  -5.543  0.00  0.00     0.018 A 
ATOM     28  C9  NON d   1     -43.965  18.745  -5.435  0.00  0.00     0.018 A 
ATOM     29  C10 NON d   1     -43.928  17.564  -4.684  0.00  0.00     0.032 A 
ATOM     30  C18 NON d   1     -42.727  17.237  -4.035  0.00  0.00     0.018 A 
ATOM     31  C19 NON d   1     -41.584  18.078  -4.145  0.00  0.00     0.018 A 
BRANCH  29  32
ATOM     32  C11 NON d   1     -45.194  16.751  -4.693  0.00  0.00     0.256 C 
ATOM     33  O2  NON d   1     -45.284  15.888  -5.563  0.00  0.00    -0.267 OA
ATOM     34  N2  NON d   1     -46.161  17.004  -3.736  0.00  0.00    -0.321 N 
ATOM     35  H9  NON d   1     -46.016  17.719  -3.038  0.00  0.00     0.169 HD
BRANCH  34  36
ATOM     36  C12 NON d   1     -47.450  16.393  -3.671  0.00  0.00     0.056 A 
ATOM     37  C13 NON d   1     -48.118  16.115  -2.474  0.00  0.00     0.031 A 
ATOM     38  C14 NON d   1     -49.348  15.447  -2.470  0.00  0.00     0.002 A 
ATOM     39  C15 NON d   1     -49.917  15.032  -3.666  0.00  0.00     0.002 A 
ATOM     40  C16 NON d   1     -49.270  15.302  -4.871  0.00  0.00     0.025 A 
ATOM     41  C17 NON d   1     -48.060  16.014  -4.886  0.00  0.00     0.033 A 
BRANCH  41  42
ATOM     42  N3  NON d   1     -47.440  16.295  -6.131  0.00  0.00    -0.301 NA
ATOM     43  H14 NON d   1     -46.950  15.467  -6.465  0.00  0.00     0.124 HD
ATOM     44  H15 NON d   1     -46.788  17.075  -6.056  0.00  0.00     0.124 HD
ENDBRANCH  41  42
ENDBRANCH  34  36
ENDBRANCH  29  32
ENDBRANCH   2  26
TORSDOF 8
ENDMDL
MODEL 4
REMARK VINA RESULT:   -33.459      4.012      7.678
REMARK INTER + INTRA:         -37.317
REMARK INTER:                 -35.845
REMARK INTRA:                  -1.472
REMARK CONF_INDEPENDENT:        2.386
REMARK UNBOUND:                -1.472
REMARK  8 active torsions:
REMARK  status: ('A' for Active; 'I' for Inactive)
REMARK    1  A    between atoms: C5_5  and  N1_6 
REMARK       I    between atoms: N1_6  and  C6_7 
REMARK    2  A    between atoms: C6_7  and  C7_9 
REMARK    3  A    between atoms: C10_12  and  C11_13 
REMARK       I    between atoms: C11_13  and  N2_15 
REMARK    4  A    between atoms: N2_15  and  C12_16 
REMARK    5  A    between atoms: C17_21  and  N3_22 
REMARK    6  A    between atoms: C21_26  and  N4_27 
REMARK    7  A    between atoms: N4_27  and  C22_28 
REMARK    8  A    between atoms: C24_31  and  C25_32 
ROOT
ATOM      1  N1  NON d   1     -40.478  21.474  -4.166  0.00  0.00    -0.323 N 
ATOM      2  C6  NON d   1     -40.489  20.311  -4.930  0.00  0.00     0.256 C 
ATOM      3  O1  NON d   1     -39.627  20.016  -5.757  0.00  0.00    -0.267 OA
ATOM      4  H6  NON d   1     -41.255  21.658  -3.550  0.00  0.00     0.169 HD
ENDROOT
BRANCH   1   5
ATOM      5  C5  NON d   1     -39.430  22.448  -4.168  0.00  0.00     0.037 A 
ATOM      6  C4  NON d   1     -38.701  22.796  -3.027  0.00  0.00     0.030 A 
ATOM      7  C3  NON d   1     -37.689  23.756  -3.069  0.00  0.00     0.011 A 
ATOM      8  C2  NON d   1     -37.380  24.408  -4.264  0.00  0.00    -0.035 A 
ATOM      9  C1  NON d   1     -36.265  25.469  -4.314  0.00  0.00     0.050 C 
ATOM     10  C21 NON d   1     -38.088  24.089  -5.448  0.00  0.00     0.057 A 
ATOM     11  C20 NON d   1     -39.113  23.107  -5.370  0.00  0.00     0.060 A 
BRANCH  10  12
ATOM     12  N4  NON d   1     -37.836  24.660  -6.733  0.00  0.00    -0.188 N 
ATOM     13  H19 NON d   1     -37.782  25.672  -6.655  0.00  0.00     0.184 HD
BRANCH  12  14
ATOM     14  C22 NON d   1     -38.467  24.433  -7.968  0.00  0.00     0.726 A 
ATOM     15  N5  NON d   1     -37.670  24.041  -8.977  0.00  0.00    -0.074 NA
ATOM     16  C23 NON d   1     -38.217  23.997 -10.220  0.00  0.00     0.150 A 
ATOM     17  C24 NON d   1     -39.528  24.314 -10.516  0.00  0.00     0.012 A 
ATOM     18  C30 NON d   1     -40.277  24.582  -9.388  0.00  0.00     0.150 A 
ATOM     19  N7  NON d   1     -39.784  24.632  -8.128  0.00  0.00    -0.074 NA
BRANCH  17  20
ATOM     20  C25 NON d   1     -40.053  24.436 -11.882  0.00  0.00    -0.005 A 
ATOM     21  C26 NON d   1     -40.782  25.545 -12.321  0.00  0.00     0.015 A 
ATOM     22  C27 NON d   1     -41.278  25.593 -13.627  0.00  0.00     0.020 A 
ATOM     23  C28 NON d   1     -41.034  24.522 -14.467  0.00  0.00     0.116 A 
ATOM     24  N6  NON d   1     -40.339  23.428 -14.091  0.00  0.00    -0.272 NA
ATOM     25  C29 NON d   1     -39.874  23.412 -12.819  0.00  0.00     0.128 A 
ENDBRANCH  17  20
ENDBRANCH  12  14
ENDBRANCH  10  12
ENDBRANCH   1   5
BRANCH   2  26
ATOM     26  C7  NON d   1     -41.605  19.315  -4.771  0.00  0.00     0.032 A 
ATOM     27  C8  NON d   1     -42.784  19.621  -5.469  0.00  0.00     0.018 A 
ATOM     28  C9  NON d   1     -43.913  18.806  -5.394  0.00  0.00     0.018 A 
ATOM     29  C10 NON d   1     -43.918  17.641  -4.618  0.00  0.00     0.032 A 
ATOM     30  C18 NON d   1     -42.749  17.320  -3.910  0.00  0.00     0.018 A 
ATOM     31  C19 NON d   1     -41.596  18.151  -3.986  0.00  0.00     0.018 A 
BRANCH  29  32
ATOM     32  C11 NON d   1     -45.188  16.836  -4.666  0.00  0.00     0.256 C 
ATOM     33  O2  NON d   1     -45.310  16.060  -5.612  0.00  0.00    -0.267 OA
ATOM     34  N2  NON d   1     -46.125  16.999  -3.661  0.00  0.00    -0.321 N 
ATOM     35  H9  NON d   1     -45.956  17.644  -2.902  0.00  0.00     0.169 HD
BRANCH  34  36
ATOM     36  C12 NON d   1     -47.415  16.388  -3.615  0.00  0.00     0.056 A 
ATOM     37  C13 NON d   1     -48.068  16.040  -2.428  0.00  0.00     0.031 A 
ATOM     38  C14 NON d   1     -49.299  15.375  -2.448  0.00  0.00     0.002 A 
ATOM     39  C15 NON d   1     -49.887  15.035  -3.660  0.00  0.00     0.002 A 
ATOM     40  C16 NON d   1     -49.255  15.376  -4.854  0.00  0.00     0.025 A 
ATOM     41  C17 NON d   1     -48.043  16.085  -4.843  0.00  0.00     0.033 A 
BRANCH  41  42
ATOM     42  N3  NON d   1     -47.439  16.440  -6.077  0.00  0.00    -0.301 NA
ATOM     43  H14 NON d   1     -46.742  15.743  -6.331  0.00  0.00     0.124 HD
ATOM     44  H15 NON d   1     -47.004  17.361  -6.029  0.00  0.00     0.124 HD
ENDBRANCH  41  42
ENDBRANCH  34  36
ENDBRANCH  29  32
ENDBRANCH   2  26
TORSDOF 8
ENDMDL
MODEL 5
REMARK VINA RESULT:   -33.029      3.340      6.746
REMARK INTER + INTRA:         -36.182
REMARK INTER:                 -35.416
REMARK INTRA:                  -0.766
REMARK CONF_INDEPENDENT:        2.386
REMARK UNBOUND:                -0.766
REMARK  8 active torsions:
REMARK  status: ('A' for Active; 'I' for Inactive)
REMARK    1  A    between atoms: C5_5  and  N1_6 
REMARK       I    between atoms: N1_6  and  C6_7 
REMARK    2  A    between atoms: C6_7  and  C7_9 
REMARK    3  A    between atoms: C10_12  and  C11_13 
REMARK       I    between atoms: C11_13  and  N2_15 
REMARK    4  A    between atoms: N2_15  and  C12_16 
REMARK    5  A    between atoms: C17_21  and  N3_22 
REMARK    6  A    between atoms: C21_26  and  N4_27 
REMARK    7  A    between atoms: N4_27  and  C22_28 
REMARK    8  A    between atoms: C24_31  and  C25_32 
ROOT
ATOM      1  N1  NON d   1     -40.671  21.569  -3.391  0.00  0.00    -0.323 N 
ATOM      2  C6  NON d   1     -40.601  20.217  -3.711  0.00  0.00     0.256 C 
ATOM      3  O1  NON d   1     -39.561  19.559  -3.716  0.00  0.00    -0.267 OA
ATOM      4  H6  NON d   1     -41.560  22.041  -3.465  0.00  0.00     0.169 HD
ENDROOT
BRANCH   1   5
ATOM      5  C5  NON d   1     -39.570  22.366  -2.943  0.00  0.00     0.037 A 
ATOM      6  C4  NON d   1     -39.187  22.463  -1.602  0.00  0.00     0.030 A 
ATOM      7  C3  NON d   1     -38.110  23.256  -1.204  0.00  0.00     0.011 A 
ATOM      8  C2  NON d   1     -37.382  23.988  -2.145  0.00  0.00    -0.035 A 
ATOM      9  C1  NON d   1     -36.194  24.865  -1.708  0.00  0.00     0.050 C 
ATOM     10  C21 NON d   1     -37.730  23.920  -3.516  0.00  0.00     0.057 A 
ATOM     11  C20 NON d   1     -38.833  23.104  -3.887  0.00  0.00     0.060 A 
BRANCH  10  12
ATOM     12  N4  NON d   1     -37.039  24.591  -4.570  0.00  0.00    -0.188 N 
ATOM     13  H19 NON d   1     -36.786  25.530  -4.274  0.00  0.00     0.184 HD
BRANCH  12  14
ATOM     14  C22 NON d   1     -37.366  24.725  -5.930  0.00  0.00     0.726 A 
ATOM     15  N5  NON d   1     -37.713  25.959  -6.338  0.00  0.00    -0.074 NA
ATOM     16  C23 NON d   1     -38.214  26.080  -7.594  0.00  0.00     0.150 A 
ATOM     17  C24 NON d   1     -38.382  25.035  -8.481  0.00  0.00     0.012 A 
ATOM     18  C30 NON d   1     -37.880  23.843  -7.998  0.00  0.00     0.150 A 
ATOM     19  N7  NON d   1     -37.365  23.670  -6.757  0.00  0.00    -0.074 NA
BRANCH  17  20
ATOM     20  C25 NON d   1     -39.088  25.153  -9.762  0.00  0.00    -0.005 A 
ATOM     21  C26 NON d   1     -39.754  24.081 -10.366  0.00  0.00     0.015 A 
ATOM     22  C27 NON d   1     -40.389  24.248 -11.600  0.00  0.00     0.020 A 
ATOM     23  C28 NON d   1     -40.340  25.490 -12.206  0.00  0.00     0.116 A 
ATOM     24  N6  NON d   1     -39.709  26.554 -11.668  0.00  0.00    -0.272 NA
ATOM     25  C29 NON d   1     -39.102  26.359 -10.472  0.00  0.00     0.128 A 
ENDBRANCH  17  20
ENDBRANCH  12  14
ENDBRANCH  10  12
ENDBRANCH   1   5
BRANCH   2  26
ATOM     26  C7  NON d   1     -41.849  19.464  -4.081  0.00  0.00     0.032 A 
ATOM     27  C8  NON d   1     -42.158  18.374  -3.252  0.00  0.00     0.018 A 
ATOM     28  C9  NON d   1     -43.269  17.565  -3.487  0.00  0.00     0.018 A 
ATOM     29  C10 NON d   1     -44.130  17.808  -4.564  0.00  0.00     0.032 A 
ATOM     30  C18 NON d   1     -43.836  18.892  -5.406  0.00  0.00     0.018 A 
ATOM     31  C19 NON d   1     -42.702  19.718  -5.167  0.00  0.00     0.018 A 
BRANCH  29  32
ATOM     32  C11 NON d   1     -45.312  16.883  -4.670  0.00  0.00     0.256 C 
ATOM     33  O2  NON d   1     -45.312  16.101  -5.618  0.00  0.00    -0.267 OA
ATOM     34  N2  NON d   1     -46.307  16.953  -3.711  0.00  0.00    -0.321 N 
ATOM     35  H9  NON d   1     -46.237  17.611  -2.948  0.00  0.00     0.169 HD
BRANCH  34  36
ATOM     36  C12 NON d   1     -47.532  16.220  -3.725  0.00  0.00     0.056 A 
ATOM     37  C13 NON d   1     -48.206  15.812  -2.569  0.00  0.00     0.031 A 
ATOM     38  C14 NON d   1     -49.365  15.031  -2.646  0.00  0.00     0.002 A 
ATOM     39  C15 NON d   1     -49.856  14.634  -3.882  0.00  0.00     0.002 A 
ATOM     40  C16 NON d   1     -49.202  15.032  -5.046  0.00  0.00     0.025 A 
ATOM     41  C17 NON d   1     -48.066  15.856  -4.980  0.00  0.00     0.033 A 
BRANCH  41  42
ATOM     42  N3  NON d   1     -47.439  16.265  -6.185  0.00  0.00    -0.301 NA
ATOM     43  H14 NON d   1     -47.076  17.211  -6.079  0.00  0.00     0.124 HD
ATOM     44  H15 NON d   1     -48.084  16.229  -6.974  0.00  0.00     0.124 HD
ENDBRANCH  41  42
ENDBRANCH  34  36
ENDBRANCH  29  32
ENDBRANCH   2  26
TORSDOF 8
ENDMDL
MODEL 6
REMARK VINA RESULT:   -32.828      4.534      8.700
REMARK INTER + INTRA:         -36.775
REMARK INTER:                 -35.214
REMARK INTRA:                  -1.561
REMARK CONF_INDEPENDENT:        2.386
REMARK UNBOUND:                -1.561
REMARK  8 active torsions:
REMARK  status: ('A' for Active; 'I' for Inactive)
REMARK    1  A    between atoms: C5_5  and  N1_6 
REMARK       I    between atoms: N1_6  and  C6_7 
REMARK    2  A    between atoms: C6_7  and  C7_9 
REMARK    3  A    between atoms: C10_12  and  C11_13 
REMARK       I    between atoms: C11_13  and  N2_15 
REMARK    4  A    between atoms: N2_15  and  C12_16 
REMARK    5  A    between atoms: C17_21  and  N3_22 
REMARK    6  A    between atoms: C21_26  and  N4_27 
REMARK    7  A    between atoms: N4_27  and  C22_28 
REMARK    8  A    between atoms: C24_31  and  C25_32 
ROOT
ATOM      1  N1  NON d   1     -40.610  21.480  -5.336  0.00  0.00    -0.323 N 
ATOM      2  C6  NON d   1     -40.367  20.138  -5.613  0.00  0.00     0.256 C 
ATOM      3  O1  NON d   1     -39.278  19.690  -5.970  0.00  0.00    -0.267 OA
ATOM      4  H6  NON d   1     -41.549  21.766  -5.101  0.00  0.00     0.169 HD
ENDROOT
BRANCH   1   5
ATOM      5  C5  NON d   1     -39.619  22.512  -5.344  0.00  0.00     0.037 A 
ATOM      6  C4  NON d   1     -39.021  23.012  -4.183  0.00  0.00     0.030 A 
ATOM      7  C3  NON d   1     -38.062  24.025  -4.232  0.00  0.00     0.011 A 
ATOM      8  C2  NON d   1     -37.676  24.577  -5.455  0.00  0.00    -0.035 A 
ATOM      9  C1  NON d   1     -36.619  25.696  -5.512  0.00  0.00     0.050 C 
ATOM     10  C21 NON d   1     -38.251  24.103  -6.659  0.00  0.00     0.057 A 
ATOM     11  C20 NON d   1     -39.226  23.072  -6.573  0.00  0.00     0.060 A 
BRANCH  10  12
ATOM     12  N4  NON d   1     -37.910  24.563  -7.967  0.00  0.00    -0.188 N 
ATOM     13  H19 NON d   1     -38.370  25.450  -8.152  0.00  0.00     0.184 HD
BRANCH  12  14
ATOM     14  C22 NON d   1     -37.930  23.890  -9.201  0.00  0.00     0.726 A 
ATOM     15  N5  NON d   1     -37.024  22.909  -9.355  0.00  0.00    -0.074 NA
ATOM     16  C23 NON d   1     -36.894  22.372 -10.596  0.00  0.00     0.150 A 
ATOM     17  C24 NON d   1     -37.629  22.753 -11.701  0.00  0.00     0.012 A 
ATOM     18  C30 NON d   1     -38.607  23.678 -11.395  0.00  0.00     0.150 A 
ATOM     19  N7  NON d   1     -38.783  24.240 -10.174  0.00  0.00    -0.074 NA
BRANCH  17  20
ATOM     20  C25 NON d   1     -37.354  22.293 -13.067  0.00  0.00    -0.005 A 
ATOM     21  C26 NON d   1     -37.101  23.167 -14.129  0.00  0.00     0.015 A 
ATOM     22  C27 NON d   1     -36.869  22.670 -15.415  0.00  0.00     0.020 A 
ATOM     23  C28 NON d   1     -36.898  21.301 -15.610  0.00  0.00     0.116 A 
ATOM     24  N6  NON d   1     -37.141  20.417 -14.620  0.00  0.00    -0.272 NA
ATOM     25  C29 NON d   1     -37.363  20.931 -13.386  0.00  0.00     0.128 A 
ENDBRANCH  17  20
ENDBRANCH  12  14
ENDBRANCH  10  12
ENDBRANCH   1   5
BRANCH   2  26
ATOM     26  C7  NON d   1     -41.474  19.129  -5.480  0.00  0.00     0.032 A 
ATOM     27  C8  NON d   1     -42.753  19.668  -5.266  0.00  0.00     0.018 A 
ATOM     28  C9  NON d   1     -43.872  18.855  -5.096  0.00  0.00     0.018 A 
ATOM     29  C10 NON d   1     -43.770  17.459  -5.134  0.00  0.00     0.032 A 
ATOM     30  C18 NON d   1     -42.499  16.901  -5.345  0.00  0.00     0.018 A 
ATOM     31  C19 NON d   1     -41.356  17.730  -5.519  0.00  0.00     0.018 A 
BRANCH  29  32
ATOM     32  C11 NON d   1     -45.065  16.710  -4.980  0.00  0.00     0.256 C 
ATOM     33  O2  NON d   1     -45.273  15.803  -5.784  0.00  0.00    -0.267 OA
ATOM     34  N2  NON d   1     -45.929  17.065  -3.959  0.00  0.00    -0.321 N 
ATOM     35  H9  NON d   1     -45.690  17.812  -3.323  0.00  0.00     0.169 HD
BRANCH  34  36
ATOM     36  C12 NON d   1     -47.232  16.523  -3.742  0.00  0.00     0.056 A 
ATOM     37  C13 NON d   1     -47.806  16.363  -2.476  0.00  0.00     0.031 A 
ATOM     38  C14 NON d   1     -49.058  15.756  -2.321  0.00  0.00     0.002 A 
ATOM     39  C15 NON d   1     -49.745  15.287  -3.432  0.00  0.00     0.002 A 
ATOM     40  C16 NON d   1     -49.194  15.440  -4.702  0.00  0.00     0.025 A 
ATOM     41  C17 NON d   1     -47.961  16.090  -4.871  0.00  0.00     0.033 A 
BRANCH  41  42
ATOM     42  N3  NON d   1     -47.439  16.253  -6.180  0.00  0.00    -0.301 NA
ATOM     43  H14 NON d   1     -46.757  15.522  -6.372  0.00  0.00     0.124 HD
ATOM     44  H15 NON d   1     -47.006  17.168  -6.299  0.00  0.00     0.124 HD
ENDBRANCH  41  42
ENDBRANCH  34  36
ENDBRANCH  29  32
ENDBRANCH   2  26
TORSDOF 8
ENDMDL
MODEL 7
REMARK VINA RESULT:   -32.384      5.717     11.095
REMARK INTER + INTRA:         -36.347
REMARK INTER:                 -34.770
REMARK INTRA:                  -1.577
REMARK CONF_INDEPENDENT:        2.386
REMARK UNBOUND:                -1.577
REMARK  8 active torsions:
REMARK  status: ('A' for Active; 'I' for Inactive)
REMARK    1  A    between atoms: C5_5  and  N1_6 
REMARK       I    between atoms: N1_6  and  C6_7 
REMARK    2  A    between atoms: C6_7  and  C7_9 
REMARK    3  A    between atoms: C10_12  and  C11_13 
REMARK       I    between atoms: C11_13  and  N2_15 
REMARK    4  A    between atoms: N2_15  and  C12_16 
REMARK    5  A    between atoms: C17_21  and  N3_22 
REMARK    6  A    between atoms: C21_26  and  N4_27 
REMARK    7  A    between atoms: N4_27  and  C22_28 
REMARK    8  A    between atoms: C24_31  and  C25_32 
ROOT
ATOM      1  N1  NON d   1     -39.456  22.243  -6.420  0.00  0.00    -0.323 N 
ATOM      2  C6  NON d   1     -38.829  21.448  -7.374  0.00  0.00     0.256 C 
ATOM      3  O1  NON d   1     -38.236  20.400  -7.122  0.00  0.00    -0.267 OA
ATOM      4  H6  NON d   1     -39.874  23.115  -6.712  0.00  0.00     0.169 HD
ENDROOT
BRANCH   1   5
ATOM      5  C5  NON d   1     -39.574  21.922  -5.031  0.00  0.00     0.037 A 
ATOM      6  C4  NON d   1     -39.244  22.812  -4.005  0.00  0.00     0.030 A 
ATOM      7  C3  NON d   1     -39.368  22.458  -2.661  0.00  0.00     0.011 A 
ATOM      8  C2  NON d   1     -39.824  21.187  -2.301  0.00  0.00    -0.035 A 
ATOM      9  C1  NON d   1     -39.960  20.793  -0.819  0.00  0.00     0.050 C 
ATOM     10  C21 NON d   1     -40.173  20.251  -3.304  0.00  0.00     0.057 A 
ATOM     11  C20 NON d   1     -40.033  20.643  -4.663  0.00  0.00     0.060 A 
BRANCH  10  12
ATOM     12  N4  NON d   1     -40.684  18.940  -3.059  0.00  0.00    -0.188 N 
ATOM     13  H19 NON d   1     -39.944  18.254  -3.181  0.00  0.00     0.184 HD
BRANCH  12  14
ATOM     14  C22 NON d   1     -41.838  18.308  -3.551  0.00  0.00     0.726 A 
ATOM     15  N5  NON d   1     -42.603  19.036  -4.384  0.00  0.00    -0.074 NA
ATOM     16  C23 NON d   1     -43.814  18.524  -4.724  0.00  0.00     0.150 A 
ATOM     17  C24 NON d   1     -44.309  17.312  -4.285  0.00  0.00     0.012 A 
ATOM     18  C30 NON d   1     -43.390  16.603  -3.537  0.00  0.00     0.150 A 
ATOM     19  N7  NON d   1     -42.168  17.064  -3.177  0.00  0.00    -0.074 NA
BRANCH  17  20
ATOM     20  C25 NON d   1     -45.686  16.858  -4.514  0.00  0.00    -0.005 A 
ATOM     21  C26 NON d   1     -46.559  16.519  -3.474  0.00  0.00     0.015 A 
ATOM     22  C27 NON d   1     -47.852  16.069  -3.756  0.00  0.00     0.020 A 
ATOM     23  C28 NON d   1     -48.243  15.964  -5.078  0.00  0.00     0.116 A 
ATOM     24  N6  NON d   1     -47.439  16.274  -6.116  0.00  0.00    -0.272 NA
ATOM     25  C29 NON d   1     -46.191  16.706  -5.810  0.00  0.00     0.128 A 
ENDBRANCH  17  20
ENDBRANCH  12  14
ENDBRANCH  10  12
ENDBRANCH   1   5
BRANCH   2  26
ATOM     26  C7  NON d   1     -38.852  21.850  -8.823  0.00  0.00     0.032 A 
ATOM     27  C8  NON d   1     -39.688  22.935  -9.131  0.00  0.00     0.018 A 
ATOM     28  C9  NON d   1     -39.834  23.402 -10.436  0.00  0.00     0.018 A 
ATOM     29  C10 NON d   1     -39.148  22.808 -11.502  0.00  0.00     0.032 A 
ATOM     30  C18 NON d   1     -38.308  21.720 -11.215  0.00  0.00     0.018 A 
ATOM     31  C19 NON d   1     -38.158  21.242  -9.882  0.00  0.00     0.018 A 
BRANCH  29  32
ATOM     32  C11 NON d   1     -39.365  23.443 -12.848  0.00  0.00     0.256 C 
ATOM     33  O2  NON d   1     -38.891  22.853 -13.816  0.00  0.00    -0.267 OA
ATOM     34  N2  NON d   1     -40.081  24.625 -12.924  0.00  0.00    -0.321 N 
ATOM     35  H9  NON d   1     -40.458  25.051 -12.089  0.00  0.00     0.169 HD
BRANCH  34  36
ATOM     36  C12 NON d   1     -40.287  25.401 -14.105  0.00  0.00     0.056 A 
ATOM     37  C13 NON d   1     -39.315  25.585 -15.093  0.00  0.00     0.031 A 
ATOM     38  C14 NON d   1     -39.550  26.418 -16.193  0.00  0.00     0.002 A 
ATOM     39  C15 NON d   1     -40.758  27.092 -16.310  0.00  0.00     0.002 A 
ATOM     40  C16 NON d   1     -41.742  26.920 -15.338  0.00  0.00     0.025 A 
ATOM     41  C17 NON d   1     -41.533  26.049 -14.257  0.00  0.00     0.033 A 
BRANCH  41  42
ATOM     42  N3  NON d   1     -42.565  25.876 -13.299  0.00  0.00    -0.301 NA
ATOM     43  H14 NON d   1     -42.949  24.936 -13.374  0.00  0.00     0.124 HD
ATOM     44  H15 NON d   1     -43.308  26.563 -13.422  0.00  0.00     0.124 HD
ENDBRANCH  41  42
ENDBRANCH  34  36
ENDBRANCH  29  32
ENDBRANCH   2  26
TORSDOF 8
ENDMDL
