MODEL 1
REMARK VINA RESULT:   -31.905      0.000      0.000
REMARK INTER + INTRA:         -34.849
REMARK INTER:                 -33.397
REMARK INTRA:                  -1.452
REMARK CONF_INDEPENDENT:        1.492
REMARK UNBOUND:                -1.452
REMARK  5 active torsions:
REMARK  status: ('A' for Active; 'I' for Inactive)
REMARK    1  A    between atoms: N1_2  and  C3_4 
REMARK    2  A    between atoms: C6_7  and  C7_8 
REMARK    3  A    between atoms: N4_12  and  C8_11 
REMARK    4  A    between atoms: C11_16  and  C12_17 
REMARK       I    between atoms: C12_17  and  N6_19 
REMARK    5  A    between atoms: N6_19  and  O2_20 
ROOT
ATOM      1  C7  NON d   1     -41.998  18.305  -3.503  0.00  0.00     0.133 C 
ATOM      2  N2  NON d   1     -42.514  17.316  -2.803  0.00  0.00    -0.140 NA
ATOM      3  N3  NON d   1     -43.621  16.763  -3.422  0.00  0.00    -0.120 NA
ATOM      4  C8  NON d   1     -43.922  17.350  -4.566  0.00  0.00     0.234 C 
ATOM      5  S1  NON d   1     -42.958  18.763  -4.855  0.00  0.00    -0.025 SA
ENDROOT
BRANCH   4   6
ATOM      6  N4  NON d   1     -44.910  17.014  -5.435  0.00  0.00    -0.032 NA
ATOM      7  C9  NON d   1     -46.094  16.873  -4.936  0.00  0.00     0.750 C 
ATOM      8  N5  NON d   1     -47.065  16.500  -5.834  0.00  0.00    -0.076 NA
ATOM      9  N7  NON d   1     -46.355  17.045  -3.594  0.00  0.00    -0.076 NA
ATOM     10  C10 NON d   1     -48.051  15.808  -5.364  0.00  0.00     0.129 C 
ATOM     11  C11 NON d   1     -48.128  15.387  -3.929  0.00  0.00     0.162 C 
ATOM     12  C13 NON d   1     -47.336  16.357  -3.109  0.00  0.00     0.129 C 
BRANCH  11  13
ATOM     13  C12 NON d   1     -49.538  15.206  -3.427  0.00  0.00     0.255 C 
ATOM     14  O1  NON d   1     -50.089  14.116  -3.311  0.00  0.00    -0.270 OA
ATOM     15  N6  NON d   1     -50.167  16.378  -3.065  0.00  0.00    -0.236 N 
ATOM     16  H11 NON d   1     -49.686  17.249  -2.861  0.00  0.00     0.197 HD
BRANCH  15  17
ATOM     17  O2  NON d   1     -51.438  16.231  -2.466  0.00  0.00    -0.287 OA
ATOM     18  H12 NON d   1     -51.651  15.283  -2.619  0.00  0.00     0.244 HD
ENDBRANCH  15  17
ENDBRANCH  11  13
ENDBRANCH   4   6
BRANCH   1  19
ATOM     19  C6  NON d   1     -40.726  18.974  -3.220  0.00  0.00     0.002 A 
ATOM     20  C5  NON d   1     -40.603  20.363  -3.306  0.00  0.00     0.016 A 
ATOM     21  C4  NON d   1     -39.394  21.004  -2.975  0.00  0.00     0.030 A 
ATOM     22  C3  NON d   1     -38.273  20.289  -2.528  0.00  0.00     0.029 A 
ATOM     23  C15 NON d   1     -38.422  18.893  -2.447  0.00  0.00     0.030 A 
ATOM     24  C14 NON d   1     -39.617  18.247  -2.784  0.00  0.00     0.016 A 
BRANCH  22  25
ATOM     25  N1  NON d   1     -37.079  20.904  -2.165  0.00  0.00    -0.390 N 
ATOM     26  C1  NON d   1     -36.401  21.750  -3.259  0.00  0.00     0.149 C 
ATOM     27  C2  NON d   1     -36.522  20.824  -0.826  0.00  0.00     0.149 C 
ENDBRANCH  22  25
ENDBRANCH   1  19
TORSDOF 5
ENDMDL
MODEL 2
REMARK VINA RESULT:   -31.412      0.923      1.453
REMARK INTER + INTRA:         -34.412
REMARK INTER:                 -32.904
REMARK INTRA:                  -1.508
REMARK CONF_INDEPENDENT:        1.492
REMARK UNBOUND:                -1.508
REMARK  5 active torsions:
REMARK  status: ('A' for Active; 'I' for Inactive)
REMARK    1  A    between atoms: N1_2  and  C3_4 
REMARK    2  A    between atoms: C6_7  and  C7_8 
REMARK    3  A    between atoms: N4_12  and  C8_11 
REMARK    4  A    between atoms: C11_16  and  C12_17 
REMARK       I    between atoms: C12_17  and  N6_19 
REMARK    5  A    between atoms: N6_19  and  O2_20 
ROOT
ATOM      1  C7  NON d   1     -42.017  18.186  -3.811  0.00  0.00     0.133 C 
ATOM      2  N2  NON d   1     -42.280  17.042  -3.214  0.00  0.00    -0.140 NA
ATOM      3  N3  NON d   1     -43.421  16.444  -3.718  0.00  0.00    -0.120 NA
ATOM      4  C8  NON d   1     -43.999  17.150  -4.672  0.00  0.00     0.234 C 
ATOM      5  S1  NON d   1     -43.264  18.708  -4.875  0.00  0.00    -0.025 SA
ENDROOT
BRANCH   4   6
ATOM      6  N4  NON d   1     -45.095  16.818  -5.401  0.00  0.00    -0.032 NA
ATOM      7  C9  NON d   1     -46.234  16.880  -4.791  0.00  0.00     0.750 C 
ATOM      8  N5  NON d   1     -47.320  16.505  -5.545  0.00  0.00    -0.076 NA
ATOM      9  N7  NON d   1     -46.344  17.256  -3.470  0.00  0.00    -0.076 NA
ATOM     10  C10 NON d   1     -48.322  15.999  -4.902  0.00  0.00     0.129 C 
ATOM     11  C11 NON d   1     -48.301  15.781  -3.421  0.00  0.00     0.162 C 
ATOM     12  C13 NON d   1     -47.339  16.753  -2.813  0.00  0.00     0.129 C 
BRANCH  11  13
ATOM     13  C12 NON d   1     -49.666  15.830  -2.784  0.00  0.00     0.255 C 
ATOM     14  O1  NON d   1     -49.987  16.631  -1.911  0.00  0.00    -0.270 OA
ATOM     15  N6  NON d   1     -50.561  14.910  -3.287  0.00  0.00    -0.236 N 
ATOM     16  H11 NON d   1     -50.458  14.437  -4.180  0.00  0.00     0.197 HD
BRANCH  15  17
ATOM     17  O2  NON d   1     -51.886  15.018  -2.807  0.00  0.00    -0.287 OA
ATOM     18  H12 NON d   1     -51.836  15.771  -2.176  0.00  0.00     0.244 HD
ENDBRANCH  15  17
ENDBRANCH  11  13
ENDBRANCH   4   6
BRANCH   1  19
ATOM     19  C6  NON d   1     -40.792  18.972  -3.642  0.00  0.00     0.002 A 
ATOM     20  C5  NON d   1     -40.057  18.922  -2.455  0.00  0.00     0.016 A 
ATOM     21  C4  NON d   1     -38.850  19.634  -2.321  0.00  0.00     0.030 A 
ATOM     22  C3  NON d   1     -38.321  20.403  -3.368  0.00  0.00     0.029 A 
ATOM     23  C15 NON d   1     -39.078  20.435  -4.554  0.00  0.00     0.030 A 
ATOM     24  C14 NON d   1     -40.284  19.739  -4.692  0.00  0.00     0.016 A 
BRANCH  22  25
ATOM     25  N1  NON d   1     -37.115  21.089  -3.270  0.00  0.00    -0.390 N 
ATOM     26  C1  NON d   1     -36.460  21.098  -1.876  0.00  0.00     0.149 C 
ATOM     27  C2  NON d   1     -36.460  21.705  -4.410  0.00  0.00     0.149 C 
ENDBRANCH  22  25
ENDBRANCH   1  19
TORSDOF 5
ENDMDL
