MODEL 1
REMARK VINA RESULT:   -20.960      0.000      0.000
REMARK INTER + INTRA:         -24.726
REMARK INTER:                 -23.048
REMARK INTRA:                  -1.677
REMARK CONF_INDEPENDENT:        2.088
REMARK UNBOUND:                -1.677
REMARK  7 active torsions:
REMARK  status: ('A' for Active; 'I' for Inactive)
REMARK    1  A    between atoms: N1_1  and  C1_2 
REMARK    2  A    between atoms: C4_5  and  C5_6 
REMARK    3  A    between atoms: C10_12  and  N2_13 
REMARK       I    between atoms: N2_13  and  C11_14 
REMARK    4  A    between atoms: C11_14  and  C12_16 
REMARK    5  A    between atoms: C15_19  and  C16_20 
REMARK    6  A    between atoms: C16_20  and  N3_21 
REMARK       I    between atoms: N3_21  and  C17_22 
REMARK    7  A    between atoms: C17_22  and  C18_24 
ROOT
ATOM      1  N2  NON d   1     -45.834  17.564  -3.755  0.00  0.00    -0.321 N 
ATOM      2  C11 NON d   1     -45.234  17.886  -4.958  0.00  0.00     0.256 C 
ATOM      3  O1  NON d   1     -45.825  18.019  -6.028  0.00  0.00    -0.267 OA
ATOM      4  H9  NON d   1     -45.286  17.542  -2.906  0.00  0.00     0.169 HD
ENDROOT
BRANCH   2   5
ATOM      5  C12 NON d   1     -43.758  18.112  -4.976  0.00  0.00     0.032 A 
ATOM      6  C13 NON d   1     -43.317  19.200  -5.738  0.00  0.00     0.017 A 
ATOM      7  C14 NON d   1     -41.977  19.571  -5.739  0.00  0.00     0.010 A 
ATOM      8  C15 NON d   1     -41.031  18.873  -4.970  0.00  0.00    -0.040 A 
ATOM      9  C24 NON d   1     -41.458  17.746  -4.255  0.00  0.00     0.010 A 
ATOM     10  C25 NON d   1     -42.817  17.369  -4.252  0.00  0.00     0.017 A 
BRANCH   8  11
ATOM     11  C16 NON d   1     -39.641  19.458  -4.969  0.00  0.00     0.161 C 
BRANCH  11  12
ATOM     12  N3  NON d   1     -38.566  18.660  -5.490  0.00  0.00    -0.356 N 
ATOM     13  C17 NON d   1     -37.789  18.949  -6.578  0.00  0.00     0.222 C 
ATOM     14  O2  NON d   1     -36.761  18.280  -6.712  0.00  0.00    -0.273 OA
ATOM     15  H14 NON d   1     -38.107  18.004  -4.872  0.00  0.00     0.162 HD
BRANCH  13  16
ATOM     16  C18 NON d   1     -38.219  20.010  -7.620  0.00  0.00     0.078 C 
ATOM     17  C19 NON d   1     -39.587  19.750  -8.275  0.00  0.00     0.014 C 
ATOM     18  C20 NON d   1     -40.035  20.880  -9.200  0.00  0.00     0.001 C 
ATOM     19  C21 NON d   1     -40.055  22.222  -8.490  0.00  0.00     0.000 C 
ATOM     20  C22 NON d   1     -38.699  22.522  -7.868  0.00  0.00     0.001 C 
ATOM     21  C23 NON d   1     -38.242  21.399  -6.940  0.00  0.00     0.014 C 
ENDBRANCH  13  16
ENDBRANCH  11  12
ENDBRANCH   8  11
ENDBRANCH   2   5
BRANCH   1  22
ATOM     22  C10 NON d   1     -47.184  17.154  -3.583  0.00  0.00     0.057 A 
ATOM     23  C9  NON d   1     -47.939  17.465  -2.440  0.00  0.00     0.044 A 
ATOM     24  C4  NON d   1     -49.307  17.152  -2.335  0.00  0.00    -0.017 A 
ATOM     25  C3  NON d   1     -49.904  16.518  -3.435  0.00  0.00     0.014 A 
ATOM     26  C2  NON d   1     -49.162  16.191  -4.579  0.00  0.00     0.026 A 
ATOM     27  C1  NON d   1     -47.792  16.457  -4.641  0.00  0.00     0.033 A 
BRANCH  24  28
ATOM     28  C5  NON d   1     -50.113  17.486  -1.131  0.00  0.00     0.015 A 
ATOM     29  C6  NON d   1     -49.689  17.724   0.170  0.00  0.00     0.020 A 
ATOM     30  C7  NON d   1     -50.755  18.018   1.073  0.00  0.00     0.008 A 
ATOM     31  C8  NON d   1     -51.976  18.004   0.445  0.00  0.00     0.050 A 
ATOM     32  S1  NON d   1     -51.834  17.624  -1.208  0.00  0.00    -0.101 SA
ENDBRANCH  24  28
BRANCH  27  33
ATOM     33  N1  NON d   1     -47.065  16.130  -5.810  0.00  0.00    -0.301 NA
ATOM     34  H1  NON d   1     -46.108  15.854  -5.601  0.00  0.00     0.124 HD
ATOM     35  H2  NON d   1     -47.065  16.916  -6.456  0.00  0.00     0.124 HD
ENDBRANCH  27  33
ENDBRANCH   1  22
TORSDOF 7
ENDMDL
MODEL 2
REMARK VINA RESULT:   -20.626      2.211      2.775
REMARK INTER + INTRA:         -24.224
REMARK INTER:                 -22.714
REMARK INTRA:                  -1.510
REMARK CONF_INDEPENDENT:        2.088
REMARK UNBOUND:                -1.510
REMARK  7 active torsions:
REMARK  status: ('A' for Active; 'I' for Inactive)
REMARK    1  A    between atoms: N1_1  and  C1_2 
REMARK    2  A    between atoms: C4_5  and  C5_6 
REMARK    3  A    between atoms: C10_12  and  N2_13 
REMARK       I    between atoms: N2_13  and  C11_14 
REMARK    4  A    between atoms: C11_14  and  C12_16 
REMARK    5  A    between atoms: C15_19  and  C16_20 
REMARK    6  A    between atoms: C16_20  and  N3_21 
REMARK       I    between atoms: N3_21  and  C17_22 
REMARK    7  A    between atoms: C17_22  and  C18_24 
ROOT
ATOM      1  N2  NON d   1     -45.859  17.616  -3.784  0.00  0.00    -0.321 N 
ATOM      2  C11 NON d   1     -45.259  17.901  -4.996  0.00  0.00     0.256 C 
ATOM      3  O1  NON d   1     -45.848  17.982  -6.072  0.00  0.00    -0.267 OA
ATOM      4  H9  NON d   1     -45.315  17.636  -2.932  0.00  0.00     0.169 HD
ENDROOT
BRANCH   2   5
ATOM      5  C12 NON d   1     -43.787  18.150  -5.017  0.00  0.00     0.032 A 
ATOM      6  C13 NON d   1     -43.391  19.425  -5.438  0.00  0.00     0.017 A 
ATOM      7  C14 NON d   1     -42.054  19.805  -5.393  0.00  0.00     0.010 A 
ATOM      8  C15 NON d   1     -41.067  18.928  -4.916  0.00  0.00    -0.040 A 
ATOM      9  C24 NON d   1     -41.451  17.630  -4.552  0.00  0.00     0.010 A 
ATOM     10  C25 NON d   1     -42.807  17.243  -4.596  0.00  0.00     0.017 A 
BRANCH   8  11
ATOM     11  C16 NON d   1     -39.681  19.513  -4.807  0.00  0.00     0.161 C 
BRANCH  11  12
ATOM     12  N3  NON d   1     -39.294  20.527  -5.748  0.00  0.00    -0.356 N 
ATOM     13  C17 NON d   1     -39.448  21.878  -5.600  0.00  0.00     0.222 C 
ATOM     14  O2  NON d   1     -38.825  22.591  -6.391  0.00  0.00    -0.273 OA
ATOM     15  H14 NON d   1     -38.576  20.309  -6.426  0.00  0.00     0.162 HD
BRANCH  13  16
ATOM     16  C18 NON d   1     -40.409  22.472  -4.542  0.00  0.00     0.078 C 
ATOM     17  C19 NON d   1     -40.014  22.185  -3.083  0.00  0.00     0.014 C 
ATOM     18  C20 NON d   1     -40.910  22.892  -2.067  0.00  0.00     0.001 C 
ATOM     19  C21 NON d   1     -40.959  24.391  -2.298  0.00  0.00     0.000 C 
ATOM     20  C22 NON d   1     -41.388  24.702  -3.725  0.00  0.00     0.001 C 
ATOM     21  C23 NON d   1     -40.497  24.002  -4.748  0.00  0.00     0.014 C 
ENDBRANCH  13  16
ENDBRANCH  11  12
ENDBRANCH   8  11
ENDBRANCH   2   5
BRANCH   1  22
ATOM     22  C10 NON d   1     -47.203  17.191  -3.600  0.00  0.00     0.057 A 
ATOM     23  C9  NON d   1     -47.960  17.511  -2.461  0.00  0.00     0.044 A 
ATOM     24  C4  NON d   1     -49.323  17.181  -2.347  0.00  0.00    -0.017 A 
ATOM     25  C3  NON d   1     -49.914  16.520  -3.435  0.00  0.00     0.014 A 
ATOM     26  C2  NON d   1     -49.170  16.184  -4.574  0.00  0.00     0.026 A 
ATOM     27  C1  NON d   1     -47.804  16.467  -4.644  0.00  0.00     0.033 A 
BRANCH  24  28
ATOM     28  C5  NON d   1     -50.131  17.525  -1.147  0.00  0.00     0.015 A 
ATOM     29  C6  NON d   1     -49.703  17.854   0.133  0.00  0.00     0.020 A 
ATOM     30  C7  NON d   1     -50.772  18.127   1.040  0.00  0.00     0.008 A 
ATOM     31  C8  NON d   1     -51.998  18.005   0.435  0.00  0.00     0.050 A 
ATOM     32  S1  NON d   1     -51.857  17.552  -1.200  0.00  0.00    -0.101 SA
ENDBRANCH  24  28
BRANCH  27  33
ATOM     33  N1  NON d   1     -47.076  16.130  -5.810  0.00  0.00    -0.301 NA
ATOM     34  H1  NON d   1     -46.105  15.905  -5.603  0.00  0.00     0.124 HD
ATOM     35  H2  NON d   1     -47.119  16.890  -6.485  0.00  0.00     0.124 HD
ENDBRANCH  27  33
ENDBRANCH   1  22
TORSDOF 7
ENDMDL
MODEL 3
REMARK VINA RESULT:   -20.342      2.286      3.326
REMARK INTER + INTRA:         -24.066
REMARK INTER:                 -22.430
REMARK INTRA:                  -1.636
REMARK CONF_INDEPENDENT:        2.088
REMARK UNBOUND:                -1.636
REMARK  7 active torsions:
REMARK  status: ('A' for Active; 'I' for Inactive)
REMARK    1  A    between atoms: N1_1  and  C1_2 
REMARK    2  A    between atoms: C4_5  and  C5_6 
REMARK    3  A    between atoms: C10_12  and  N2_13 
REMARK       I    between atoms: N2_13  and  C11_14 
REMARK    4  A    between atoms: C11_14  and  C12_16 
REMARK    5  A    between atoms: C15_19  and  C16_20 
REMARK    6  A    between atoms: C16_20  and  N3_21 
REMARK       I    between atoms: N3_21  and  C17_22 
REMARK    7  A    between atoms: C17_22  and  C18_24 
ROOT
ATOM      1  N2  NON d   1     -45.841  17.563  -3.753  0.00  0.00    -0.321 N 
ATOM      2  C11 NON d   1     -45.239  17.889  -4.954  0.00  0.00     0.256 C 
ATOM      3  O1  NON d   1     -45.829  18.031  -6.023  0.00  0.00    -0.267 OA
ATOM      4  H9  NON d   1     -45.294  17.533  -2.904  0.00  0.00     0.169 HD
ENDROOT
BRANCH   2   5
ATOM      5  C12 NON d   1     -43.762  18.109  -4.969  0.00  0.00     0.032 A 
ATOM      6  C13 NON d   1     -43.323  19.256  -5.640  0.00  0.00     0.017 A 
ATOM      7  C14 NON d   1     -41.982  19.619  -5.625  0.00  0.00     0.010 A 
ATOM      8  C15 NON d   1     -41.031  18.854  -4.930  0.00  0.00    -0.040 A 
ATOM      9  C24 NON d   1     -41.456  17.671  -4.309  0.00  0.00     0.010 A 
ATOM     10  C25 NON d   1     -42.817  17.302  -4.323  0.00  0.00     0.017 A 
BRANCH   8  11
ATOM     11  C16 NON d   1     -39.638  19.430  -4.895  0.00  0.00     0.161 C 
BRANCH  11  12
ATOM     12  N3  NON d   1     -38.657  18.790  -4.062  0.00  0.00    -0.356 N 
ATOM     13  C17 NON d   1     -38.281  19.174  -2.804  0.00  0.00     0.222 C 
ATOM     14  O2  NON d   1     -37.622  18.357  -2.155  0.00  0.00    -0.273 OA
ATOM     15  H14 NON d   1     -38.438  17.818  -4.233  0.00  0.00     0.162 HD
BRANCH  13  16
ATOM     16  C18 NON d   1     -38.605  20.585  -2.258  0.00  0.00     0.078 C 
ATOM     17  C19 NON d   1     -40.009  20.729  -1.644  0.00  0.00     0.014 C 
ATOM     18  C20 NON d   1     -40.247  22.095  -1.002  0.00  0.00     0.001 C 
ATOM     19  C21 NON d   1     -39.197  22.423   0.044  0.00  0.00     0.000 C 
ATOM     20  C22 NON d   1     -37.798  22.327  -0.549  0.00  0.00     0.001 C 
ATOM     21  C23 NON d   1     -37.549  20.965  -1.193  0.00  0.00     0.014 C 
ENDBRANCH  13  16
ENDBRANCH  11  12
ENDBRANCH   8  11
ENDBRANCH   2   5
BRANCH   1  22
ATOM     22  C10 NON d   1     -47.193  17.157  -3.584  0.00  0.00     0.057 A 
ATOM     23  C9  NON d   1     -47.951  17.472  -2.444  0.00  0.00     0.044 A 
ATOM     24  C4  NON d   1     -49.320  17.163  -2.343  0.00  0.00    -0.017 A 
ATOM     25  C3  NON d   1     -49.915  16.530  -3.444  0.00  0.00     0.014 A 
ATOM     26  C2  NON d   1     -49.171  16.200  -4.585  0.00  0.00     0.026 A 
ATOM     27  C1  NON d   1     -47.801  16.460  -4.643  0.00  0.00     0.033 A 
BRANCH  24  28
ATOM     28  C5  NON d   1     -50.128  17.502  -1.142  0.00  0.00     0.015 A 
ATOM     29  C6  NON d   1     -49.704  17.774   0.153  0.00  0.00     0.020 A 
ATOM     30  C7  NON d   1     -50.773  18.061   1.055  0.00  0.00     0.008 A 
ATOM     31  C8  NON d   1     -51.995  18.005   0.434  0.00  0.00     0.050 A 
ATOM     32  S1  NON d   1     -51.852  17.597  -1.213  0.00  0.00    -0.101 SA
ENDBRANCH  24  28
BRANCH  27  33
ATOM     33  N1  NON d   1     -47.071  16.130  -5.810  0.00  0.00    -0.301 NA
ATOM     34  H1  NON d   1     -46.112  15.863  -5.600  0.00  0.00     0.124 HD
ATOM     35  H2  NON d   1     -47.078  16.911  -6.463  0.00  0.00     0.124 HD
ENDBRANCH  27  33
ENDBRANCH   1  22
TORSDOF 7
ENDMDL
