MODEL 1
REMARK VINA RESULT:   -13.364      0.000      0.000
REMARK INTER + INTRA:         -15.652
REMARK INTER:                 -14.557
REMARK INTRA:                  -1.095
REMARK CONF_INDEPENDENT:        1.193
REMARK UNBOUND:                -1.095
REMARK  4 active torsions:
REMARK  status: ('A' for Active; 'I' for Inactive)
REMARK    1  A    between atoms: C1_2  and  C2_3 
REMARK       I    between atoms: C1_2  and  N2_21 
REMARK    2  A    between atoms: C3_4  and  C4_5 
REMARK       I    between atoms: N1_12  and  C11_13 
REMARK    3  A    between atoms: C11_13  and  C12_15 
REMARK    4  A    between atoms: N2_21  and  O3_22 
ROOT
ATOM      1  C4  NON d   1     -42.910  17.856  -4.278  0.00  0.00    -0.035 A 
ATOM      2  C5  NON d   1     -42.307  17.324  -3.115  0.00  0.00     0.012 A 
ATOM      3  C6  NON d   1     -41.289  18.003  -2.440  0.00  0.00     0.010 A 
ATOM      4  C7  NON d   1     -40.869  19.218  -2.945  0.00  0.00    -0.032 A 
ATOM      5  C8  NON d   1     -41.454  19.770  -4.087  0.00  0.00    -0.032 A 
ATOM      6  C9  NON d   1     -42.465  19.100  -4.763  0.00  0.00     0.021 A 
ATOM      7  C10 NON d   1     -40.821  21.094  -4.390  0.00  0.00     0.165 A 
ATOM      8  N1  NON d   1     -39.796  21.238  -3.349  0.00  0.00    -0.343 N 
ATOM      9  C11 NON d   1     -38.965  22.333  -3.339  0.00  0.00     0.224 C 
ATOM     10  O2  NON d   1     -39.116  23.235  -4.168  0.00  0.00    -0.273 OA
ATOM     11  C17 NON d   1     -39.813  20.125  -2.408  0.00  0.00     0.165 A 
ENDROOT
BRANCH   1  12
ATOM     12  C3  NON d   1     -43.957  17.129  -5.026  0.00  0.00     0.017 C 
ATOM     13  C2  NON d   1     -45.276  17.203  -4.783  0.00  0.00     0.077 C 
BRANCH  13  14
ATOM     14  C1  NON d   1     -46.241  16.394  -5.568  0.00  0.00     0.264 C 
ATOM     15  O1  NON d   1     -45.938  15.380  -6.186  0.00  0.00    -0.266 OA
ATOM     16  N2  NON d   1     -47.519  16.886  -5.521  0.00  0.00    -0.234 N 
ATOM     17  H19 NON d   1     -47.828  17.695  -4.998  0.00  0.00     0.197 HD
BRANCH  16  18
ATOM     18  O3  NON d   1     -48.515  16.137  -6.185  0.00  0.00    -0.287 OA
ATOM     19  H20 NON d   1     -47.984  15.573  -6.790  0.00  0.00     0.244 HD
ENDBRANCH  16  18
ENDBRANCH  13  14
ENDBRANCH   1  12
BRANCH   9  20
ATOM     20  C12 NON d   1     -37.777  22.351  -2.366  0.00  0.00     0.078 C 
ATOM     21  C13 NON d   1     -36.965  21.068  -2.227  0.00  0.00     0.014 C 
ATOM     22  C14 NON d   1     -36.220  21.231  -0.909  0.00  0.00     0.001 C 
ATOM     23  C15 NON d   1     -37.114  22.090  -0.027  0.00  0.00     0.001 C 
ATOM     24  C16 NON d   1     -38.249  22.575  -0.921  0.00  0.00     0.014 C 
ENDBRANCH   9  20
TORSDOF 4
ENDMDL
MODEL 2
REMARK VINA RESULT:   -12.483      1.933      2.634
REMARK INTER + INTRA:         -14.703
REMARK INTER:                 -13.676
REMARK INTRA:                  -1.027
REMARK CONF_INDEPENDENT:        1.193
REMARK UNBOUND:                -1.027
REMARK  4 active torsions:
REMARK  status: ('A' for Active; 'I' for Inactive)
REMARK    1  A    between atoms: C1_2  and  C2_3 
REMARK       I    between atoms: C1_2  and  N2_21 
REMARK    2  A    between atoms: C3_4  and  C4_5 
REMARK       I    between atoms: N1_12  and  C11_13 
REMARK    3  A    between atoms: C11_13  and  C12_15 
REMARK    4  A    between atoms: N2_21  and  O3_22 
ROOT
ATOM      1  C4  NON d   1     -42.755  18.185  -4.606  0.00  0.00    -0.035 A 
ATOM      2  C5  NON d   1     -42.593  19.576  -4.804  0.00  0.00     0.012 A 
ATOM      3  C6  NON d   1     -41.458  20.254  -4.352  0.00  0.00     0.010 A 
ATOM      4  C7  NON d   1     -40.487  19.530  -3.687  0.00  0.00    -0.032 A 
ATOM      5  C8  NON d   1     -40.618  18.154  -3.487  0.00  0.00    -0.032 A 
ATOM      6  C9  NON d   1     -41.743  17.474  -3.932  0.00  0.00     0.021 A 
ATOM      7  C10 NON d   1     -39.414  17.632  -2.764  0.00  0.00     0.165 A 
ATOM      8  N1  NON d   1     -38.599  18.830  -2.531  0.00  0.00    -0.343 N 
ATOM      9  C11 NON d   1     -37.416  18.741  -1.835  0.00  0.00     0.224 C 
ATOM     10  O2  NON d   1     -37.000  17.643  -1.454  0.00  0.00    -0.273 OA
ATOM     11  C17 NON d   1     -39.198  20.021  -3.118  0.00  0.00     0.165 A 
ENDROOT
BRANCH   1  12
ATOM     12  C3  NON d   1     -43.968  17.463  -5.041  0.00  0.00     0.017 C 
ATOM     13  C2  NON d   1     -45.147  18.036  -5.338  0.00  0.00     0.077 C 
BRANCH  13  14
ATOM     14  C1  NON d   1     -46.319  17.210  -5.723  0.00  0.00     0.264 C 
ATOM     15  O1  NON d   1     -47.355  17.671  -6.186  0.00  0.00    -0.266 OA
ATOM     16  N2  NON d   1     -46.120  15.869  -5.526  0.00  0.00    -0.234 N 
ATOM     17  H19 NON d   1     -45.273  15.436  -5.183  0.00  0.00     0.197 HD
BRANCH  16  18
ATOM     18  O3  NON d   1     -47.160  15.005  -5.932  0.00  0.00    -0.287 OA
ATOM     19  H20 NON d   1     -47.746  15.607  -6.442  0.00  0.00     0.244 HD
ENDBRANCH  16  18
ENDBRANCH  13  14
ENDBRANCH   1  12
BRANCH   9  20
ATOM     20  C12 NON d   1     -36.696  20.037  -1.433  0.00  0.00     0.078 C 
ATOM     21  C13 NON d   1     -37.417  20.971  -0.468  0.00  0.00     0.014 C 
ATOM     22  C14 NON d   1     -36.719  22.312  -0.645  0.00  0.00     0.001 C 
ATOM     23  C15 NON d   1     -36.240  22.347  -2.089  0.00  0.00     0.001 C 
ATOM     24  C16 NON d   1     -36.485  20.951  -2.649  0.00  0.00     0.014 C 
ENDBRANCH   9  20
TORSDOF 4
ENDMDL
MODEL 3
REMARK VINA RESULT:   -11.237      2.485      8.983
REMARK INTER + INTRA:         -13.611
REMARK INTER:                 -12.430
REMARK INTRA:                  -1.181
REMARK CONF_INDEPENDENT:        1.193
REMARK UNBOUND:                -1.181
REMARK  4 active torsions:
REMARK  status: ('A' for Active; 'I' for Inactive)
REMARK    1  A    between atoms: C1_2  and  C2_3 
REMARK       I    between atoms: C1_2  and  N2_21 
REMARK    2  A    between atoms: C3_4  and  C4_5 
REMARK       I    between atoms: N1_12  and  C11_13 
REMARK    3  A    between atoms: C11_13  and  C12_15 
REMARK    4  A    between atoms: N2_21  and  O3_22 
ROOT
ATOM      1  C4  NON d   1     -41.358  19.436  -4.136  0.00  0.00    -0.035 A 
ATOM      2  C5  NON d   1     -41.300  18.524  -3.058  0.00  0.00     0.012 A 
ATOM      3  C6  NON d   1     -42.338  17.624  -2.801  0.00  0.00     0.010 A 
ATOM      4  C7  NON d   1     -43.444  17.651  -3.627  0.00  0.00    -0.032 A 
ATOM      5  C8  NON d   1     -43.523  18.536  -4.704  0.00  0.00    -0.032 A 
ATOM      6  C9  NON d   1     -42.496  19.432  -4.966  0.00  0.00     0.021 A 
ATOM      7  C10 NON d   1     -44.815  18.329  -5.435  0.00  0.00     0.165 A 
ATOM      8  N1  NON d   1     -45.489  17.279  -4.662  0.00  0.00    -0.343 N 
ATOM      9  C11 NON d   1     -46.749  16.856  -5.017  0.00  0.00     0.224 C 
ATOM     10  O2  NON d   1     -47.297  17.312  -6.024  0.00  0.00    -0.273 OA
ATOM     11  C17 NON d   1     -44.666  16.798  -3.560  0.00  0.00     0.165 A 
ENDROOT
BRANCH   1  12
ATOM     12  C3  NON d   1     -40.288  20.421  -4.394  0.00  0.00     0.017 C 
ATOM     13  C2  NON d   1     -40.480  21.720  -4.675  0.00  0.00     0.077 C 
BRANCH  13  14
ATOM     14  C1  NON d   1     -39.332  22.616  -4.962  0.00  0.00     0.264 C 
ATOM     15  O1  NON d   1     -39.291  23.388  -5.913  0.00  0.00    -0.266 OA
ATOM     16  N2  NON d   1     -38.322  22.507  -4.043  0.00  0.00    -0.234 N 
ATOM     17  H19 NON d   1     -38.323  21.914  -3.223  0.00  0.00     0.197 HD
BRANCH  16  18
ATOM     18  O3  NON d   1     -37.220  23.375  -4.202  0.00  0.00    -0.287 OA
ATOM     19  H20 NON d   1     -37.449  23.855  -5.028  0.00  0.00     0.244 HD
ENDBRANCH  16  18
ENDBRANCH  13  14
ENDBRANCH   1  12
BRANCH   9  20
ATOM     20  C12 NON d   1     -47.504  15.910  -4.071  0.00  0.00     0.078 C 
ATOM     21  C13 NON d   1     -48.632  15.076  -4.666  0.00  0.00     0.014 C 
ATOM     22  C14 NON d   1     -49.461  14.644  -3.464  0.00  0.00     0.001 C 
ATOM     23  C15 NON d   1     -49.313  15.755  -2.435  0.00  0.00     0.001 C 
ATOM     24  C16 NON d   1     -48.244  16.695  -2.978  0.00  0.00     0.014 C 
ENDBRANCH   9  20
TORSDOF 4
ENDMDL
MODEL 4
REMARK VINA RESULT:   -10.987      1.357      1.797
REMARK INTER + INTRA:         -13.107
REMARK INTER:                 -12.181
REMARK INTRA:                  -0.926
REMARK CONF_INDEPENDENT:        1.193
REMARK UNBOUND:                -0.926
REMARK  4 active torsions:
REMARK  status: ('A' for Active; 'I' for Inactive)
REMARK    1  A    between atoms: C1_2  and  C2_3 
REMARK       I    between atoms: C1_2  and  N2_21 
REMARK    2  A    between atoms: C3_4  and  C4_5 
REMARK       I    between atoms: N1_12  and  C11_13 
REMARK    3  A    between atoms: C11_13  and  C12_15 
REMARK    4  A    between atoms: N2_21  and  O3_22 
ROOT
ATOM      1  C4  NON d   1     -43.308  17.603  -4.216  0.00  0.00    -0.035 A 
ATOM      2  C5  NON d   1     -42.467  17.342  -3.111  0.00  0.00     0.012 A 
ATOM      3  C6  NON d   1     -41.340  18.124  -2.845  0.00  0.00     0.010 A 
ATOM      4  C7  NON d   1     -41.053  19.167  -3.704  0.00  0.00    -0.032 A 
ATOM      5  C8  NON d   1     -41.872  19.452  -4.798  0.00  0.00    -0.032 A 
ATOM      6  C9  NON d   1     -42.993  18.679  -5.068  0.00  0.00     0.021 A 
ATOM      7  C10 NON d   1     -41.335  20.641  -5.535  0.00  0.00     0.165 A 
ATOM      8  N1  NON d   1     -40.117  20.990  -4.796  0.00  0.00    -0.343 N 
ATOM      9  C11 NON d   1     -39.318  22.025  -5.222  0.00  0.00     0.224 C 
ATOM     10  O2  NON d   1     -39.652  22.708  -6.194  0.00  0.00    -0.273 OA
ATOM     11  C17 NON d   1     -39.920  20.136  -3.632  0.00  0.00     0.165 A 
ENDROOT
BRANCH   1  12
ATOM     12  C3  NON d   1     -44.479  16.759  -4.533  0.00  0.00     0.017 C 
ATOM     13  C2  NON d   1     -45.547  17.150  -5.248  0.00  0.00     0.077 C 
BRANCH  13  14
ATOM     14  C1  NON d   1     -46.692  16.233  -5.471  0.00  0.00     0.264 C 
ATOM     15  O1  NON d   1     -46.640  15.238  -6.185  0.00  0.00    -0.266 OA
ATOM     16  N2  NON d   1     -47.817  16.599  -4.780  0.00  0.00    -0.234 N 
ATOM     17  H19 NON d   1     -47.901  17.387  -4.151  0.00  0.00     0.197 HD
BRANCH  16  18
ATOM     18  O3  NON d   1     -48.934  15.740  -4.881  0.00  0.00    -0.287 OA
ATOM     19  H20 NON d   1     -48.869  15.421  -5.808  0.00  0.00     0.244 HD
ENDBRANCH  16  18
ENDBRANCH  13  14
ENDBRANCH   1  12
BRANCH   9  20
ATOM     20  C12 NON d   1     -37.952  22.230  -4.549  0.00  0.00     0.078 C 
ATOM     21  C13 NON d   1     -37.919  22.270  -3.026  0.00  0.00     0.014 C 
ATOM     22  C14 NON d   1     -36.595  22.943  -2.692  0.00  0.00     0.001 C 
ATOM     23  C15 NON d   1     -36.309  23.896  -3.843  0.00  0.00     0.001 C 
ATOM     24  C16 NON d   1     -37.359  23.601  -4.907  0.00  0.00     0.014 C 
ENDBRANCH   9  20
TORSDOF 4
ENDMDL
MODEL 5
REMARK VINA RESULT:   -10.901      1.572      2.141
REMARK INTER + INTRA:         -12.579
REMARK INTER:                 -12.094
REMARK INTRA:                  -0.485
REMARK CONF_INDEPENDENT:        1.193
REMARK UNBOUND:                -0.485
REMARK  4 active torsions:
REMARK  status: ('A' for Active; 'I' for Inactive)
REMARK    1  A    between atoms: C1_2  and  C2_3 
REMARK       I    between atoms: C1_2  and  N2_21 
REMARK    2  A    between atoms: C3_4  and  C4_5 
REMARK       I    between atoms: N1_12  and  C11_13 
REMARK    3  A    between atoms: C11_13  and  C12_15 
REMARK    4  A    between atoms: N2_21  and  O3_22 
ROOT
ATOM      1  C4  NON d   1     -42.603  17.509  -4.626  0.00  0.00    -0.035 A 
ATOM      2  C5  NON d   1     -41.609  17.910  -5.548  0.00  0.00     0.012 A 
ATOM      3  C6  NON d   1     -40.526  18.703  -5.160  0.00  0.00     0.010 A 
ATOM      4  C7  NON d   1     -40.450  19.102  -3.840  0.00  0.00    -0.032 A 
ATOM      5  C8  NON d   1     -41.413  18.712  -2.907  0.00  0.00    -0.032 A 
ATOM      6  C9  NON d   1     -42.492  17.925  -3.286  0.00  0.00     0.021 A 
ATOM      7  C10 NON d   1     -41.066  19.268  -1.559  0.00  0.00     0.165 A 
ATOM      8  N1  NON d   1     -39.844  20.044  -1.805  0.00  0.00    -0.343 N 
ATOM      9  C11 NON d   1     -39.253  20.751  -0.784  0.00  0.00     0.224 C 
ATOM     10  O2  NON d   1     -39.709  20.688   0.361  0.00  0.00    -0.273 OA
ATOM     11  C17 NON d   1     -39.400  19.939  -3.189  0.00  0.00     0.165 A 
ENDROOT
BRANCH   1  12
ATOM     12  C3  NON d   1     -43.776  16.706  -5.031  0.00  0.00     0.017 C 
ATOM     13  C2  NON d   1     -44.956  17.206  -5.434  0.00  0.00     0.077 C 
BRANCH  13  14
ATOM     14  C1  NON d   1     -46.086  16.308  -5.777  0.00  0.00     0.264 C 
ATOM     15  O1  NON d   1     -45.949  15.142  -6.128  0.00  0.00    -0.266 OA
ATOM     16  N2  NON d   1     -47.310  16.909  -5.645  0.00  0.00    -0.234 N 
ATOM     17  H19 NON d   1     -47.480  17.853  -5.325  0.00  0.00     0.197 HD
BRANCH  16  18
ATOM     18  O3  NON d   1     -48.444  16.103  -5.885  0.00  0.00    -0.287 OA
ATOM     19  H20 NON d   1     -48.720  16.390  -6.782  0.00  0.00     0.244 HD
ENDBRANCH  16  18
ENDBRANCH  13  14
ENDBRANCH   1  12
BRANCH   9  20
ATOM     20  C12 NON d   1     -38.102  21.710  -1.120  0.00  0.00     0.078 C 
ATOM     21  C13 NON d   1     -37.511  22.525   0.024  0.00  0.00     0.014 C 
ATOM     22  C14 NON d   1     -36.782  23.672  -0.663  0.00  0.00     0.001 C 
ATOM     23  C15 NON d   1     -37.546  23.941  -1.950  0.00  0.00     0.001 C 
ATOM     24  C16 NON d   1     -38.566  22.815  -2.080  0.00  0.00     0.014 C 
ENDBRANCH   9  20
TORSDOF 4
ENDMDL
MODEL 6
REMARK VINA RESULT:   -10.442      2.003      2.649
REMARK INTER + INTRA:         -12.765
REMARK INTER:                 -11.636
REMARK INTRA:                  -1.130
REMARK CONF_INDEPENDENT:        1.193
REMARK UNBOUND:                -1.130
REMARK  4 active torsions:
REMARK  status: ('A' for Active; 'I' for Inactive)
REMARK    1  A    between atoms: C1_2  and  C2_3 
REMARK       I    between atoms: C1_2  and  N2_21 
REMARK    2  A    between atoms: C3_4  and  C4_5 
REMARK       I    between atoms: N1_12  and  C11_13 
REMARK    3  A    between atoms: C11_13  and  C12_15 
REMARK    4  A    between atoms: N2_21  and  O3_22 
ROOT
ATOM      1  C4  NON d   1     -44.093  17.453  -4.760  0.00  0.00    -0.035 A 
ATOM      2  C5  NON d   1     -44.034  18.827  -5.083  0.00  0.00     0.012 A 
ATOM      3  C6  NON d   1     -42.917  19.607  -4.771  0.00  0.00     0.010 A 
ATOM      4  C7  NON d   1     -41.860  19.001  -4.121  0.00  0.00    -0.032 A 
ATOM      5  C8  NON d   1     -41.889  17.643  -3.799  0.00  0.00    -0.032 A 
ATOM      6  C9  NON d   1     -42.996  16.862  -4.105  0.00  0.00     0.021 A 
ATOM      7  C10 NON d   1     -40.608  17.256  -3.124  0.00  0.00     0.165 A 
ATOM      8  N1  NON d   1     -39.858  18.515  -3.049  0.00  0.00    -0.343 N 
ATOM      9  C11 NON d   1     -38.628  18.555  -2.435  0.00  0.00     0.224 C 
ATOM     10  O2  NON d   1     -38.118  17.521  -1.997  0.00  0.00    -0.273 OA
ATOM     11  C17 NON d   1     -40.570  19.614  -3.689  0.00  0.00     0.165 A 
ENDROOT
BRANCH   1  12
ATOM     12  C3  NON d   1     -45.285  16.626  -5.046  0.00  0.00     0.017 C 
ATOM     13  C2  NON d   1     -46.408  16.604  -4.309  0.00  0.00     0.077 C 
BRANCH  13  14
ATOM     14  C1  NON d   1     -47.532  15.701  -4.662  0.00  0.00     0.264 C 
ATOM     15  O1  NON d   1     -47.814  15.380  -5.810  0.00  0.00    -0.266 OA
ATOM     16  N2  NON d   1     -48.218  15.243  -3.567  0.00  0.00    -0.234 N 
ATOM     17  H19 NON d   1     -48.003  15.449  -2.600  0.00  0.00     0.197 HD
BRANCH  16  18
ATOM     18  O3  NON d   1     -49.261  14.323  -3.809  0.00  0.00    -0.287 OA
ATOM     19  H20 NON d   1     -49.128  14.099  -4.756  0.00  0.00     0.244 HD
ENDBRANCH  16  18
ENDBRANCH  13  14
ENDBRANCH   1  12
BRANCH   9  20
ATOM     20  C12 NON d   1     -37.967  19.920  -2.195  0.00  0.00     0.078 C 
ATOM     21  C13 NON d   1     -36.647  19.937  -1.433  0.00  0.00     0.014 C 
ATOM     22  C14 NON d   1     -36.507  21.373  -0.947  0.00  0.00     0.001 C 
ATOM     23  C15 NON d   1     -37.925  21.884  -0.740  0.00  0.00     0.001 C 
ATOM     24  C16 NON d   1     -38.848  20.812  -1.307  0.00  0.00     0.014 C 
ENDBRANCH   9  20
TORSDOF 4
ENDMDL
