MODEL 1
REMARK VINA RESULT:   -17.858      0.000      0.000
REMARK INTER + INTRA:         -20.610
REMARK INTER:                 -19.946
REMARK INTRA:                  -0.665
REMARK CONF_INDEPENDENT:        2.088
REMARK UNBOUND:                -0.665
REMARK  7 active torsions:
REMARK  status: ('A' for Active; 'I' for Inactive)
REMARK    1  A    between atoms: C1_2  and  C2_3 
REMARK    2  A    between atoms: C1_2  and  C9_12 
REMARK    3  A    between atoms: C2_3  and  C3_4 
REMARK    4  A    between atoms: C6_7  and  O2_8 
REMARK       I    between atoms: C9_12  and  N1_14 
REMARK    5  A    between atoms: N1_14  and  C10_15 
REMARK    6  A    between atoms: C10_15  and  C11_16 
REMARK    7  A    between atoms: C11_16  and  S1_17 
ROOT
ATOM      1  O1  NON d   1     -43.614  16.112  -5.428  0.00  0.00    -0.287 OA
ATOM      2  C1  NON d   1     -44.162  17.144  -5.057  0.00  0.00     0.220 C 
ENDROOT
BRANCH   2   3
ATOM      3  C2  NON d   1     -43.506  18.445  -4.654  0.00  0.00     0.127 C 
BRANCH   3   4
ATOM      4  C3  NON d   1     -42.157  18.421  -3.962  0.00  0.00    -0.049 A 
ATOM      5  C4  NON d   1     -41.960  18.014  -2.636  0.00  0.00     0.010 A 
ATOM      6  C5  NON d   1     -40.673  17.953  -2.087  0.00  0.00     0.038 A 
ATOM      7  C6  NON d   1     -39.568  18.271  -2.866  0.00  0.00     0.083 A 
ATOM      8  C7  NON d   1     -39.738  18.656  -4.193  0.00  0.00     0.044 A 
ATOM      9 Br1  NON d   1     -38.245  19.064  -5.286  0.00  0.00    -0.048 Br
ATOM     10  C8  NON d   1     -41.022  18.729  -4.738  0.00  0.00     0.029 A 
BRANCH   7  11
ATOM     11  O2  NON d   1     -38.337  18.178  -2.281  0.00  0.00    -0.359 OA
ATOM     12  H5  NON d   1     -38.465  18.295  -1.322  0.00  0.00     0.217 HD
ENDBRANCH   7  11
ENDBRANCH   3   4
ENDBRANCH   2   3
BRANCH   2  13
ATOM     13  C9  NON d   1     -45.689  17.141  -4.941  0.00  0.00     0.287 C 
ATOM     14  O3  NON d   1     -46.374  17.630  -5.826  0.00  0.00    -0.264 OA
ATOM     15  N1  NON d   1     -46.164  16.569  -3.778  0.00  0.00    -0.354 N 
ATOM     16  H7  NON d   1     -45.456  16.378  -3.072  0.00  0.00     0.162 HD
BRANCH  15  17
ATOM     17  C10 NON d   1     -47.558  16.697  -3.397  0.00  0.00     0.133 C 
BRANCH  17  18
ATOM     18  C11 NON d   1     -48.451  15.715  -4.151  0.00  0.00     0.090 C 
BRANCH  18  19
ATOM     19  S1  NON d   1     -47.790  15.380  -5.810  0.00  0.00    -0.181 SA
ATOM     20  H12 NON d   1     -48.215  16.517  -6.380  0.00  0.00     0.101 HD
ENDBRANCH  18  19
ENDBRANCH  17  18
ENDBRANCH  15  17
ENDBRANCH   2  13
TORSDOF 7
ENDMDL
MODEL 2
REMARK VINA RESULT:   -16.848      1.523      1.827
REMARK INTER + INTRA:         -19.724
REMARK INTER:                 -18.936
REMARK INTRA:                  -0.787
REMARK CONF_INDEPENDENT:        2.088
REMARK UNBOUND:                -0.787
REMARK  7 active torsions:
REMARK  status: ('A' for Active; 'I' for Inactive)
REMARK    1  A    between atoms: C1_2  and  C2_3 
REMARK    2  A    between atoms: C1_2  and  C9_12 
REMARK    3  A    between atoms: C2_3  and  C3_4 
REMARK    4  A    between atoms: C6_7  and  O2_8 
REMARK       I    between atoms: C9_12  and  N1_14 
REMARK    5  A    between atoms: N1_14  and  C10_15 
REMARK    6  A    between atoms: C10_15  and  C11_16 
REMARK    7  A    between atoms: C11_16  and  S1_17 
ROOT
ATOM      1  O1  NON d   1     -43.411  16.134  -5.340  0.00  0.00    -0.287 OA
ATOM      2  C1  NON d   1     -44.016  17.152  -5.023  0.00  0.00     0.220 C 
ENDROOT
BRANCH   2   3
ATOM      3  C2  NON d   1     -43.432  18.506  -4.686  0.00  0.00     0.127 C 
BRANCH   3   4
ATOM      4  C3  NON d   1     -41.960  18.770  -4.934  0.00  0.00    -0.049 A 
ATOM      5  C4  NON d   1     -40.928  18.321  -4.099  0.00  0.00     0.010 A 
ATOM      6  C5  NON d   1     -39.587  18.546  -4.432  0.00  0.00     0.038 A 
ATOM      7  C6  NON d   1     -39.262  19.196  -5.616  0.00  0.00     0.083 A 
ATOM      8  C7  NON d   1     -40.270  19.629  -6.473  0.00  0.00     0.044 A 
ATOM      9 Br1  NON d   1     -39.853  20.489  -8.108  0.00  0.00    -0.048 Br
ATOM     10  C8  NON d   1     -41.609  19.417  -6.136  0.00  0.00     0.029 A 
BRANCH   7  11
ATOM     11  O2  NON d   1     -37.936  19.371  -5.895  0.00  0.00    -0.359 OA
ATOM     12  H5  NON d   1     -37.694  20.264  -5.588  0.00  0.00     0.217 HD
ENDBRANCH   7  11
ENDBRANCH   3   4
ENDBRANCH   2   3
BRANCH   2  13
ATOM     13  C9  NON d   1     -45.541  17.073  -4.911  0.00  0.00     0.287 C 
ATOM     14  O3  NON d   1     -46.247  17.502  -5.810  0.00  0.00    -0.264 OA
ATOM     15  N1  NON d   1     -45.989  16.509  -3.734  0.00  0.00    -0.354 N 
ATOM     16  H7  NON d   1     -45.275  16.374  -3.021  0.00  0.00     0.162 HD
BRANCH  15  17
ATOM     17  C10 NON d   1     -47.390  16.574  -3.360  0.00  0.00     0.133 C 
BRANCH  17  18
ATOM     18  C11 NON d   1     -48.217  15.486  -4.041  0.00  0.00     0.090 C 
BRANCH  18  19
ATOM     19  S1  NON d   1     -47.815  15.380  -5.810  0.00  0.00    -0.181 SA
ATOM     20  H12 NON d   1     -48.160  16.637  -6.125  0.00  0.00     0.101 HD
ENDBRANCH  18  19
ENDBRANCH  17  18
ENDBRANCH  15  17
ENDBRANCH   2  13
TORSDOF 7
ENDMDL
MODEL 3
REMARK VINA RESULT:   -16.296      1.444      2.063
REMARK INTER + INTRA:         -19.360
REMARK INTER:                 -18.384
REMARK INTRA:                  -0.976
REMARK CONF_INDEPENDENT:        2.088
REMARK UNBOUND:                -0.976
REMARK  7 active torsions:
REMARK  status: ('A' for Active; 'I' for Inactive)
REMARK    1  A    between atoms: C1_2  and  C2_3 
REMARK    2  A    between atoms: C1_2  and  C9_12 
REMARK    3  A    between atoms: C2_3  and  C3_4 
REMARK    4  A    between atoms: C6_7  and  O2_8 
REMARK       I    between atoms: C9_12  and  N1_14 
REMARK    5  A    between atoms: N1_14  and  C10_15 
REMARK    6  A    between atoms: C10_15  and  C11_16 
REMARK    7  A    between atoms: C11_16  and  S1_17 
ROOT
ATOM      1  O1  NON d   1     -43.143  16.280  -4.457  0.00  0.00    -0.287 OA
ATOM      2  C1  NON d   1     -43.841  17.260  -4.693  0.00  0.00     0.220 C 
ENDROOT
BRANCH   2   3
ATOM      3  C2  NON d   1     -43.390  18.689  -4.894  0.00  0.00     0.127 C 
BRANCH   3   4
ATOM      4  C3  NON d   1     -41.925  18.983  -5.146  0.00  0.00    -0.049 A 
ATOM      5  C4  NON d   1     -41.443  19.693  -6.254  0.00  0.00     0.010 A 
ATOM      6  C5  NON d   1     -40.080  19.985  -6.382  0.00  0.00     0.038 A 
ATOM      7  C6  NON d   1     -39.188  19.596  -5.392  0.00  0.00     0.083 A 
ATOM      8  C7  NON d   1     -39.646  18.910  -4.270  0.00  0.00     0.044 A 
ATOM      9 Br1  NON d   1     -38.455  18.396  -2.890  0.00  0.00    -0.048 Br
ATOM     10  C8  NON d   1     -41.004  18.606  -4.147  0.00  0.00     0.029 A 
BRANCH   7  11
ATOM     11  O2  NON d   1     -37.873  19.923  -5.564  0.00  0.00    -0.359 OA
ATOM     12  H5  NON d   1     -37.572  20.352  -4.742  0.00  0.00     0.217 HD
ENDBRANCH   7  11
ENDBRANCH   3   4
ENDBRANCH   2   3
BRANCH   2  13
ATOM     13  C9  NON d   1     -45.358  17.057  -4.765  0.00  0.00     0.287 C 
ATOM     14  O3  NON d   1     -45.956  17.262  -5.810  0.00  0.00    -0.264 OA
ATOM     15  N1  NON d   1     -45.929  16.657  -3.575  0.00  0.00    -0.354 N 
ATOM     16  H7  NON d   1     -45.317  16.710  -2.763  0.00  0.00     0.162 HD
BRANCH  15  17
ATOM     17  C10 NON d   1     -47.370  16.652  -3.402  0.00  0.00     0.133 C 
BRANCH  17  18
ATOM     18  C11 NON d   1     -48.016  15.407  -4.005  0.00  0.00     0.090 C 
BRANCH  18  19
ATOM     19  S1  NON d   1     -47.810  15.380  -5.810  0.00  0.00    -0.181 SA
ATOM     20  H12 NON d   1     -47.707  16.707  -5.975  0.00  0.00     0.101 HD
ENDBRANCH  18  19
ENDBRANCH  17  18
ENDBRANCH  15  17
ENDBRANCH   2  13
TORSDOF 7
ENDMDL
MODEL 4
REMARK VINA RESULT:   -15.780      2.236      2.610
REMARK INTER + INTRA:         -18.765
REMARK INTER:                 -17.868
REMARK INTRA:                  -0.897
REMARK CONF_INDEPENDENT:        2.088
REMARK UNBOUND:                -0.897
REMARK  7 active torsions:
REMARK  status: ('A' for Active; 'I' for Inactive)
REMARK    1  A    between atoms: C1_2  and  C2_3 
REMARK    2  A    between atoms: C1_2  and  C9_12 
REMARK    3  A    between atoms: C2_3  and  C3_4 
REMARK    4  A    between atoms: C6_7  and  O2_8 
REMARK       I    between atoms: C9_12  and  N1_14 
REMARK    5  A    between atoms: N1_14  and  C10_15 
REMARK    6  A    between atoms: C10_15  and  C11_16 
REMARK    7  A    between atoms: C11_16  and  S1_17 
ROOT
ATOM      1  O1  NON d   1     -44.704  19.072  -5.592  0.00  0.00    -0.287 OA
ATOM      2  C1  NON d   1     -44.310  18.044  -5.052  0.00  0.00     0.220 C 
ENDROOT
BRANCH   2   3
ATOM      3  C2  NON d   1     -42.915  17.738  -4.556  0.00  0.00     0.127 C 
BRANCH   3   4
ATOM      4  C3  NON d   1     -41.765  18.644  -4.949  0.00  0.00    -0.049 A 
ATOM      5  C4  NON d   1     -40.851  18.358  -5.972  0.00  0.00     0.010 A 
ATOM      6  C5  NON d   1     -39.856  19.277  -6.324  0.00  0.00     0.038 A 
ATOM      7  C6  NON d   1     -39.781  20.504  -5.677  0.00  0.00     0.083 A 
ATOM      8  C7  NON d   1     -40.692  20.821  -4.674  0.00  0.00     0.044 A 
ATOM      9 Br1  NON d   1     -40.631  22.499  -3.798  0.00  0.00    -0.048 Br
ATOM     10  C8  NON d   1     -41.678  19.899  -4.313  0.00  0.00     0.029 A 
BRANCH   7  11
ATOM     11  O2  NON d   1     -38.798  21.366  -6.074  0.00  0.00    -0.359 OA
ATOM     12  H5  NON d   1     -38.332  20.947  -6.821  0.00  0.00     0.217 HD
ENDBRANCH   7  11
ENDBRANCH   3   4
ENDBRANCH   2   3
BRANCH   2  13
ATOM     13  C9  NON d   1     -45.313  16.900  -4.872  0.00  0.00     0.287 C 
ATOM     14  O3  NON d   1     -45.579  16.164  -5.810  0.00  0.00    -0.264 OA
ATOM     15  N1  NON d   1     -45.856  16.821  -3.606  0.00  0.00    -0.354 N 
ATOM     16  H7  NON d   1     -45.663  17.619  -3.004  0.00  0.00     0.162 HD
BRANCH  15  17
ATOM     17  C10 NON d   1     -46.989  15.957  -3.331  0.00  0.00     0.133 C 
BRANCH  17  18
ATOM     18  C11 NON d   1     -48.240  16.393  -4.090  0.00  0.00     0.090 C 
BRANCH  18  19
ATOM     19  S1  NON d   1     -48.190  15.810  -5.810  0.00  0.00    -0.181 SA
ATOM     20  H12 NON d   1     -47.433  16.807  -6.291  0.00  0.00     0.101 HD
ENDBRANCH  18  19
ENDBRANCH  17  18
ENDBRANCH  15  17
ENDBRANCH   2  13
TORSDOF 7
ENDMDL
