MODEL 1
REMARK VINA RESULT:   -31.130      0.000      0.000
REMARK INTER + INTRA:         -36.489
REMARK INTER:                 -33.815
REMARK INTRA:                  -2.674
REMARK CONF_INDEPENDENT:        2.685
REMARK UNBOUND:                -2.674
REMARK  9 active torsions:
REMARK  status: ('A' for Active; 'I' for Inactive)
REMARK       I    between atoms: C1_2  and  N1_3 
REMARK    1  A    between atoms: C1_2  and  C2_5 
REMARK    2  A    between atoms: N1_3  and  O2_4 
REMARK    3  A    between atoms: C5_8  and  C6_9 
REMARK    4  A    between atoms: N2_12  and  C9_13 
REMARK    5  A    between atoms: C9_13  and  C10_14 
REMARK    6  A    between atoms: C10_14  and  N3_15 
REMARK    7  A    between atoms: N3_15  and  C11_16 
REMARK    8  A    between atoms: C11_16  and  C12_17 
REMARK    9  A    between atoms: C15_20  and  C16_21 
ROOT
ATOM      1  C9  NON d   1     -38.410  18.589  -2.423  0.00  0.00     0.177 C 
ENDROOT
BRANCH   1   2
ATOM      2  N2  NON d   1     -38.181  19.945  -1.958  0.00  0.00    -0.279 N 
ATOM      3  C8  NON d   1     -37.033  20.678  -1.942  0.00  0.00     0.114 A 
ATOM      4  C7  NON d   1     -37.367  21.881  -1.358  0.00  0.00     0.053 A 
ATOM      5  C6  NON d   1     -38.746  21.790  -1.049  0.00  0.00     0.095 A 
ATOM      6  N5  NON d   1     -39.236  20.610  -1.455  0.00  0.00    -0.172 NA
BRANCH   5   7
ATOM      7  C5  NON d   1     -39.571  22.838  -0.345  0.00  0.00     0.036 A 
ATOM      8  C4  NON d   1     -40.438  23.696  -0.988  0.00  0.00     0.023 A 
ATOM      9  C3  NON d   1     -41.066  24.610  -0.087  0.00  0.00     0.026 A 
ATOM     10  C2  NON d   1     -40.672  24.429   1.227  0.00  0.00     0.075 A 
ATOM     11  S1  NON d   1     -39.541  23.135   1.340  0.00  0.00    -0.082 SA
BRANCH  10  12
ATOM     12  C1  NON d   1     -41.069  25.164   2.433  0.00  0.00     0.281 C 
ATOM     13  O1  NON d   1     -41.591  26.277   2.427  0.00  0.00    -0.265 OA
ATOM     14  N1  NON d   1     -40.808  24.482   3.619  0.00  0.00    -0.233 N 
ATOM     15  H1  NON d   1     -40.091  23.768   3.627  0.00  0.00     0.197 HD
BRANCH  14  16
ATOM     16  O2  NON d   1     -40.883  25.244   4.808  0.00  0.00    -0.287 OA
ATOM     17  H2  NON d   1     -40.703  26.147   4.484  0.00  0.00     0.244 HD
ENDBRANCH  14  16
ENDBRANCH  10  12
ENDBRANCH   5   7
ENDBRANCH   1   2
BRANCH   1  18
ATOM     18  C10 NON d   1     -39.741  18.302  -3.123  0.00  0.00     0.254 C 
BRANCH  18  19
ATOM     19  N3  NON d   1     -40.452  19.569  -3.536  0.00  0.00    -0.070 N 
ATOM     20  H11 NON d   1     -39.763  20.317  -3.684  0.00  0.00     0.277 HD
ATOM     21  H12 NON d   1     -41.065  19.919  -2.787  0.00  0.00     0.277 HD
BRANCH  19  22
ATOM     22  C11 NON d   1     -41.261  19.468  -4.798  0.00  0.00     0.270 C 
BRANCH  22  23
ATOM     23  C12 NON d   1     -42.606  18.794  -4.721  0.00  0.00    -0.033 A 
ATOM     24  C13 NON d   1     -42.736  17.686  -3.867  0.00  0.00     0.010 A 
ATOM     25  C14 NON d   1     -43.948  16.985  -3.744  0.00  0.00     0.014 A 
ATOM     26  C15 NON d   1     -45.091  17.359  -4.467  0.00  0.00    -0.007 A 
ATOM     27  C21 NON d   1     -44.945  18.475  -5.318  0.00  0.00     0.014 A 
ATOM     28  C22 NON d   1     -43.735  19.179  -5.449  0.00  0.00     0.010 A 
BRANCH  26  29
ATOM     29  C16 NON d   1     -46.394  16.645  -4.368  0.00  0.00     0.066 A 
ATOM     30  C17 NON d   1     -46.926  16.141  -3.179  0.00  0.00     0.032 A 
ATOM     31  C18 NON d   1     -48.158  15.484  -3.195  0.00  0.00     0.004 A 
ATOM     32  C19 NON d   1     -48.840  15.340  -4.393  0.00  0.00     0.019 A 
ATOM     33  C20 NON d   1     -48.257  15.862  -5.531  0.00  0.00     0.117 A 
ATOM     34  N4  NON d   1     -47.065  16.504  -5.544  0.00  0.00    -0.260 NA
ENDBRANCH  26  29
ENDBRANCH  22  23
ENDBRANCH  19  22
ENDBRANCH  18  19
ENDBRANCH   1  18
TORSDOF 9
ENDMDL
MODEL 2
REMARK VINA RESULT:   -31.011      5.750      7.465
REMARK INTER + INTRA:         -35.460
REMARK INTER:                 -33.695
REMARK INTRA:                  -1.764
REMARK CONF_INDEPENDENT:        2.685
REMARK UNBOUND:                -1.764
REMARK  9 active torsions:
REMARK  status: ('A' for Active; 'I' for Inactive)
REMARK       I    between atoms: C1_2  and  N1_3 
REMARK    1  A    between atoms: C1_2  and  C2_5 
REMARK    2  A    between atoms: N1_3  and  O2_4 
REMARK    3  A    between atoms: C5_8  and  C6_9 
REMARK    4  A    between atoms: N2_12  and  C9_13 
REMARK    5  A    between atoms: C9_13  and  C10_14 
REMARK    6  A    between atoms: C10_14  and  N3_15 
REMARK    7  A    between atoms: N3_15  and  C11_16 
REMARK    8  A    between atoms: C11_16  and  C12_17 
REMARK    9  A    between atoms: C15_20  and  C16_21 
ROOT
ATOM      1  C9  NON d   1     -38.031  19.235  -4.869  0.00  0.00     0.177 C 
ENDROOT
BRANCH   1   2
ATOM      2  N2  NON d   1     -38.677  19.525  -6.136  0.00  0.00    -0.279 N 
ATOM      3  C8  NON d   1     -39.209  18.673  -7.057  0.00  0.00     0.114 A 
ATOM      4  C7  NON d   1     -39.652  19.470  -8.090  0.00  0.00     0.053 A 
ATOM      5  C6  NON d   1     -39.346  20.799  -7.710  0.00  0.00     0.095 A 
ATOM      6  N5  NON d   1     -38.780  20.817  -6.495  0.00  0.00    -0.172 NA
BRANCH   5   7
ATOM      7  C5  NON d   1     -39.587  22.038  -8.535  0.00  0.00     0.036 A 
ATOM      8  C4  NON d   1     -39.884  23.275  -8.002  0.00  0.00     0.023 A 
ATOM      9  C3  NON d   1     -40.097  24.264  -9.010  0.00  0.00     0.026 A 
ATOM     10  C2  NON d   1     -39.952  23.768 -10.294  0.00  0.00     0.075 A 
ATOM     11  S1  NON d   1     -39.550  22.093 -10.246  0.00  0.00    -0.082 SA
BRANCH  10  12
ATOM     12  C1  NON d   1     -40.101  24.450 -11.584  0.00  0.00     0.281 C 
ATOM     13  O1  NON d   1     -39.845  25.637 -11.774  0.00  0.00    -0.265 OA
ATOM     14  N1  NON d   1     -40.561  23.625 -12.606  0.00  0.00    -0.233 N 
ATOM     15  H1  NON d   1     -41.082  22.790 -12.367  0.00  0.00     0.197 HD
BRANCH  14  16
ATOM     16  O2  NON d   1     -41.011  24.274 -13.779  0.00  0.00    -0.287 OA
ATOM     17  H2  NON d   1     -41.311  25.136 -13.433  0.00  0.00     0.244 HD
ENDBRANCH  14  16
ENDBRANCH  10  12
ENDBRANCH   5   7
ENDBRANCH   1   2
BRANCH   1  18
ATOM     18  C10 NON d   1     -38.838  19.497  -3.595  0.00  0.00     0.254 C 
BRANCH  18  19
ATOM     19  N3  NON d   1     -40.138  18.729  -3.575  0.00  0.00    -0.070 N 
ATOM     20  H11 NON d   1     -40.625  18.901  -2.686  0.00  0.00     0.277 HD
ATOM     21  H12 NON d   1     -39.975  17.713  -3.596  0.00  0.00     0.277 HD
BRANCH  19  22
ATOM     22  C11 NON d   1     -41.104  19.075  -4.673  0.00  0.00     0.270 C 
BRANCH  22  23
ATOM     23  C12 NON d   1     -42.486  18.481  -4.610  0.00  0.00    -0.033 A 
ATOM     24  C13 NON d   1     -42.670  17.332  -3.822  0.00  0.00     0.010 A 
ATOM     25  C14 NON d   1     -43.920  16.699  -3.719  0.00  0.00     0.014 A 
ATOM     26  C15 NON d   1     -45.050  17.185  -4.394  0.00  0.00    -0.007 A 
ATOM     27  C21 NON d   1     -44.850  18.341  -5.178  0.00  0.00     0.014 A 
ATOM     28  C22 NON d   1     -43.601  18.978  -5.291  0.00  0.00     0.010 A 
BRANCH  26  29
ATOM     29  C16 NON d   1     -46.393  16.546  -4.313  0.00  0.00     0.066 A 
ATOM     30  C17 NON d   1     -46.941  16.015  -3.143  0.00  0.00     0.032 A 
ATOM     31  C18 NON d   1     -48.211  15.435  -3.175  0.00  0.00     0.004 A 
ATOM     32  C19 NON d   1     -48.913  15.393  -4.369  0.00  0.00     0.019 A 
ATOM     33  C20 NON d   1     -48.313  15.936  -5.487  0.00  0.00     0.117 A 
ATOM     34  N4  NON d   1     -47.084  16.505  -5.484  0.00  0.00    -0.260 NA
ENDBRANCH  26  29
ENDBRANCH  22  23
ENDBRANCH  19  22
ENDBRANCH  18  19
ENDBRANCH   1  18
TORSDOF 9
ENDMDL
MODEL 3
REMARK VINA RESULT:   -30.753      1.732      2.041
REMARK INTER + INTRA:         -35.885
REMARK INTER:                 -33.438
REMARK INTRA:                  -2.447
REMARK CONF_INDEPENDENT:        2.685
REMARK UNBOUND:                -2.447
REMARK  9 active torsions:
REMARK  status: ('A' for Active; 'I' for Inactive)
REMARK       I    between atoms: C1_2  and  N1_3 
REMARK    1  A    between atoms: C1_2  and  C2_5 
REMARK    2  A    between atoms: N1_3  and  O2_4 
REMARK    3  A    between atoms: C5_8  and  C6_9 
REMARK    4  A    between atoms: N2_12  and  C9_13 
REMARK    5  A    between atoms: C9_13  and  C10_14 
REMARK    6  A    between atoms: C10_14  and  N3_15 
REMARK    7  A    between atoms: N3_15  and  C11_16 
REMARK    8  A    between atoms: C11_16  and  C12_17 
REMARK    9  A    between atoms: C15_20  and  C16_21 
ROOT
ATOM      1  C9  NON d   1     -38.576  21.325  -5.649  0.00  0.00     0.177 C 
ENDROOT
BRANCH   1   2
ATOM      2  N2  NON d   1     -38.822  22.428  -4.738  0.00  0.00    -0.279 N 
ATOM      3  C8  NON d   1     -38.749  23.770  -4.956  0.00  0.00     0.114 A 
ATOM      4  C7  NON d   1     -39.036  24.360  -3.744  0.00  0.00     0.053 A 
ATOM      5  C6  NON d   1     -39.271  23.295  -2.842  0.00  0.00     0.095 A 
ATOM      6  N5  NON d   1     -39.169  22.118  -3.476  0.00  0.00    -0.172 NA
BRANCH   5   7
ATOM      7  C5  NON d   1     -39.572  23.425  -1.370  0.00  0.00     0.036 A 
ATOM      8  C4  NON d   1     -39.032  22.612  -0.397  0.00  0.00     0.023 A 
ATOM      9  C3  NON d   1     -39.513  22.933   0.909  0.00  0.00     0.026 A 
ATOM     10  C2  NON d   1     -40.407  23.990   0.910  0.00  0.00     0.075 A 
ATOM     11  S1  NON d   1     -40.640  24.579  -0.691  0.00  0.00    -0.082 SA
BRANCH  10  12
ATOM     12  C1  NON d   1     -41.127  24.605   2.031  0.00  0.00     0.281 C 
ATOM     13  O1  NON d   1     -41.286  25.816   2.172  0.00  0.00    -0.265 OA
ATOM     14  N1  NON d   1     -41.637  23.686   2.944  0.00  0.00    -0.233 N 
ATOM     15  H1  NON d   1     -41.214  22.769   3.006  0.00  0.00     0.197 HD
BRANCH  14  16
ATOM     16  O2  NON d   1     -42.070  24.211   4.183  0.00  0.00    -0.287 OA
ATOM     17  H2  NON d   1     -41.896  25.166   4.073  0.00  0.00     0.244 HD
ENDBRANCH  14  16
ENDBRANCH  10  12
ENDBRANCH   5   7
ENDBRANCH   1   2
BRANCH   1  18
ATOM     18  C10 NON d   1     -39.799  20.621  -6.244  0.00  0.00     0.254 C 
BRANCH  18  19
ATOM     19  N3  NON d   1     -40.917  20.474  -5.239  0.00  0.00    -0.070 N 
ATOM     20  H11 NON d   1     -41.810  20.729  -5.679  0.00  0.00     0.277 HD
ATOM     21  H12 NON d   1     -40.809  21.135  -4.457  0.00  0.00     0.277 HD
BRANCH  19  22
ATOM     22  C11 NON d   1     -41.091  19.095  -4.671  0.00  0.00     0.270 C 
BRANCH  22  23
ATOM     23  C12 NON d   1     -42.488  18.537  -4.590  0.00  0.00    -0.033 A 
ATOM     24  C13 NON d   1     -42.687  17.378  -3.821  0.00  0.00     0.010 A 
ATOM     25  C14 NON d   1     -43.953  16.778  -3.703  0.00  0.00     0.014 A 
ATOM     26  C15 NON d   1     -45.082  17.309  -4.344  0.00  0.00    -0.007 A 
ATOM     27  C21 NON d   1     -44.866  18.474  -5.110  0.00  0.00     0.014 A 
ATOM     28  C22 NON d   1     -43.603  19.078  -5.237  0.00  0.00     0.010 A 
BRANCH  26  29
ATOM     29  C16 NON d   1     -46.440  16.705  -4.247  0.00  0.00     0.066 A 
ATOM     30  C17 NON d   1     -47.060  16.355  -3.045  0.00  0.00     0.032 A 
ATOM     31  C18 NON d   1     -48.338  15.793  -3.064  0.00  0.00     0.004 A 
ATOM     32  C19 NON d   1     -48.977  15.589  -4.276  0.00  0.00     0.019 A 
ATOM     33  C20 NON d   1     -48.308  15.957  -5.426  0.00  0.00     0.117 A 
ATOM     34  N4  NON d   1     -47.069  16.505  -5.436  0.00  0.00    -0.260 NA
ENDBRANCH  26  29
ENDBRANCH  22  23
ENDBRANCH  19  22
ENDBRANCH  18  19
ENDBRANCH   1  18
TORSDOF 9
ENDMDL
MODEL 4
REMARK VINA RESULT:   -30.480      4.154      5.270
REMARK INTER + INTRA:         -35.601
REMARK INTER:                 -33.165
REMARK INTRA:                  -2.435
REMARK CONF_INDEPENDENT:        2.685
REMARK UNBOUND:                -2.435
REMARK  9 active torsions:
REMARK  status: ('A' for Active; 'I' for Inactive)
REMARK       I    between atoms: C1_2  and  N1_3 
REMARK    1  A    between atoms: C1_2  and  C2_5 
REMARK    2  A    between atoms: N1_3  and  O2_4 
REMARK    3  A    between atoms: C5_8  and  C6_9 
REMARK    4  A    between atoms: N2_12  and  C9_13 
REMARK    5  A    between atoms: C9_13  and  C10_14 
REMARK    6  A    between atoms: C10_14  and  N3_15 
REMARK    7  A    between atoms: N3_15  and  C11_16 
REMARK    8  A    between atoms: C11_16  and  C12_17 
REMARK    9  A    between atoms: C15_20  and  C16_21 
ROOT
ATOM      1  C9  NON d   1     -40.150  19.977  -1.541  0.00  0.00     0.177 C 
ENDROOT
BRANCH   1   2
ATOM      2  N2  NON d   1     -40.265  21.411  -1.732  0.00  0.00    -0.279 N 
ATOM      3  C8  NON d   1     -40.499  22.395  -0.819  0.00  0.00     0.114 A 
ATOM      4  C7  NON d   1     -40.555  23.567  -1.541  0.00  0.00     0.053 A 
ATOM      5  C6  NON d   1     -40.345  23.198  -2.892  0.00  0.00     0.095 A 
ATOM      6  N5  NON d   1     -40.135  21.878  -2.986  0.00  0.00    -0.172 NA
BRANCH   5   7
ATOM      7  C5  NON d   1     -40.369  24.125  -4.081  0.00  0.00     0.036 A 
ATOM      8  C4  NON d   1     -40.859  25.414  -4.046  0.00  0.00     0.023 A 
ATOM      9  C3  NON d   1     -40.793  26.057  -5.319  0.00  0.00     0.026 A 
ATOM     10  C2  NON d   1     -40.247  25.250  -6.303  0.00  0.00     0.075 A 
ATOM     11  S1  NON d   1     -39.818  23.716  -5.649  0.00  0.00    -0.082 SA
BRANCH  10  12
ATOM     12  C1  NON d   1     -40.024  25.531  -7.726  0.00  0.00     0.281 C 
ATOM     13  O1  NON d   1     -39.686  26.625  -8.172  0.00  0.00    -0.265 OA
ATOM     14  N1  NON d   1     -40.222  24.430  -8.554  0.00  0.00    -0.233 N 
ATOM     15  H1  NON d   1     -40.816  23.674  -8.234  0.00  0.00     0.197 HD
BRANCH  14  16
ATOM     16  O2  NON d   1     -40.320  24.698  -9.939  0.00  0.00    -0.287 OA
ATOM     17  H2  NON d   1     -40.776  25.562  -9.948  0.00  0.00     0.244 HD
ENDBRANCH  14  16
ENDBRANCH  10  12
ENDBRANCH   5   7
ENDBRANCH   1   2
BRANCH   1  18
ATOM     18  C10 NON d   1     -40.779  19.074  -2.605  0.00  0.00     0.254 C 
BRANCH  18  19
ATOM     19  N3  NON d   1     -40.108  19.225  -3.950  0.00  0.00    -0.070 N 
ATOM     20  H11 NON d   1     -39.352  18.535  -4.036  0.00  0.00     0.277 HD
ATOM     21  H12 NON d   1     -39.643  20.140  -4.038  0.00  0.00     0.277 HD
BRANCH  19  22
ATOM     22  C11 NON d   1     -41.006  19.037  -5.140  0.00  0.00     0.270 C 
BRANCH  22  23
ATOM     23  C12 NON d   1     -42.356  18.408  -4.911  0.00  0.00    -0.033 A 
ATOM     24  C13 NON d   1     -43.488  19.105  -5.365  0.00  0.00     0.010 A 
ATOM     25  C14 NON d   1     -44.788  18.604  -5.179  0.00  0.00     0.014 A 
ATOM     26  C15 NON d   1     -45.020  17.380  -4.534  0.00  0.00    -0.007 A 
ATOM     27  C21 NON d   1     -43.873  16.691  -4.087  0.00  0.00     0.014 A 
ATOM     28  C22 NON d   1     -42.569  17.187  -4.265  0.00  0.00     0.010 A 
BRANCH  26  29
ATOM     29  C16 NON d   1     -46.379  16.812  -4.316  0.00  0.00     0.066 A 
ATOM     30  C17 NON d   1     -46.947  16.593  -3.058  0.00  0.00     0.032 A 
ATOM     31  C18 NON d   1     -48.231  16.053  -2.963  0.00  0.00     0.004 A 
ATOM     32  C19 NON d   1     -48.928  15.741  -4.119  0.00  0.00     0.019 A 
ATOM     33  C20 NON d   1     -48.308  15.982  -5.329  0.00  0.00     0.117 A 
ATOM     34  N4  NON d   1     -47.065  16.505  -5.450  0.00  0.00    -0.260 NA
ENDBRANCH  26  29
ENDBRANCH  22  23
ENDBRANCH  19  22
ENDBRANCH  18  19
ENDBRANCH   1  18
TORSDOF 9
ENDMDL
MODEL 5
REMARK VINA RESULT:   -30.441      5.663      7.136
REMARK INTER + INTRA:         -35.526
REMARK INTER:                 -33.126
REMARK INTRA:                  -2.400
REMARK CONF_INDEPENDENT:        2.685
REMARK UNBOUND:                -2.400
REMARK  9 active torsions:
REMARK  status: ('A' for Active; 'I' for Inactive)
REMARK       I    between atoms: C1_2  and  N1_3 
REMARK    1  A    between atoms: C1_2  and  C2_5 
REMARK    2  A    between atoms: N1_3  and  O2_4 
REMARK    3  A    between atoms: C5_8  and  C6_9 
REMARK    4  A    between atoms: N2_12  and  C9_13 
REMARK    5  A    between atoms: C9_13  and  C10_14 
REMARK    6  A    between atoms: C10_14  and  N3_15 
REMARK    7  A    between atoms: N3_15  and  C11_16 
REMARK    8  A    between atoms: C11_16  and  C12_17 
REMARK    9  A    between atoms: C15_20  and  C16_21 
ROOT
ATOM      1  C9  NON d   1     -38.158  19.030  -2.711  0.00  0.00     0.177 C 
ENDROOT
BRANCH   1   2
ATOM      2  N2  NON d   1     -37.638  19.147  -4.061  0.00  0.00    -0.279 N 
ATOM      3  C8  NON d   1     -36.486  18.656  -4.597  0.00  0.00     0.114 A 
ATOM      4  C7  NON d   1     -36.464  19.097  -5.902  0.00  0.00     0.053 A 
ATOM      5  C6  NON d   1     -37.649  19.853  -6.074  0.00  0.00     0.095 A 
ATOM      6  N5  NON d   1     -38.373  19.845  -4.946  0.00  0.00    -0.172 NA
BRANCH   5   7
ATOM      7  C5  NON d   1     -38.059  20.593  -7.322  0.00  0.00     0.036 A 
ATOM      8  C4  NON d   1     -39.189  21.377  -7.418  0.00  0.00     0.023 A 
ATOM      9  C3  NON d   1     -39.356  21.934  -8.723  0.00  0.00     0.026 A 
ATOM     10  C2  NON d   1     -38.347  21.571  -9.598  0.00  0.00     0.075 A 
ATOM     11  S1  NON d   1     -37.203  20.555  -8.804  0.00  0.00    -0.082 SA
BRANCH  10  12
ATOM     12  C1  NON d   1     -38.164  21.916 -11.012  0.00  0.00     0.281 C 
ATOM     13  O1  NON d   1     -37.073  21.984 -11.574  0.00  0.00    -0.265 OA
ATOM     14  N1  NON d   1     -39.355  22.161 -11.689  0.00  0.00    -0.233 N 
ATOM     15  H1  NON d   1     -40.173  22.440 -11.161  0.00  0.00     0.197 HD
BRANCH  14  16
ATOM     16  O2  NON d   1     -39.239  22.786 -12.953  0.00  0.00    -0.287 OA
ATOM     17  H2  NON d   1     -38.324  22.563 -13.207  0.00  0.00     0.244 HD
ENDBRANCH  14  16
ENDBRANCH  10  12
ENDBRANCH   5   7
ENDBRANCH   1   2
BRANCH   1  18
ATOM     18  C10 NON d   1     -39.660  18.777  -2.557  0.00  0.00     0.254 C 
BRANCH  18  19
ATOM     19  N3  NON d   1     -40.484  19.684  -3.440  0.00  0.00    -0.070 N 
ATOM     20  H11 NON d   1     -39.902  20.466  -3.767  0.00  0.00     0.277 HD
ATOM     21  H12 NON d   1     -41.250  20.127  -2.914  0.00  0.00     0.277 HD
BRANCH  19  22
ATOM     22  C11 NON d   1     -41.065  19.034  -4.663  0.00  0.00     0.270 C 
BRANCH  22  23
ATOM     23  C12 NON d   1     -42.476  18.514  -4.582  0.00  0.00    -0.033 A 
ATOM     24  C13 NON d   1     -42.698  17.329  -3.859  0.00  0.00     0.010 A 
ATOM     25  C14 NON d   1     -43.978  16.761  -3.745  0.00  0.00     0.014 A 
ATOM     26  C15 NON d   1     -45.102  17.352  -4.345  0.00  0.00    -0.007 A 
ATOM     27  C21 NON d   1     -44.864  18.542  -5.063  0.00  0.00     0.014 A 
ATOM     28  C22 NON d   1     -43.585  19.114  -5.186  0.00  0.00     0.010 A 
BRANCH  26  29
ATOM     29  C16 NON d   1     -46.475  16.784  -4.249  0.00  0.00     0.066 A 
ATOM     30  C17 NON d   1     -47.144  16.540  -3.047  0.00  0.00     0.032 A 
ATOM     31  C18 NON d   1     -48.432  16.003  -3.068  0.00  0.00     0.004 A 
ATOM     32  C19 NON d   1     -49.034  15.718  -4.283  0.00  0.00     0.019 A 
ATOM     33  C20 NON d   1     -48.318  15.984  -5.433  0.00  0.00     0.117 A 
ATOM     34  N4  NON d   1     -47.068  16.505  -5.442  0.00  0.00    -0.260 NA
ENDBRANCH  26  29
ENDBRANCH  22  23
ENDBRANCH  19  22
ENDBRANCH  18  19
ENDBRANCH   1  18
TORSDOF 9
ENDMDL
MODEL 6
REMARK VINA RESULT:   -30.334      1.120      1.629
REMARK INTER + INTRA:         -35.446
REMARK INTER:                 -33.019
REMARK INTRA:                  -2.427
REMARK CONF_INDEPENDENT:        2.685
REMARK UNBOUND:                -2.427
REMARK  9 active torsions:
REMARK  status: ('A' for Active; 'I' for Inactive)
REMARK       I    between atoms: C1_2  and  N1_3 
REMARK    1  A    between atoms: C1_2  and  C2_5 
REMARK    2  A    between atoms: N1_3  and  O2_4 
REMARK    3  A    between atoms: C5_8  and  C6_9 
REMARK    4  A    between atoms: N2_12  and  C9_13 
REMARK    5  A    between atoms: C9_13  and  C10_14 
REMARK    6  A    between atoms: C10_14  and  N3_15 
REMARK    7  A    between atoms: N3_15  and  C11_16 
REMARK    8  A    between atoms: C11_16  and  C12_17 
REMARK    9  A    between atoms: C15_20  and  C16_21 
ROOT
ATOM      1  C9  NON d   1     -37.741  19.052  -3.927  0.00  0.00     0.177 C 
ENDROOT
BRANCH   1   2
ATOM      2  N2  NON d   1     -37.380  19.665  -2.662  0.00  0.00    -0.279 N 
ATOM      3  C8  NON d   1     -36.280  19.470  -1.882  0.00  0.00     0.114 A 
ATOM      4  C7  NON d   1     -36.462  20.270  -0.775  0.00  0.00     0.053 A 
ATOM      5  C6  NON d   1     -37.705  20.919  -0.968  0.00  0.00     0.095 A 
ATOM      6  N5  NON d   1     -38.238  20.563  -2.145  0.00  0.00    -0.172 NA
BRANCH   5   7
ATOM      7  C5  NON d   1     -38.376  21.862  -0.001  0.00  0.00     0.036 A 
ATOM      8  C4  NON d   1     -37.818  22.269   1.193  0.00  0.00     0.023 A 
ATOM      9  C3  NON d   1     -38.681  23.136   1.929  0.00  0.00     0.026 A 
ATOM     10  C2  NON d   1     -39.880  23.381   1.283  0.00  0.00     0.075 A 
ATOM     11  S1  NON d   1     -39.928  22.548  -0.224  0.00  0.00    -0.082 SA
BRANCH  10  12
ATOM     12  C1  NON d   1     -41.024  24.194   1.708  0.00  0.00     0.281 C 
ATOM     13  O1  NON d   1     -41.864  24.664   0.944  0.00  0.00    -0.265 OA
ATOM     14  N1  NON d   1     -41.091  24.393   3.085  0.00  0.00    -0.233 N 
ATOM     15  H1  NON d   1     -40.246  24.312   3.635  0.00  0.00     0.197 HD
BRANCH  14  16
ATOM     16  O2  NON d   1     -41.978  25.402   3.528  0.00  0.00    -0.287 OA
ATOM     17  H2  NON d   1     -42.100  25.937   2.720  0.00  0.00     0.244 HD
ENDBRANCH  14  16
ENDBRANCH  10  12
ENDBRANCH   5   7
ENDBRANCH   1   2
BRANCH   1  18
ATOM     18  C10 NON d   1     -39.086  18.325  -3.995  0.00  0.00     0.254 C 
BRANCH  18  19
ATOM     19  N3  NON d   1     -40.241  19.227  -3.627  0.00  0.00    -0.070 N 
ATOM     20  H11 NON d   1     -39.883  20.156  -3.373  0.00  0.00     0.277 HD
ATOM     21  H12 NON d   1     -40.727  18.891  -2.784  0.00  0.00     0.277 HD
BRANCH  19  22
ATOM     22  C11 NON d   1     -41.262  19.436  -4.709  0.00  0.00     0.270 C 
BRANCH  22  23
ATOM     23  C12 NON d   1     -42.535  18.634  -4.641  0.00  0.00    -0.033 A 
ATOM     24  C13 NON d   1     -43.720  19.248  -5.080  0.00  0.00     0.010 A 
ATOM     25  C14 NON d   1     -44.957  18.583  -5.036  0.00  0.00     0.014 A 
ATOM     26  C15 NON d   1     -45.070  17.270  -4.555  0.00  0.00    -0.007 A 
ATOM     27  C21 NON d   1     -43.872  16.666  -4.121  0.00  0.00     0.014 A 
ATOM     28  C22 NON d   1     -42.631  17.326  -4.157  0.00  0.00     0.010 A 
BRANCH  26  29
ATOM     29  C16 NON d   1     -46.360  16.528  -4.491  0.00  0.00     0.066 A 
ATOM     30  C17 NON d   1     -46.849  15.898  -3.343  0.00  0.00     0.032 A 
ATOM     31  C18 NON d   1     -48.072  15.226  -3.389  0.00  0.00     0.004 A 
ATOM     32  C19 NON d   1     -48.788  15.192  -4.575  0.00  0.00     0.019 A 
ATOM     33  C20 NON d   1     -48.248  15.835  -5.671  0.00  0.00     0.117 A 
ATOM     34  N4  NON d   1     -47.065  16.494  -5.654  0.00  0.00    -0.260 NA
ENDBRANCH  26  29
ENDBRANCH  22  23
ENDBRANCH  19  22
ENDBRANCH  18  19
ENDBRANCH   1  18
TORSDOF 9
ENDMDL
MODEL 7
REMARK VINA RESULT:   -30.319      6.196      7.870
REMARK INTER + INTRA:         -35.502
REMARK INTER:                 -33.003
REMARK INTRA:                  -2.499
REMARK CONF_INDEPENDENT:        2.685
REMARK UNBOUND:                -2.499
REMARK  9 active torsions:
REMARK  status: ('A' for Active; 'I' for Inactive)
REMARK       I    between atoms: C1_2  and  N1_3 
REMARK    1  A    between atoms: C1_2  and  C2_5 
REMARK    2  A    between atoms: N1_3  and  O2_4 
REMARK    3  A    between atoms: C5_8  and  C6_9 
REMARK    4  A    between atoms: N2_12  and  C9_13 
REMARK    5  A    between atoms: C9_13  and  C10_14 
REMARK    6  A    between atoms: C10_14  and  N3_15 
REMARK    7  A    between atoms: N3_15  and  C11_16 
REMARK    8  A    between atoms: C11_16  and  C12_17 
REMARK    9  A    between atoms: C15_20  and  C16_21 
ROOT
ATOM      1  C9  NON d   1     -38.327  20.098  -4.815  0.00  0.00     0.177 C 
ENDROOT
BRANCH   1   2
ATOM      2  N2  NON d   1     -38.349  20.178  -6.264  0.00  0.00    -0.279 N 
ATOM      3  C8  NON d   1     -37.922  19.277  -7.192  0.00  0.00     0.114 A 
ATOM      4  C7  NON d   1     -38.136  19.872  -8.416  0.00  0.00     0.053 A 
ATOM      5  C6  NON d   1     -38.699  21.141  -8.134  0.00  0.00     0.095 A 
ATOM      6  N5  NON d   1     -38.854  21.297  -6.812  0.00  0.00    -0.172 NA
BRANCH   5   7
ATOM      7  C5  NON d   1     -39.063  22.197  -9.147  0.00  0.00     0.036 A 
ATOM      8  C4  NON d   1     -39.085  23.549  -8.877  0.00  0.00     0.023 A 
ATOM      9  C3  NON d   1     -39.497  24.322 -10.006  0.00  0.00     0.026 A 
ATOM     10  C2  NON d   1     -39.775  23.548 -11.118  0.00  0.00     0.075 A 
ATOM     11  S1  NON d   1     -39.521  21.881 -10.766  0.00  0.00    -0.082 SA
BRANCH  10  12
ATOM     12  C1  NON d   1     -40.236  23.954 -12.450  0.00  0.00     0.281 C 
ATOM     13  O1  NON d   1     -39.844  23.453 -13.502  0.00  0.00    -0.265 OA
ATOM     14  N1  NON d   1     -41.182  24.975 -12.431  0.00  0.00    -0.233 N 
ATOM     15  H1  NON d   1     -41.226  25.590 -11.628  0.00  0.00     0.197 HD
BRANCH  14  16
ATOM     16  O2  NON d   1     -41.439  25.613 -13.667  0.00  0.00    -0.287 OA
ATOM     17  H2  NON d   1     -40.922  25.067 -14.290  0.00  0.00     0.244 HD
ENDBRANCH  14  16
ENDBRANCH  10  12
ENDBRANCH   5   7
ENDBRANCH   1   2
BRANCH   1  18
ATOM     18  C10 NON d   1     -39.562  20.606  -4.065  0.00  0.00     0.254 C 
BRANCH  18  19
ATOM     19  N3  NON d   1     -40.809  20.547  -4.916  0.00  0.00    -0.070 N 
ATOM     20  H11 NON d   1     -40.740  21.238  -5.674  0.00  0.00     0.277 HD
ATOM     21  H12 NON d   1     -41.643  20.823  -4.380  0.00  0.00     0.277 HD
BRANCH  19  22
ATOM     22  C11 NON d   1     -41.081  19.219  -5.563  0.00  0.00     0.270 C 
BRANCH  22  23
ATOM     23  C12 NON d   1     -42.400  18.551  -5.274  0.00  0.00    -0.033 A 
ATOM     24  C13 NON d   1     -43.567  19.322  -5.405  0.00  0.00     0.010 A 
ATOM     25  C14 NON d   1     -44.840  18.788  -5.139  0.00  0.00     0.014 A 
ATOM     26  C15 NON d   1     -45.009  17.457  -4.731  0.00  0.00    -0.007 A 
ATOM     27  C21 NON d   1     -43.828  16.695  -4.607  0.00  0.00     0.014 A 
ATOM     28  C22 NON d   1     -42.551  17.222  -4.867  0.00  0.00     0.010 A 
BRANCH  26  29
ATOM     29  C16 NON d   1     -46.338  16.851  -4.438  0.00  0.00     0.066 A 
ATOM     30  C17 NON d   1     -46.836  16.634  -3.151  0.00  0.00     0.032 A 
ATOM     31  C18 NON d   1     -48.097  16.057  -2.985  0.00  0.00     0.004 A 
ATOM     32  C19 NON d   1     -48.839  15.705  -4.100  0.00  0.00     0.019 A 
ATOM     33  C20 NON d   1     -48.287  15.946  -5.343  0.00  0.00     0.117 A 
ATOM     34  N4  NON d   1     -47.068  16.505  -5.532  0.00  0.00    -0.260 NA
ENDBRANCH  26  29
ENDBRANCH  22  23
ENDBRANCH  19  22
ENDBRANCH  18  19
ENDBRANCH   1  18
TORSDOF 9
ENDMDL
MODEL 8
REMARK VINA RESULT:   -30.316      5.550      7.239
REMARK INTER + INTRA:         -35.648
REMARK INTER:                 -33.000
REMARK INTRA:                  -2.648
REMARK CONF_INDEPENDENT:        2.685
REMARK UNBOUND:                -2.648
REMARK  9 active torsions:
REMARK  status: ('A' for Active; 'I' for Inactive)
REMARK       I    between atoms: C1_2  and  N1_3 
REMARK    1  A    between atoms: C1_2  and  C2_5 
REMARK    2  A    between atoms: N1_3  and  O2_4 
REMARK    3  A    between atoms: C5_8  and  C6_9 
REMARK    4  A    between atoms: N2_12  and  C9_13 
REMARK    5  A    between atoms: C9_13  and  C10_14 
REMARK    6  A    between atoms: C10_14  and  N3_15 
REMARK    7  A    between atoms: N3_15  and  C11_16 
REMARK    8  A    between atoms: C11_16  and  C12_17 
REMARK    9  A    between atoms: C15_20  and  C16_21 
ROOT
ATOM      1  C9  NON d   1     -38.813  21.456  -3.052  0.00  0.00     0.177 C 
ENDROOT
BRANCH   1   2
ATOM      2  N2  NON d   1     -39.181  22.340  -4.144  0.00  0.00    -0.279 N 
ATOM      3  C8  NON d   1     -39.704  23.597  -4.108  0.00  0.00     0.114 A 
ATOM      4  C7  NON d   1     -39.902  23.955  -5.424  0.00  0.00     0.053 A 
ATOM      5  C6  NON d   1     -39.470  22.849  -6.194  0.00  0.00     0.095 A 
ATOM      6  N5  NON d   1     -38.999  21.882  -5.395  0.00  0.00    -0.172 NA
BRANCH   5   7
ATOM      7  C5  NON d   1     -39.535  22.731  -7.696  0.00  0.00     0.036 A 
ATOM      8  C4  NON d   1     -39.292  21.565  -8.390  0.00  0.00     0.023 A 
ATOM      9  C3  NON d   1     -39.389  21.743  -9.804  0.00  0.00     0.026 A 
ATOM     10  C2  NON d   1     -39.709  23.040 -10.164  0.00  0.00     0.075 A 
ATOM     11  S1  NON d   1     -39.894  24.022  -8.762  0.00  0.00    -0.082 SA
BRANCH  10  12
ATOM     12  C1  NON d   1     -39.883  23.625 -11.498  0.00  0.00     0.281 C 
ATOM     13  O1  NON d   1     -39.174  23.363 -12.468  0.00  0.00    -0.265 OA
ATOM     14  N1  NON d   1     -40.946  24.518 -11.586  0.00  0.00    -0.233 N 
ATOM     15  H1  NON d   1     -41.277  24.973 -10.745  0.00  0.00     0.197 HD
BRANCH  14  16
ATOM     16  O2  NON d   1     -40.983  25.335 -12.740  0.00  0.00    -0.287 OA
ATOM     17  H2  NON d   1     -40.299  24.925 -13.303  0.00  0.00     0.244 HD
ENDBRANCH  14  16
ENDBRANCH  10  12
ENDBRANCH   5   7
ENDBRANCH   1   2
BRANCH   1  18
ATOM     18  C10 NON d   1     -39.748  20.280  -2.757  0.00  0.00     0.254 C 
BRANCH  18  19
ATOM     19  N3  NON d   1     -40.876  20.183  -3.757  0.00  0.00    -0.070 N 
ATOM     20  H11 NON d   1     -40.724  20.863  -4.513  0.00  0.00     0.277 HD
ATOM     21  H12 NON d   1     -41.776  20.452  -3.336  0.00  0.00     0.277 HD
BRANCH  19  22
ATOM     22  C11 NON d   1     -41.041  18.839  -4.408  0.00  0.00     0.270 C 
BRANCH  22  23
ATOM     23  C12 NON d   1     -42.397  18.186  -4.341  0.00  0.00    -0.033 A 
ATOM     24  C13 NON d   1     -43.436  18.753  -5.097  0.00  0.00     0.010 A 
ATOM     25  C14 NON d   1     -44.737  18.222  -5.082  0.00  0.00     0.014 A 
ATOM     26  C15 NON d   1     -45.063  17.095  -4.313  0.00  0.00    -0.007 A 
ATOM     27  C21 NON d   1     -44.009  16.535  -3.562  0.00  0.00     0.014 A 
ATOM     28  C22 NON d   1     -42.705  17.063  -3.568  0.00  0.00     0.010 A 
BRANCH  26  29
ATOM     29  C16 NON d   1     -46.427  16.500  -4.267  0.00  0.00     0.066 A 
ATOM     30  C17 NON d   1     -47.013  15.963  -3.117  0.00  0.00     0.032 A 
ATOM     31  C18 NON d   1     -48.300  15.427  -3.182  0.00  0.00     0.004 A 
ATOM     32  C19 NON d   1     -48.983  15.433  -4.388  0.00  0.00     0.019 A 
ATOM     33  C20 NON d   1     -48.346  15.977  -5.485  0.00  0.00     0.117 A 
ATOM     34  N4  NON d   1     -47.099  16.505  -5.450  0.00  0.00    -0.260 NA
ENDBRANCH  26  29
ENDBRANCH  22  23
ENDBRANCH  19  22
ENDBRANCH  18  19
ENDBRANCH   1  18
TORSDOF 9
ENDMDL
MODEL 9
REMARK VINA RESULT:   -29.123      6.090      7.887
REMARK INTER + INTRA:         -34.367
REMARK INTER:                 -31.807
REMARK INTRA:                  -2.559
REMARK CONF_INDEPENDENT:        2.685
REMARK UNBOUND:                -2.559
REMARK  9 active torsions:
REMARK  status: ('A' for Active; 'I' for Inactive)
REMARK       I    between atoms: C1_2  and  N1_3 
REMARK    1  A    between atoms: C1_2  and  C2_5 
REMARK    2  A    between atoms: N1_3  and  O2_4 
REMARK    3  A    between atoms: C5_8  and  C6_9 
REMARK    4  A    between atoms: N2_12  and  C9_13 
REMARK    5  A    between atoms: C9_13  and  C10_14 
REMARK    6  A    between atoms: C10_14  and  N3_15 
REMARK    7  A    between atoms: N3_15  and  C11_16 
REMARK    8  A    between atoms: C11_16  and  C12_17 
REMARK    9  A    between atoms: C15_20  and  C16_21 
ROOT
ATOM      1  C9  NON d   1     -40.516  22.196  -4.158  0.00  0.00     0.177 C 
ENDROOT
BRANCH   1   2
ATOM      2  N2  NON d   1     -39.270  22.186  -4.901  0.00  0.00    -0.279 N 
ATOM      3  C8  NON d   1     -38.043  22.665  -4.551  0.00  0.00     0.114 A 
ATOM      4  C7  NON d   1     -37.230  22.437  -5.640  0.00  0.00     0.053 A 
ATOM      5  C6  NON d   1     -38.051  21.814  -6.611  0.00  0.00     0.095 A 
ATOM      6  N5  NON d   1     -39.288  21.637  -6.129  0.00  0.00    -0.172 NA
BRANCH   5   7
ATOM      7  C5  NON d   1     -37.633  21.413  -8.003  0.00  0.00     0.036 A 
ATOM      8  C4  NON d   1     -36.482  20.712  -8.292  0.00  0.00     0.023 A 
ATOM      9  C3  NON d   1     -36.314  20.495  -9.694  0.00  0.00     0.026 A 
ATOM     10  C2  NON d   1     -37.343  21.029 -10.450  0.00  0.00     0.075 A 
ATOM     11  S1  NON d   1     -38.506  21.785  -9.428  0.00  0.00    -0.082 SA
BRANCH  10  12
ATOM     12  C1  NON d   1     -37.531  21.033 -11.904  0.00  0.00     0.281 C 
ATOM     13  O1  NON d   1     -38.319  21.764 -12.500  0.00  0.00    -0.265 OA
ATOM     14  N1  NON d   1     -36.719  20.125 -12.579  0.00  0.00    -0.233 N 
ATOM     15  H1  NON d   1     -36.357  19.323 -12.078  0.00  0.00     0.197 HD
BRANCH  14  16
ATOM     16  O2  NON d   1     -37.058  19.864 -13.927  0.00  0.00    -0.287 OA
ATOM     17  H2  NON d   1     -37.747  20.535 -14.098  0.00  0.00     0.244 HD
ENDBRANCH  14  16
ENDBRANCH  10  12
ENDBRANCH   5   7
ENDBRANCH   1   2
BRANCH   1  18
ATOM     18  C10 NON d   1     -41.119  20.840  -3.780  0.00  0.00     0.254 C 
BRANCH  18  19
ATOM     19  N3  NON d   1     -40.307  19.686  -4.320  0.00  0.00    -0.070 N 
ATOM     20  H11 NON d   1     -40.108  19.022  -3.562  0.00  0.00     0.277 HD
ATOM     21  H12 NON d   1     -39.383  19.997  -4.650  0.00  0.00     0.277 HD
BRANCH  19  22
ATOM     22  C11 NON d   1     -40.962  18.903  -5.423  0.00  0.00     0.270 C 
BRANCH  22  23
ATOM     23  C12 NON d   1     -42.358  18.389  -5.189  0.00  0.00    -0.033 A 
ATOM     24  C13 NON d   1     -42.500  17.131  -4.579  0.00  0.00     0.010 A 
ATOM     25  C14 NON d   1     -43.763  16.564  -4.338  0.00  0.00     0.014 A 
ATOM     26  C15 NON d   1     -44.948  17.228  -4.692  0.00  0.00    -0.007 A 
ATOM     27  C21 NON d   1     -44.789  18.491  -5.300  0.00  0.00     0.014 A 
ATOM     28  C22 NON d   1     -43.529  19.063  -5.549  0.00  0.00     0.010 A 
BRANCH  26  29
ATOM     29  C16 NON d   1     -46.306  16.665  -4.456  0.00  0.00     0.066 A 
ATOM     30  C17 NON d   1     -46.803  16.312  -3.198  0.00  0.00     0.032 A 
ATOM     31  C18 NON d   1     -48.093  15.789  -3.086  0.00  0.00     0.004 A 
ATOM     32  C19 NON d   1     -48.866  15.626  -4.224  0.00  0.00     0.019 A 
ATOM     33  C20 NON d   1     -48.313  15.995  -5.435  0.00  0.00     0.117 A 
ATOM     34  N4  NON d   1     -47.066  16.505  -5.572  0.00  0.00    -0.260 NA
ENDBRANCH  26  29
ENDBRANCH  22  23
ENDBRANCH  19  22
ENDBRANCH  18  19
ENDBRANCH   1  18
TORSDOF 9
ENDMDL
