MODEL 1
REMARK VINA RESULT:   -36.699      0.000      0.000
REMARK INTER + INTRA:         -39.678
REMARK INTER:                 -39.085
REMARK INTRA:                  -0.593
REMARK CONF_INDEPENDENT:        2.386
REMARK UNBOUND:                -0.593
REMARK  8 active torsions:
REMARK  status: ('A' for Active; 'I' for Inactive)
REMARK    1  A    between atoms: N1_1  and  C1_2 
REMARK    2  A    between atoms: C6_7  and  N2_8 
REMARK       I    between atoms: N2_8  and  C7_9 
REMARK    3  A    between atoms: C7_9  and  C8_11 
REMARK    4  A    between atoms: C11_14  and  C12_15 
REMARK    5  A    between atoms: C12_15  and  N3_16 
REMARK    6  A    between atoms: N3_16  and  C13_17 
REMARK    7  A    between atoms: C16_21  and  C17_22 
REMARK    8  A    between atoms: C20_25  and  N5_26 
ROOT
ATOM      1  C12 NON d   1     -39.604  18.714  -4.282  0.00  0.00     0.134 C 
ENDROOT
BRANCH   1   2
ATOM      2  C11 NON d   1     -41.097  18.525  -4.478  0.00  0.00    -0.045 A 
ATOM      3  C10 NON d   1     -41.690  17.457  -3.782  0.00  0.00     0.009 A 
ATOM      4  C9  NON d   1     -43.053  17.182  -3.897  0.00  0.00     0.017 A 
ATOM      5  C8  NON d   1     -43.875  17.956  -4.725  0.00  0.00     0.032 A 
ATOM      6  C27 NON d   1     -43.293  19.020  -5.432  0.00  0.00     0.017 A 
ATOM      7  C26 NON d   1     -41.915  19.299  -5.310  0.00  0.00     0.009 A 
BRANCH   5   8
ATOM      8  C7  NON d   1     -45.329  17.588  -4.765  0.00  0.00     0.256 C 
ATOM      9  N2  NON d   1     -45.869  17.009  -3.635  0.00  0.00    -0.321 N 
ATOM     10  H7  NON d   1     -45.291  16.842  -2.821  0.00  0.00     0.169 HD
ATOM     11  O1  NON d   1     -45.952  17.832  -5.797  0.00  0.00    -0.267 OA
BRANCH   9  12
ATOM     12  C6  NON d   1     -47.222  16.649  -3.419  0.00  0.00     0.056 A 
ATOM     13  C5  NON d   1     -47.888  16.777  -2.199  0.00  0.00     0.031 A 
ATOM     14  C4  NON d   1     -49.226  16.387  -2.077  0.00  0.00     0.002 A 
ATOM     15  C3  NON d   1     -49.909  15.877  -3.178  0.00  0.00     0.002 A 
ATOM     16  C2  NON d   1     -49.258  15.752  -4.405  0.00  0.00     0.025 A 
ATOM     17  C1  NON d   1     -47.906  16.099  -4.527  0.00  0.00     0.033 A 
BRANCH  17  18
ATOM     18  N1  NON d   1     -47.296  16.130  -5.811  0.00  0.00    -0.301 NA
ATOM     19  H1  NON d   1     -47.789  15.518  -6.459  0.00  0.00     0.124 HD
ATOM     20  H2  NON d   1     -47.346  17.086  -6.166  0.00  0.00     0.124 HD
ENDBRANCH  17  18
ENDBRANCH   9  12
ENDBRANCH   5   8
ENDBRANCH   1   2
BRANCH   1  21
ATOM     21  N3  NON d   1     -39.201  19.313  -3.019  0.00  0.00    -0.257 NA
ATOM     22  H12 NON d   1     -39.681  18.975  -2.196  0.00  0.00     0.131 HD
BRANCH  21  23
ATOM     23  C13 NON d   1     -39.370  20.704  -3.030  0.00  0.00     0.202 A 
ATOM     24  N4  NON d   1     -39.154  21.378  -4.168  0.00  0.00    -0.231 NA
ATOM     25  C14 NON d   1     -39.338  22.702  -4.153  0.00  0.00     0.122 A 
ATOM     26  C15 NON d   1     -39.721  23.388  -3.034  0.00  0.00     0.052 A 
ATOM     27  C16 NON d   1     -39.925  22.646  -1.884  0.00  0.00     0.073 A 
ATOM     28  N7  NON d   1     -39.766  21.294  -1.887  0.00  0.00    -0.218 NA
BRANCH  27  29
ATOM     29  C17 NON d   1     -40.302  23.281  -0.595  0.00  0.00     0.010 A 
ATOM     30  C18 NON d   1     -40.215  22.626   0.639  0.00  0.00     0.018 A 
ATOM     31  C19 NON d   1     -40.613  23.250   1.829  0.00  0.00     0.045 A 
ATOM     32  C20 NON d   1     -41.131  24.541   1.817  0.00  0.00     0.105 A 
ATOM     33  N6  NON d   1     -41.195  25.202   0.641  0.00  0.00    -0.248 NA
ATOM     34  C25 NON d   1     -40.792  24.579  -0.509  0.00  0.00     0.132 A 
BRANCH  32  35
ATOM     35  N5  NON d   1     -41.531  25.187   3.000  0.00  0.00    -0.264 NA
ATOM     36  C21 NON d   1     -41.681  26.656   2.949  0.00  0.00     0.123 C 
ATOM     37  C22 NON d   1     -42.191  27.202   4.293  0.00  0.00     0.182 C 
ATOM     38  O2  NON d   1     -41.344  26.808   5.379  0.00  0.00    -0.389 OA
ATOM     39  C23 NON d   1     -41.322  25.375   5.473  0.00  0.00     0.182 C 
ATOM     40  C24 NON d   1     -40.776  24.726   4.188  0.00  0.00     0.123 C 
ENDBRANCH  32  35
ENDBRANCH  27  29
ENDBRANCH  21  23
ENDBRANCH   1  21
TORSDOF 8
ENDMDL
MODEL 2
REMARK VINA RESULT:   -35.528      0.996      1.587
REMARK INTER + INTRA:         -39.140
REMARK INTER:                 -37.914
REMARK INTRA:                  -1.226
REMARK CONF_INDEPENDENT:        2.386
REMARK UNBOUND:                -1.226
REMARK  8 active torsions:
REMARK  status: ('A' for Active; 'I' for Inactive)
REMARK    1  A    between atoms: N1_1  and  C1_2 
REMARK    2  A    between atoms: C6_7  and  N2_8 
REMARK       I    between atoms: N2_8  and  C7_9 
REMARK    3  A    between atoms: C7_9  and  C8_11 
REMARK    4  A    between atoms: C11_14  and  C12_15 
REMARK    5  A    between atoms: C12_15  and  N3_16 
REMARK    6  A    between atoms: N3_16  and  C13_17 
REMARK    7  A    between atoms: C16_21  and  C17_22 
REMARK    8  A    between atoms: C20_25  and  N5_26 
ROOT
ATOM      1  C12 NON d   1     -39.678  18.780  -4.164  0.00  0.00     0.134 C 
ENDROOT
BRANCH   1   2
ATOM      2  C11 NON d   1     -41.164  18.562  -4.380  0.00  0.00    -0.045 A 
ATOM      3  C10 NON d   1     -41.762  17.530  -3.635  0.00  0.00     0.009 A 
ATOM      4  C9  NON d   1     -43.119  17.233  -3.762  0.00  0.00     0.017 A 
ATOM      5  C8  NON d   1     -43.930  17.949  -4.651  0.00  0.00     0.032 A 
ATOM      6  C27 NON d   1     -43.344  18.975  -5.407  0.00  0.00     0.017 A 
ATOM      7  C26 NON d   1     -41.972  19.276  -5.273  0.00  0.00     0.009 A 
BRANCH   5   8
ATOM      8  C7  NON d   1     -45.379  17.563  -4.700  0.00  0.00     0.256 C 
ATOM      9  N2  NON d   1     -45.901  16.912  -3.601  0.00  0.00    -0.321 N 
ATOM     10  H7  NON d   1     -45.314  16.708  -2.802  0.00  0.00     0.169 HD
ATOM     11  O1  NON d   1     -46.015  17.855  -5.712  0.00  0.00    -0.267 OA
BRANCH   9  12
ATOM     12  C6  NON d   1     -47.247  16.521  -3.394  0.00  0.00     0.056 A 
ATOM     13  C5  NON d   1     -47.904  16.572  -2.164  0.00  0.00     0.031 A 
ATOM     14  C4  NON d   1     -49.236  16.156  -2.053  0.00  0.00     0.002 A 
ATOM     15  C3  NON d   1     -49.921  15.697  -3.175  0.00  0.00     0.002 A 
ATOM     16  C2  NON d   1     -49.278  15.649  -4.412  0.00  0.00     0.025 A 
ATOM     17  C1  NON d   1     -47.933  16.022  -4.525  0.00  0.00     0.033 A 
BRANCH  17  18
ATOM     18  N1  NON d   1     -47.334  16.132  -5.811  0.00  0.00    -0.301 NA
ATOM     19  H1  NON d   1     -47.406  17.086  -6.161  0.00  0.00     0.124 HD
ATOM     20  H2  NON d   1     -46.345  15.892  -5.725  0.00  0.00     0.124 HD
ENDBRANCH  17  18
ENDBRANCH   9  12
ENDBRANCH   5   8
ENDBRANCH   1   2
BRANCH   1  21
ATOM     21  N3  NON d   1     -38.987  19.522  -5.206  0.00  0.00    -0.257 NA
ATOM     22  H12 NON d   1     -37.983  19.404  -5.241  0.00  0.00     0.131 HD
BRANCH  21  23
ATOM     23  C13 NON d   1     -39.218  20.900  -5.099  0.00  0.00     0.202 A 
ATOM     24  N4  NON d   1     -39.187  21.655  -6.206  0.00  0.00    -0.231 NA
ATOM     25  C14 NON d   1     -39.426  22.963  -6.075  0.00  0.00     0.122 A 
ATOM     26  C15 NON d   1     -39.686  23.556  -4.871  0.00  0.00     0.052 A 
ATOM     27  C16 NON d   1     -39.700  22.734  -3.758  0.00  0.00     0.073 A 
ATOM     28  N7  NON d   1     -39.483  21.395  -3.876  0.00  0.00    -0.218 NA
BRANCH  27  29
ATOM     29  C17 NON d   1     -39.928  23.266  -2.391  0.00  0.00     0.010 A 
ATOM     30  C18 NON d   1     -40.070  22.451  -1.262  0.00  0.00     0.018 A 
ATOM     31  C19 NON d   1     -40.318  22.992   0.006  0.00  0.00     0.045 A 
ATOM     32  C20 NON d   1     -40.454  24.365   0.180  0.00  0.00     0.105 A 
ATOM     33  N6  NON d   1     -40.291  25.173  -0.891  0.00  0.00    -0.248 NA
ATOM     34  C25 NON d   1     -40.039  24.625  -2.119  0.00  0.00     0.132 A 
BRANCH  32  35
ATOM     35  N5  NON d   1     -40.698  24.929   1.444  0.00  0.00    -0.264 NA
ATOM     36  C21 NON d   1     -40.991  23.999   2.554  0.00  0.00     0.123 C 
ATOM     37  C22 NON d   1     -41.161  24.761   3.878  0.00  0.00     0.182 C 
ATOM     38  O2  NON d   1     -42.165  25.777   3.779  0.00  0.00    -0.389 OA
ATOM     39  C23 NON d   1     -41.783  26.731   2.775  0.00  0.00     0.182 C 
ATOM     40  C24 NON d   1     -41.635  26.075   1.390  0.00  0.00     0.123 C 
ENDBRANCH  32  35
ENDBRANCH  27  29
ENDBRANCH  21  23
ENDBRANCH   1  21
TORSDOF 8
ENDMDL
MODEL 3
REMARK VINA RESULT:   -34.534      4.583      8.464
REMARK INTER + INTRA:         -38.302
REMARK INTER:                 -36.920
REMARK INTRA:                  -1.382
REMARK CONF_INDEPENDENT:        2.386
REMARK UNBOUND:                -1.382
REMARK  8 active torsions:
REMARK  status: ('A' for Active; 'I' for Inactive)
REMARK    1  A    between atoms: N1_1  and  C1_2 
REMARK    2  A    between atoms: C6_7  and  N2_8 
REMARK       I    between atoms: N2_8  and  C7_9 
REMARK    3  A    between atoms: C7_9  and  C8_11 
REMARK    4  A    between atoms: C11_14  and  C12_15 
REMARK    5  A    between atoms: C12_15  and  N3_16 
REMARK    6  A    between atoms: N3_16  and  C13_17 
REMARK    7  A    between atoms: C16_21  and  C17_22 
REMARK    8  A    between atoms: C20_25  and  N5_26 
ROOT
ATOM      1  C12 NON d   1     -39.823  19.357  -4.870  0.00  0.00     0.134 C 
ENDROOT
BRANCH   1   2
ATOM      2  C11 NON d   1     -41.230  18.797  -4.770  0.00  0.00    -0.045 A 
ATOM      3  C10 NON d   1     -42.239  19.512  -5.439  0.00  0.00     0.009 A 
ATOM      4  C9  NON d   1     -43.570  19.096  -5.405  0.00  0.00     0.017 A 
ATOM      5  C8  NON d   1     -43.947  17.954  -4.687  0.00  0.00     0.032 A 
ATOM      6  C27 NON d   1     -42.951  17.236  -4.008  0.00  0.00     0.017 A 
ATOM      7  C26 NON d   1     -41.605  17.657  -4.048  0.00  0.00     0.009 A 
BRANCH   5   8
ATOM      8  C7  NON d   1     -45.400  17.582  -4.729  0.00  0.00     0.256 C 
ATOM      9  N2  NON d   1     -45.926  16.951  -3.620  0.00  0.00    -0.321 N 
ATOM     10  H7  NON d   1     -45.339  16.750  -2.820  0.00  0.00     0.169 HD
ATOM     11  O1  NON d   1     -46.035  17.869  -5.742  0.00  0.00    -0.267 OA
BRANCH   9  12
ATOM     12  C6  NON d   1     -47.276  16.576  -3.406  0.00  0.00     0.056 A 
ATOM     13  C5  NON d   1     -47.934  16.660  -2.178  0.00  0.00     0.031 A 
ATOM     14  C4  NON d   1     -49.268  16.258  -2.059  0.00  0.00     0.002 A 
ATOM     15  C3  NON d   1     -49.956  15.779  -3.171  0.00  0.00     0.002 A 
ATOM     16  C2  NON d   1     -49.313  15.698  -4.406  0.00  0.00     0.025 A 
ATOM     17  C1  NON d   1     -47.965  16.056  -4.526  0.00  0.00     0.033 A 
BRANCH  17  18
ATOM     18  N1  NON d   1     -47.364  16.132  -5.813  0.00  0.00    -0.301 NA
ATOM     19  H1  NON d   1     -47.432  17.077  -6.188  0.00  0.00     0.124 HD
ATOM     20  H2  NON d   1     -46.376  15.891  -5.720  0.00  0.00     0.124 HD
ENDBRANCH  17  18
ENDBRANCH   9  12
ENDBRANCH   5   8
ENDBRANCH   1   2
BRANCH   1  21
ATOM     21  N3  NON d   1     -39.484  20.398  -3.912  0.00  0.00    -0.257 NA
ATOM     22  H12 NON d   1     -39.920  20.321  -3.003  0.00  0.00     0.131 HD
BRANCH  21  23
ATOM     23  C13 NON d   1     -39.809  21.672  -4.398  0.00  0.00     0.202 A 
ATOM     24  N4  NON d   1     -40.192  22.621  -3.532  0.00  0.00    -0.231 NA
ATOM     25  C14 NON d   1     -40.480  23.830  -4.021  0.00  0.00     0.122 A 
ATOM     26  C15 NON d   1     -40.412  24.131  -5.353  0.00  0.00     0.052 A 
ATOM     27  C16 NON d   1     -40.018  23.114  -6.205  0.00  0.00     0.073 A 
ATOM     28  N7  NON d   1     -39.697  21.883  -5.722  0.00  0.00    -0.218 NA
BRANCH  27  29
ATOM     29  C17 NON d   1     -39.947  23.305  -7.676  0.00  0.00     0.010 A 
ATOM     30  C18 NON d   1     -39.500  22.315  -8.559  0.00  0.00     0.018 A 
ATOM     31  C19 NON d   1     -39.416  22.547  -9.938  0.00  0.00     0.045 A 
ATOM     32  C20 NON d   1     -39.755  23.785 -10.474  0.00  0.00     0.105 A 
ATOM     33  N6  NON d   1     -40.217  24.745  -9.643  0.00  0.00    -0.248 NA
ATOM     34  C25 NON d   1     -40.302  24.495  -8.301  0.00  0.00     0.132 A 
BRANCH  32  35
ATOM     35  N5  NON d   1     -39.683  24.037 -11.855  0.00  0.00    -0.264 NA
ATOM     36  C21 NON d   1     -40.894  24.577 -12.507  0.00  0.00     0.123 C 
ATOM     37  C22 NON d   1     -40.634  24.866 -13.994  0.00  0.00     0.182 C 
ATOM     38  O2  NON d   1     -40.153  23.705 -14.682  0.00  0.00    -0.389 OA
ATOM     39  C23 NON d   1     -38.911  23.284 -14.098  0.00  0.00     0.182 C 
ATOM     40  C24 NON d   1     -39.072  22.919 -12.610  0.00  0.00     0.123 C 
ENDBRANCH  32  35
ENDBRANCH  27  29
ENDBRANCH  21  23
ENDBRANCH   1  21
TORSDOF 8
ENDMDL
MODEL 4
REMARK VINA RESULT:   -34.492      5.657      8.570
REMARK INTER + INTRA:         -37.722
REMARK INTER:                 -36.879
REMARK INTRA:                  -0.844
REMARK CONF_INDEPENDENT:        2.386
REMARK UNBOUND:                -0.844
REMARK  8 active torsions:
REMARK  status: ('A' for Active; 'I' for Inactive)
REMARK    1  A    between atoms: N1_1  and  C1_2 
REMARK    2  A    between atoms: C6_7  and  N2_8 
REMARK       I    between atoms: N2_8  and  C7_9 
REMARK    3  A    between atoms: C7_9  and  C8_11 
REMARK    4  A    between atoms: C11_14  and  C12_15 
REMARK    5  A    between atoms: C12_15  and  N3_16 
REMARK    6  A    between atoms: N3_16  and  C13_17 
REMARK    7  A    between atoms: C16_21  and  C17_22 
REMARK    8  A    between atoms: C20_25  and  N5_26 
ROOT
ATOM      1  C12 NON d   1     -40.551  20.365  -4.769  0.00  0.00     0.134 C 
ENDROOT
BRANCH   1   2
ATOM      2  C11 NON d   1     -41.687  19.362  -4.688  0.00  0.00    -0.045 A 
ATOM      3  C10 NON d   1     -42.847  19.667  -5.422  0.00  0.00     0.009 A 
ATOM      4  C9  NON d   1     -43.957  18.823  -5.411  0.00  0.00     0.017 A 
ATOM      5  C8  NON d   1     -43.957  17.645  -4.654  0.00  0.00     0.032 A 
ATOM      6  C27 NON d   1     -42.808  17.333  -3.910  0.00  0.00     0.017 A 
ATOM      7  C26 NON d   1     -41.685  18.187  -3.926  0.00  0.00     0.009 A 
BRANCH   5   8
ATOM      8  C7  NON d   1     -45.194  16.798  -4.724  0.00  0.00     0.256 C 
ATOM      9  N2  NON d   1     -46.141  16.974  -3.737  0.00  0.00    -0.321 N 
ATOM     10  H7  NON d   1     -45.990  17.650  -2.998  0.00  0.00     0.169 HD
ATOM     11  O1  NON d   1     -45.291  16.006  -5.660  0.00  0.00    -0.267 OA
BRANCH   9  12
ATOM     12  C6  NON d   1     -47.407  16.345  -3.641  0.00  0.00     0.056 A 
ATOM     13  C5  NON d   1     -48.059  16.063  -2.440  0.00  0.00     0.031 A 
ATOM     14  C4  NON d   1     -49.307  15.429  -2.441  0.00  0.00     0.002 A 
ATOM     15  C3  NON d   1     -49.914  15.084  -3.646  0.00  0.00     0.002 A 
ATOM     16  C2  NON d   1     -49.277  15.368  -4.853  0.00  0.00     0.025 A 
ATOM     17  C1  NON d   1     -48.009  15.962  -4.861  0.00  0.00     0.033 A 
BRANCH  17  18
ATOM     18  N1  NON d   1     -47.440  16.402  -6.089  0.00  0.00    -0.301 NA
ATOM     19  H1  NON d   1     -46.713  15.760  -6.400  0.00  0.00     0.124 HD
ATOM     20  H2  NON d   1     -48.179  16.423  -6.794  0.00  0.00     0.124 HD
ENDBRANCH  17  18
ENDBRANCH   9  12
ENDBRANCH   5   8
ENDBRANCH   1   2
BRANCH   1  21
ATOM     21  N3  NON d   1     -39.209  19.805  -4.767  0.00  0.00    -0.257 NA
ATOM     22  H12 NON d   1     -38.521  20.308  -4.222  0.00  0.00     0.131 HD
BRANCH  21  23
ATOM     23  C13 NON d   1     -38.688  19.708  -6.065  0.00  0.00     0.202 A 
ATOM     24  N4  NON d   1     -37.828  18.720  -6.349  0.00  0.00    -0.231 NA
ATOM     25  C14 NON d   1     -37.360  18.643  -7.599  0.00  0.00     0.122 A 
ATOM     26  C15 NON d   1     -37.709  19.527  -8.581  0.00  0.00     0.052 A 
ATOM     27  C16 NON d   1     -38.594  20.532  -8.233  0.00  0.00     0.073 A 
ATOM     28  N7  NON d   1     -39.100  20.612  -6.972  0.00  0.00    -0.218 NA
BRANCH  27  29
ATOM     29  C17 NON d   1     -39.016  21.577  -9.200  0.00  0.00     0.010 A 
ATOM     30  C18 NON d   1     -38.821  21.470 -10.582  0.00  0.00     0.018 A 
ATOM     31  C19 NON d   1     -39.203  22.495 -11.458  0.00  0.00     0.045 A 
ATOM     32  C20 NON d   1     -39.771  23.669 -10.975  0.00  0.00     0.105 A 
ATOM     33  N6  NON d   1     -39.996  23.781  -9.647  0.00  0.00    -0.248 NA
ATOM     34  C25 NON d   1     -39.626  22.765  -8.810  0.00  0.00     0.132 A 
BRANCH  32  35
ATOM     35  N5  NON d   1     -40.167  24.707 -11.836  0.00  0.00    -0.264 NA
ATOM     36  C21 NON d   1     -40.138  26.082 -11.295  0.00  0.00     0.123 C 
ATOM     37  C22 NON d   1     -40.526  27.104 -12.376  0.00  0.00     0.182 C 
ATOM     38  O2  NON d   1     -41.802  26.805 -12.954  0.00  0.00    -0.389 OA
ATOM     39  C23 NON d   1     -41.753  25.512 -13.577  0.00  0.00     0.182 C 
ATOM     40  C24 NON d   1     -41.420  24.401 -12.564  0.00  0.00     0.123 C 
ENDBRANCH  32  35
ENDBRANCH  27  29
ENDBRANCH  21  23
ENDBRANCH   1  21
TORSDOF 8
ENDMDL
MODEL 5
REMARK VINA RESULT:   -34.349      1.401      2.210
REMARK INTER + INTRA:         -38.241
REMARK INTER:                 -36.735
REMARK INTRA:                  -1.506
REMARK CONF_INDEPENDENT:        2.386
REMARK UNBOUND:                -1.506
REMARK  8 active torsions:
REMARK  status: ('A' for Active; 'I' for Inactive)
REMARK    1  A    between atoms: N1_1  and  C1_2 
REMARK    2  A    between atoms: C6_7  and  N2_8 
REMARK       I    between atoms: N2_8  and  C7_9 
REMARK    3  A    between atoms: C7_9  and  C8_11 
REMARK    4  A    between atoms: C11_14  and  C12_15 
REMARK    5  A    between atoms: C12_15  and  N3_16 
REMARK    6  A    between atoms: N3_16  and  C13_17 
REMARK    7  A    between atoms: C16_21  and  C17_22 
REMARK    8  A    between atoms: C20_25  and  N5_26 
ROOT
ATOM      1  C12 NON d   1     -40.417  20.312  -5.094  0.00  0.00     0.134 C 
ENDROOT
BRANCH   1   2
ATOM      2  C11 NON d   1     -41.565  19.330  -4.950  0.00  0.00    -0.045 A 
ATOM      3  C10 NON d   1     -42.794  19.716  -5.515  0.00  0.00     0.009 A 
ATOM      4  C9  NON d   1     -43.921  18.897  -5.432  0.00  0.00     0.017 A 
ATOM      5  C8  NON d   1     -43.866  17.665  -4.769  0.00  0.00     0.032 A 
ATOM      6  C27 NON d   1     -42.647  17.272  -4.195  0.00  0.00     0.017 A 
ATOM      7  C26 NON d   1     -41.509  18.100  -4.284  0.00  0.00     0.009 A 
BRANCH   5   8
ATOM      8  C7  NON d   1     -45.128  16.853  -4.752  0.00  0.00     0.256 C 
ATOM      9  N2  NON d   1     -46.042  17.121  -3.754  0.00  0.00    -0.321 N 
ATOM     10  H7  NON d   1     -45.852  17.839  -3.066  0.00  0.00     0.169 HD
ATOM     11  O1  NON d   1     -45.273  16.005  -5.631  0.00  0.00    -0.267 OA
BRANCH   9  12
ATOM     12  C6  NON d   1     -47.322  16.537  -3.585  0.00  0.00     0.056 A 
ATOM     13  C5  NON d   1     -47.940  16.334  -2.350  0.00  0.00     0.031 A 
ATOM     14  C4  NON d   1     -49.205  15.741  -2.278  0.00  0.00     0.002 A 
ATOM     15  C3  NON d   1     -49.865  15.357  -3.442  0.00  0.00     0.002 A 
ATOM     16  C2  NON d   1     -49.262  15.563  -4.684  0.00  0.00     0.025 A 
ATOM     17  C1  NON d   1     -47.978  16.115  -4.764  0.00  0.00     0.033 A 
BRANCH  17  18
ATOM     18  N1  NON d   1     -47.440  16.477  -6.030  0.00  0.00    -0.301 NA
ATOM     19  H1  NON d   1     -47.008  17.398  -5.989  0.00  0.00     0.124 HD
ATOM     20  H2  NON d   1     -46.723  15.793  -6.280  0.00  0.00     0.124 HD
ENDBRANCH  17  18
ENDBRANCH   9  12
ENDBRANCH   5   8
ENDBRANCH   1   2
BRANCH   1  21
ATOM     21  N3  NON d   1     -39.081  19.736  -5.062  0.00  0.00    -0.257 NA
ATOM     22  H12 NON d   1     -39.013  18.764  -5.333  0.00  0.00     0.131 HD
BRANCH  21  23
ATOM     23  C13 NON d   1     -38.508  19.832  -3.787  0.00  0.00     0.202 A 
ATOM     24  N4  NON d   1     -37.514  18.995  -3.455  0.00  0.00    -0.231 NA
ATOM     25  C14 NON d   1     -36.976  19.119  -2.238  0.00  0.00     0.122 A 
ATOM     26  C15 NON d   1     -37.402  20.045  -1.326  0.00  0.00     0.052 A 
ATOM     27  C16 NON d   1     -38.434  20.879  -1.716  0.00  0.00     0.073 A 
ATOM     28  N7  NON d   1     -38.978  20.784  -2.961  0.00  0.00    -0.218 NA
BRANCH  27  29
ATOM     29  C17 NON d   1     -39.011  21.896  -0.801  0.00  0.00     0.010 A 
ATOM     30  C18 NON d   1     -39.745  23.002  -1.244  0.00  0.00     0.018 A 
ATOM     31  C19 NON d   1     -40.244  23.957  -0.349  0.00  0.00     0.045 A 
ATOM     32  C20 NON d   1     -40.003  23.847   1.017  0.00  0.00     0.105 A 
ATOM     33  N6  NON d   1     -39.323  22.771   1.470  0.00  0.00    -0.248 NA
ATOM     34  C25 NON d   1     -38.854  21.844   0.580  0.00  0.00     0.132 A 
BRANCH  32  35
ATOM     35  N5  NON d   1     -40.500  24.791   1.933  0.00  0.00    -0.264 NA
ATOM     36  C21 NON d   1     -41.114  24.272   3.172  0.00  0.00     0.123 C 
ATOM     37  C22 NON d   1     -41.539  25.423   4.098  0.00  0.00     0.182 C 
ATOM     38  O2  NON d   1     -42.416  26.341   3.433  0.00  0.00    -0.389 OA
ATOM     39  C23 NON d   1     -41.739  26.917   2.306  0.00  0.00     0.182 C 
ATOM     40  C24 NON d   1     -41.313  25.846   1.285  0.00  0.00     0.123 C 
ENDBRANCH  32  35
ENDBRANCH  27  29
ENDBRANCH  21  23
ENDBRANCH   1  21
TORSDOF 8
ENDMDL
MODEL 6
REMARK VINA RESULT:   -34.080      6.093      9.796
REMARK INTER + INTRA:         -37.718
REMARK INTER:                 -36.466
REMARK INTRA:                  -1.251
REMARK CONF_INDEPENDENT:        2.386
REMARK UNBOUND:                -1.251
REMARK  8 active torsions:
REMARK  status: ('A' for Active; 'I' for Inactive)
REMARK    1  A    between atoms: N1_1  and  C1_2 
REMARK    2  A    between atoms: C6_7  and  N2_8 
REMARK       I    between atoms: N2_8  and  C7_9 
REMARK    3  A    between atoms: C7_9  and  C8_11 
REMARK    4  A    between atoms: C11_14  and  C12_15 
REMARK    5  A    between atoms: C12_15  and  N3_16 
REMARK    6  A    between atoms: N3_16  and  C13_17 
REMARK    7  A    between atoms: C16_21  and  C17_22 
REMARK    8  A    between atoms: C20_25  and  N5_26 
ROOT
ATOM      1  C12 NON d   1     -40.330  20.176  -5.056  0.00  0.00     0.134 C 
ENDROOT
BRANCH   1   2
ATOM      2  C11 NON d   1     -41.503  19.222  -4.923  0.00  0.00    -0.045 A 
ATOM      3  C10 NON d   1     -42.714  19.633  -5.507  0.00  0.00     0.009 A 
ATOM      4  C9  NON d   1     -43.861  18.842  -5.435  0.00  0.00     0.017 A 
ATOM      5  C8  NON d   1     -43.845  17.613  -4.764  0.00  0.00     0.032 A 
ATOM      6  C27 NON d   1     -42.644  17.196  -4.169  0.00  0.00     0.017 A 
ATOM      7  C26 NON d   1     -41.485  17.996  -4.247  0.00  0.00     0.009 A 
BRANCH   5   8
ATOM      8  C7  NON d   1     -45.125  16.831  -4.759  0.00  0.00     0.256 C 
ATOM      9  N2  NON d   1     -46.023  17.087  -3.742  0.00  0.00    -0.321 N 
ATOM     10  H7  NON d   1     -45.807  17.776  -3.032  0.00  0.00     0.169 HD
ATOM     11  O1  NON d   1     -45.301  16.017  -5.664  0.00  0.00    -0.267 OA
BRANCH   9  12
ATOM     12  C6  NON d   1     -47.314  16.528  -3.577  0.00  0.00     0.056 A 
ATOM     13  C5  NON d   1     -47.933  16.321  -2.344  0.00  0.00     0.031 A 
ATOM     14  C4  NON d   1     -49.210  15.754  -2.277  0.00  0.00     0.002 A 
ATOM     15  C3  NON d   1     -49.881  15.401  -3.445  0.00  0.00     0.002 A 
ATOM     16  C2  NON d   1     -49.277  15.611  -4.685  0.00  0.00     0.025 A 
ATOM     17  C1  NON d   1     -47.981  16.137  -4.761  0.00  0.00     0.033 A 
BRANCH  17  18
ATOM     18  N1  NON d   1     -47.438  16.505  -6.023  0.00  0.00    -0.301 NA
ATOM     19  H1  NON d   1     -46.954  17.398  -5.961  0.00  0.00     0.124 HD
ATOM     20  H2  NON d   1     -46.766  15.789  -6.303  0.00  0.00     0.124 HD
ENDBRANCH  17  18
ENDBRANCH   9  12
ENDBRANCH   5   8
ENDBRANCH   1   2
BRANCH   1  21
ATOM     21  N3  NON d   1     -40.503  21.268  -6.002  0.00  0.00    -0.257 NA
ATOM     22  H12 NON d   1     -41.442  21.406  -6.350  0.00  0.00     0.131 HD
BRANCH  21  23
ATOM     23  C13 NON d   1     -39.685  21.109  -7.129  0.00  0.00     0.202 A 
ATOM     24  N4  NON d   1     -38.636  20.277  -7.061  0.00  0.00    -0.231 NA
ATOM     25  C14 NON d   1     -37.883  20.134  -8.155  0.00  0.00     0.122 A 
ATOM     26  C15 NON d   1     -38.129  20.804  -9.322  0.00  0.00     0.052 A 
ATOM     27  C16 NON d   1     -39.219  21.655  -9.337  0.00  0.00     0.073 A 
ATOM     28  N7  NON d   1     -40.012  21.795  -8.239  0.00  0.00    -0.218 NA
BRANCH  27  29
ATOM     29  C17 NON d   1     -39.564  22.469 -10.530  0.00  0.00     0.010 A 
ATOM     30  C18 NON d   1     -39.969  23.807 -10.458  0.00  0.00     0.018 A 
ATOM     31  C19 NON d   1     -40.318  24.530 -11.606  0.00  0.00     0.045 A 
ATOM     32  C20 NON d   1     -40.296  23.929 -12.860  0.00  0.00     0.105 A 
ATOM     33  N6  NON d   1     -39.880  22.647 -12.956  0.00  0.00    -0.248 NA
ATOM     34  C25 NON d   1     -39.532  21.962 -11.824  0.00  0.00     0.132 A 
BRANCH  32  35
ATOM     35  N5  NON d   1     -40.638  24.638 -14.025  0.00  0.00    -0.264 NA
ATOM     36  C21 NON d   1     -39.603  24.751 -15.074  0.00  0.00     0.123 C 
ATOM     37  C22 NON d   1     -40.152  25.487 -16.307  0.00  0.00     0.182 C 
ATOM     38  O2  NON d   1     -40.681  26.774 -15.964  0.00  0.00    -0.389 OA
ATOM     39  C23 NON d   1     -41.765  26.612 -15.036  0.00  0.00     0.182 C 
ATOM     40  C24 NON d   1     -41.309  25.926 -13.736  0.00  0.00     0.123 C 
ENDBRANCH  32  35
ENDBRANCH  27  29
ENDBRANCH  21  23
ENDBRANCH   1  21
TORSDOF 8
ENDMDL
