MODEL 1
REMARK VINA RESULT:   -15.055      0.000      0.000
REMARK INTER + INTRA:         -18.405
REMARK INTER:                 -17.441
REMARK INTRA:                  -0.964
REMARK CONF_INDEPENDENT:        2.386
REMARK UNBOUND:                -0.964
REMARK  8 active torsions:
REMARK  status: ('A' for Active; 'I' for Inactive)
REMARK    1  A    between atoms: C4_4  and  C2_2 
REMARK    2  A    between atoms: C8_10  and  C9_11 
REMARK    3  A    between atoms: C9_11  and  C10_12 
REMARK    4  A    between atoms: C11_13  and  C12_14 
REMARK    5  A    between atoms: C12_14  and  C13_15 
REMARK    6  A    between atoms: C13_15  and  C14_16 
REMARK    7  A    between atoms: C16_22  and  C17_23 
REMARK    8  A    between atoms: C17_23  and  C18_24 
ROOT
ATOM      1  C4  NON d   1     -37.910  21.131  -8.888  0.00  0.00     0.158 C 
ATOM      2  N1  NON d   1     -38.998  20.137  -8.769  0.00  0.00    -0.249 NA
ATOM      3  C5  NON d   1     -39.040  19.315  -7.674  0.00  0.00     0.203 C 
ATOM      4  O1  NON d   1     -38.136  18.498  -7.506  0.00  0.00    -0.279 OA
ATOM      5  C6  NON d   1     -40.368  19.298  -6.921  0.00  0.00     0.091 C 
ATOM      6  C7  NON d   1     -41.124  20.622  -7.054  0.00  0.00     0.021 C 
ATOM      7  C8  NON d   1     -40.163  18.756  -5.467  0.00  0.00     0.100 C 
ATOM      8  N2  NON d   1     -39.660  19.716  -4.472  0.00  0.00    -0.354 N 
ATOM      9  C15 NON d   1     -40.272  20.865  -4.042  0.00  0.00     0.236 C 
ATOM     10  O4  NON d   1     -41.427  21.160  -4.347  0.00  0.00    -0.272 OA
ATOM     11  C16 NON d   1     -39.442  21.726  -3.051  0.00  0.00     0.159 C 
ATOM     12  N3  NON d   1     -37.997  21.711  -3.459  0.00  0.00    -0.247 NA
ATOM     13  C24 NON d   1     -37.678  22.592  -4.481  0.00  0.00     0.220 C 
ATOM     14  O5  NON d   1     -37.976  23.787  -4.379  0.00  0.00    -0.278 OA
ATOM     15  C25 NON d   1     -36.898  22.075  -5.729  0.00  0.00     0.166 C 
ATOM     16  C26 NON d   1     -36.683  20.586  -5.770  0.00  0.00     0.042 C 
ATOM     17  N4  NON d   1     -37.586  22.722  -6.866  0.00  0.00    -0.347 N 
ATOM     18  C27 NON d   1     -38.214  22.386  -8.018  0.00  0.00     0.236 C 
ATOM     19  O6  NON d   1     -39.079  23.197  -8.383  0.00  0.00    -0.272 OA
ATOM     20  H9  NON d   1     -38.878  19.481  -9.528  0.00  0.00     0.131 HD
ATOM     21  H23 NON d   1     -38.804  19.463  -3.996  0.00  0.00     0.162 HD
ATOM     22  H32 NON d   1     -37.471  22.032  -2.652  0.00  0.00     0.131 HD
ATOM     23  H37 NON d   1     -37.951  23.633  -6.583  0.00  0.00     0.163 HD
ENDROOT
BRANCH   7  24
ATOM     24  C9  NON d   1     -41.365  17.897  -4.983  0.00  0.00     0.053 C 
BRANCH  24  25
ATOM     25  C10 NON d   1     -42.632  18.731  -4.996  0.00  0.00    -0.029 C 
ATOM     26  C11 NON d   1     -43.902  18.321  -4.853  0.00  0.00    -0.030 C 
BRANCH  26  27
ATOM     27  C12 NON d   1     -44.389  16.924  -4.602  0.00  0.00     0.037 C 
BRANCH  27  28
ATOM     28  C13 NON d   1     -45.906  16.870  -4.410  0.00  0.00     0.117 C 
BRANCH  28  29
ATOM     29  C14 NON d   1     -46.753  16.357  -5.579  0.00  0.00     0.172 C 
ATOM     30  O2  NON d   1     -47.442  17.253  -6.147  0.00  0.00    -0.648 OA
ATOM     31  O3  NON d   1     -46.690  15.124  -5.835  0.00  0.00    -0.648 OA
ENDBRANCH  28  29
ENDBRANCH  27  28
ENDBRANCH  26  27
ENDBRANCH  24  25
ENDBRANCH   7  24
BRANCH  11  32
ATOM     32  C17 NON d   1     -39.643  21.219  -1.605  0.00  0.00     0.068 C 
BRANCH  32  33
ATOM     33  C18 NON d   1     -40.211  22.197  -0.589  0.00  0.00    -0.056 A 
ATOM     34  C19 NON d   1     -40.671  23.447  -1.030  0.00  0.00     0.007 A 
ATOM     35  C20 NON d   1     -41.102  24.417  -0.118  0.00  0.00     0.001 A 
ATOM     36  C21 NON d   1     -41.075  24.155   1.250  0.00  0.00     0.000 A 
ATOM     37  C22 NON d   1     -40.673  22.904   1.699  0.00  0.00     0.001 A 
ATOM     38  C23 NON d   1     -40.285  21.921   0.784  0.00  0.00     0.007 A 
ENDBRANCH  32  33
ENDBRANCH  11  32
BRANCH   1  39
ATOM     39  C2  NON d   1     -37.830  21.622 -10.384  0.00  0.00     0.004 C 
ATOM     40  C1  NON d   1     -36.931  20.700 -11.214  0.00  0.00     0.011 C 
ATOM     41  C3  NON d   1     -39.188  21.774 -11.089  0.00  0.00     0.011 C 
ENDBRANCH   1  39
TORSDOF 8
ENDMDL
MODEL 2
REMARK VINA RESULT:   -14.355      1.346      1.898
REMARK INTER + INTRA:         -17.745
REMARK INTER:                 -16.742
REMARK INTRA:                  -1.004
REMARK CONF_INDEPENDENT:        2.386
REMARK UNBOUND:                -1.004
REMARK  8 active torsions:
REMARK  status: ('A' for Active; 'I' for Inactive)
REMARK    1  A    between atoms: C4_4  and  C2_2 
REMARK    2  A    between atoms: C8_10  and  C9_11 
REMARK    3  A    between atoms: C9_11  and  C10_12 
REMARK    4  A    between atoms: C11_13  and  C12_14 
REMARK    5  A    between atoms: C12_14  and  C13_15 
REMARK    6  A    between atoms: C13_15  and  C14_16 
REMARK    7  A    between atoms: C16_22  and  C17_23 
REMARK    8  A    between atoms: C17_23  and  C18_24 
ROOT
ATOM      1  C4  NON d   1     -37.383  20.421  -7.290  0.00  0.00     0.158 C 
ATOM      2  N1  NON d   1     -38.538  19.513  -7.118  0.00  0.00    -0.249 NA
ATOM      3  C5  NON d   1     -38.879  19.093  -5.859  0.00  0.00     0.203 C 
ATOM      4  O1  NON d   1     -38.093  18.381  -5.235  0.00  0.00    -0.279 OA
ATOM      5  C6  NON d   1     -40.338  19.314  -5.470  0.00  0.00     0.091 C 
ATOM      6  C7  NON d   1     -40.952  20.517  -6.190  0.00  0.00     0.021 C 
ATOM      7  C8  NON d   1     -40.500  19.276  -3.914  0.00  0.00     0.100 C 
ATOM      8  N2  NON d   1     -40.164  20.512  -3.188  0.00  0.00    -0.354 N 
ATOM      9  C15 NON d   1     -40.774  21.734  -3.301  0.00  0.00     0.236 C 
ATOM     10  O4  NON d   1     -41.810  21.906  -3.944  0.00  0.00    -0.272 OA
ATOM     11  C16 NON d   1     -40.128  22.876  -2.471  0.00  0.00     0.159 C 
ATOM     12  N3  NON d   1     -38.632  22.739  -2.506  0.00  0.00    -0.247 NA
ATOM     13  C24 NON d   1     -38.034  23.241  -3.651  0.00  0.00     0.220 C 
ATOM     14  O5  NON d   1     -38.263  24.401  -4.007  0.00  0.00    -0.278 OA
ATOM     15  C25 NON d   1     -37.034  22.350  -4.452  0.00  0.00     0.166 C 
ATOM     16  C26 NON d   1     -36.921  20.931  -3.966  0.00  0.00     0.042 C 
ATOM     17  N4  NON d   1     -37.406  22.587  -5.863  0.00  0.00    -0.347 N 
ATOM     18  C27 NON d   1     -37.785  21.890  -6.961  0.00  0.00     0.236 C 
ATOM     19  O6  NON d   1     -38.488  22.533  -7.755  0.00  0.00    -0.272 OA
ATOM     20  H9  NON d   1     -38.298  18.647  -7.578  0.00  0.00     0.131 HD
ATOM     21  H23 NON d   1     -39.454  20.433  -2.471  0.00  0.00     0.162 HD
ATOM     22  H32 NON d   1     -38.278  23.308  -1.744  0.00  0.00     0.131 HD
ATOM     23  H37 NON d   1     -37.760  23.538  -5.978  0.00  0.00     0.163 HD
ENDROOT
BRANCH   7  24
ATOM     24  C9  NON d   1     -41.836  18.615  -3.475  0.00  0.00     0.053 C 
BRANCH  24  25
ATOM     25  C10 NON d   1     -42.174  17.468  -4.408  0.00  0.00    -0.029 C 
ATOM     26  C11 NON d   1     -43.382  17.066  -4.832  0.00  0.00    -0.030 C 
BRANCH  26  27
ATOM     27  C12 NON d   1     -44.714  17.682  -4.517  0.00  0.00     0.037 C 
BRANCH  27  28
ATOM     28  C13 NON d   1     -45.793  16.625  -4.277  0.00  0.00     0.117 C 
BRANCH  28  29
ATOM     29  C14 NON d   1     -46.744  16.304  -5.435  0.00  0.00     0.172 C 
ATOM     30  O2  NON d   1     -46.689  15.101  -5.825  0.00  0.00    -0.648 OA
ATOM     31  O3  NON d   1     -47.449  17.249  -5.878  0.00  0.00    -0.648 OA
ENDBRANCH  28  29
ENDBRANCH  27  28
ENDBRANCH  26  27
ENDBRANCH  24  25
ENDBRANCH   7  24
BRANCH  11  32
ATOM     32  C17 NON d   1     -40.679  22.867  -1.028  0.00  0.00     0.068 C 
BRANCH  32  33
ATOM     33  C18 NON d   1     -40.767  24.198  -0.299  0.00  0.00    -0.056 A 
ATOM     34  C19 NON d   1     -40.943  24.203   1.093  0.00  0.00     0.007 A 
ATOM     35  C20 NON d   1     -41.135  25.401   1.789  0.00  0.00     0.001 A 
ATOM     36  C21 NON d   1     -41.160  26.614   1.104  0.00  0.00     0.000 A 
ATOM     37  C22 NON d   1     -40.934  26.631  -0.266  0.00  0.00     0.001 A 
ATOM     38  C23 NON d   1     -40.697  25.437  -0.953  0.00  0.00     0.007 A 
ENDBRANCH  32  33
ENDBRANCH  11  32
BRANCH   1  39
ATOM     39  C2  NON d   1     -36.939  20.399  -8.803  0.00  0.00     0.004 C 
ATOM     40  C1  NON d   1     -36.262  19.070  -9.153  0.00  0.00     0.011 C 
ATOM     41  C3  NON d   1     -38.066  20.675  -9.812  0.00  0.00     0.011 C 
ENDBRANCH   1  39
TORSDOF 8
ENDMDL
MODEL 3
REMARK VINA RESULT:   -13.687      2.013      6.650
REMARK INTER + INTRA:         -17.093
REMARK INTER:                 -16.074
REMARK INTRA:                  -1.019
REMARK CONF_INDEPENDENT:        2.386
REMARK UNBOUND:                -1.019
REMARK  8 active torsions:
REMARK  status: ('A' for Active; 'I' for Inactive)
REMARK    1  A    between atoms: C4_4  and  C2_2 
REMARK    2  A    between atoms: C8_10  and  C9_11 
REMARK    3  A    between atoms: C9_11  and  C10_12 
REMARK    4  A    between atoms: C11_13  and  C12_14 
REMARK    5  A    between atoms: C12_14  and  C13_15 
REMARK    6  A    between atoms: C13_15  and  C14_16 
REMARK    7  A    between atoms: C16_22  and  C17_23 
REMARK    8  A    between atoms: C17_23  and  C18_24 
ROOT
ATOM      1  C4  NON d   1     -38.106  21.323  -1.929  0.00  0.00     0.158 C 
ATOM      2  N1  NON d   1     -39.026  20.173  -2.059  0.00  0.00    -0.249 NA
ATOM      3  C5  NON d   1     -40.115  20.274  -2.885  0.00  0.00     0.203 C 
ATOM      4  O1  NON d   1     -40.999  21.083  -2.609  0.00  0.00    -0.279 OA
ATOM      5  C6  NON d   1     -40.258  19.157  -3.914  0.00  0.00     0.091 C 
ATOM      6  C7  NON d   1     -38.906  18.562  -4.314  0.00  0.00     0.021 C 
ATOM      7  C8  NON d   1     -41.193  19.611  -5.085  0.00  0.00     0.100 C 
ATOM      8  N2  NON d   1     -40.577  20.440  -6.134  0.00  0.00    -0.354 N 
ATOM      9  C15 NON d   1     -39.558  20.089  -6.979  0.00  0.00     0.236 C 
ATOM     10  O4  NON d   1     -39.120  18.941  -7.056  0.00  0.00    -0.272 OA
ATOM     11  C16 NON d   1     -39.056  21.220  -7.918  0.00  0.00     0.159 C 
ATOM     12  N3  NON d   1     -39.045  22.524  -7.173  0.00  0.00    -0.247 NA
ATOM     13  C24 NON d   1     -37.937  22.714  -6.362  0.00  0.00     0.220 C 
ATOM     14  O5  NON d   1     -36.801  22.599  -6.835  0.00  0.00    -0.278 OA
ATOM     15  C25 NON d   1     -38.135  23.125  -4.870  0.00  0.00     0.166 C 
ATOM     16  C26 NON d   1     -39.565  23.137  -4.401  0.00  0.00     0.042 C 
ATOM     17  N4  NON d   1     -37.158  22.288  -4.143  0.00  0.00    -0.347 N 
ATOM     18  C27 NON d   1     -37.124  21.381  -3.137  0.00  0.00     0.236 C 
ATOM     19  O6  NON d   1     -36.193  20.566  -3.217  0.00  0.00    -0.272 OA
ATOM     20  H9  NON d   1     -39.453  20.038  -1.154  0.00  0.00     0.131 HD
ATOM     21  H23 NON d   1     -41.004  21.342  -6.301  0.00  0.00     0.162 HD
ATOM     22  H32 NON d   1     -38.992  23.252  -7.878  0.00  0.00     0.131 HD
ATOM     23  H37 NON d   1     -36.341  22.112  -4.729  0.00  0.00     0.163 HD
ENDROOT
BRANCH   7  24
ATOM     24  C9  NON d   1     -42.077  18.449  -5.619  0.00  0.00     0.053 C 
BRANCH  24  25
ATOM     25  C10 NON d   1     -42.322  17.439  -4.515  0.00  0.00    -0.029 C 
ATOM     26  C11 NON d   1     -43.485  17.103  -3.934  0.00  0.00    -0.030 C 
BRANCH  26  27
ATOM     27  C12 NON d   1     -44.854  17.620  -4.265  0.00  0.00     0.037 C 
BRANCH  27  28
ATOM     28  C13 NON d   1     -45.905  16.508  -4.256  0.00  0.00     0.117 C 
BRANCH  28  29
ATOM     29  C14 NON d   1     -46.708  16.279  -5.541  0.00  0.00     0.172 C 
ATOM     30  O2  NON d   1     -46.907  15.059  -5.812  0.00  0.00    -0.648 OA
ATOM     31  O3  NON d   1     -47.064  17.302  -6.185  0.00  0.00    -0.648 OA
ENDBRANCH  28  29
ENDBRANCH  27  28
ENDBRANCH  26  27
ENDBRANCH  24  25
ENDBRANCH   7  24
BRANCH  11  32
ATOM     32  C17 NON d   1     -39.930  21.285  -9.191  0.00  0.00     0.068 C 
BRANCH  32  33
ATOM     33  C18 NON d   1     -39.578  22.333 -10.233  0.00  0.00    -0.056 A 
ATOM     34  C19 NON d   1     -39.089  21.917 -11.481  0.00  0.00     0.007 A 
ATOM     35  C20 NON d   1     -38.653  22.849 -12.429  0.00  0.00     0.001 A 
ATOM     36  C21 NON d   1     -38.692  24.211 -12.144  0.00  0.00     0.000 A 
ATOM     37  C22 NON d   1     -39.223  24.642 -10.935  0.00  0.00     0.001 A 
ATOM     38  C23 NON d   1     -39.700  23.712 -10.007  0.00  0.00     0.007 A 
ENDBRANCH  32  33
ENDBRANCH  11  32
BRANCH   1  39
ATOM     39  C2  NON d   1     -37.226  21.128  -0.636  0.00  0.00     0.004 C 
ATOM     40  C1  NON d   1     -38.058  21.358   0.630  0.00  0.00     0.011 C 
ATOM     41  C3  NON d   1     -36.516  19.769  -0.535  0.00  0.00     0.011 C 
ENDBRANCH   1  39
TORSDOF 8
ENDMDL
