MODEL 1
REMARK VINA RESULT:   -12.404      0.000      0.000
REMARK INTER + INTRA:         -15.330
REMARK INTER:                 -13.895
REMARK INTRA:                  -1.435
REMARK CONF_INDEPENDENT:        1.492
REMARK UNBOUND:                -1.435
REMARK  5 active torsions:
REMARK  status: ('A' for Active; 'I' for Inactive)
REMARK       I    between atoms: C2_2  and  N1_4 
REMARK    1  A    between atoms: N1_4  and  C3_5 
REMARK    2  A    between atoms: C6_8  and  C7_9 
REMARK       I    between atoms: C7_9  and  N2_11 
REMARK    3  A    between atoms: N2_11  and  C8_12 
REMARK    4  A    between atoms: C10_14  and  C11_15 
REMARK    5  A    between atoms: C19_23  and  O3_24 
ROOT
ATOM      1  C7  NON d   1     -45.381  17.348  -4.644  0.00  0.00     0.256 C 
ATOM      2  O2  NON d   1     -45.565  17.005  -5.812  0.00  0.00    -0.267 OA
ATOM      3  N2  NON d   1     -46.362  17.268  -3.669  0.00  0.00    -0.320 N 
ATOM      4  H7  NON d   1     -46.206  17.753  -2.797  0.00  0.00     0.169 HD
ENDROOT
BRANCH   3   5
ATOM      5  C8  NON d   1     -47.644  16.634  -3.818  0.00  0.00     0.069 A 
ATOM      6  C9  NON d   1     -48.679  17.051  -2.942  0.00  0.00     0.044 A 
ATOM      7  C10 NON d   1     -50.002  16.521  -2.981  0.00  0.00    -0.024 A 
ATOM      8  C17 NON d   1     -50.229  15.514  -3.935  0.00  0.00     0.015 A 
ATOM      9  C18 NON d   1     -49.222  15.055  -4.779  0.00  0.00     0.040 A 
ATOM     10  C19 NON d   1     -47.948  15.607  -4.724  0.00  0.00     0.092 A 
BRANCH   7  11
ATOM     11  C11 NON d   1     -51.112  16.986  -2.075  0.00  0.00    -0.026 A 
ATOM     12  C12 NON d   1     -52.473  16.815  -2.389  0.00  0.00     0.012 A 
ATOM     13  C13 NON d   1     -53.501  17.255  -1.540  0.00  0.00     0.001 A 
ATOM     14  C14 NON d   1     -53.202  17.886  -0.340  0.00  0.00     0.000 A 
ATOM     15  C15 NON d   1     -51.875  18.071   0.012  0.00  0.00     0.001 A 
ATOM     16  C16 NON d   1     -50.856  17.630  -0.841  0.00  0.00     0.012 A 
ENDBRANCH   7  11
BRANCH  10  17
ATOM     17  O3  NON d   1     -47.068  15.005  -5.575  0.00  0.00    -0.358 OA
ATOM     18  H16 NON d   1     -46.954  15.602  -6.343  0.00  0.00     0.217 HD
ENDBRANCH  10  17
ENDBRANCH   3   5
BRANCH   1  19
ATOM     19  C6  NON d   1     -44.019  17.872  -4.309  0.00  0.00     0.032 A 
ATOM     20  C5  NON d   1     -43.284  18.820  -5.026  0.00  0.00     0.019 A 
ATOM     21  C4  NON d   1     -41.955  19.145  -4.635  0.00  0.00     0.030 A 
ATOM     22  C3  NON d   1     -41.338  18.532  -3.529  0.00  0.00     0.034 A 
ATOM     23  C21 NON d   1     -42.111  17.625  -2.801  0.00  0.00     0.030 A 
ATOM     24  C20 NON d   1     -43.415  17.296  -3.184  0.00  0.00     0.019 A 
BRANCH  22  25
ATOM     25  N1  NON d   1     -39.973  18.835  -3.207  0.00  0.00    -0.328 N 
ATOM     26  C2  NON d   1     -38.958  18.963  -4.135  0.00  0.00     0.218 C 
ATOM     27  C1  NON d   1     -37.515  19.326  -3.737  0.00  0.00     0.117 C 
ATOM     28  O1  NON d   1     -39.125  18.861  -5.356  0.00  0.00    -0.274 OA
ATOM     29  H4  NON d   1     -39.769  19.055  -2.242  0.00  0.00     0.169 HD
ENDBRANCH  22  25
ENDBRANCH   1  19
TORSDOF 5
ENDMDL
MODEL 2
REMARK VINA RESULT:   -12.025      4.846     11.169
REMARK INTER + INTRA:         -15.078
REMARK INTER:                 -13.516
REMARK INTRA:                  -1.562
REMARK CONF_INDEPENDENT:        1.492
REMARK UNBOUND:                -1.562
REMARK  5 active torsions:
REMARK  status: ('A' for Active; 'I' for Inactive)
REMARK       I    between atoms: C2_2  and  N1_4 
REMARK    1  A    between atoms: N1_4  and  C3_5 
REMARK    2  A    between atoms: C6_8  and  C7_9 
REMARK       I    between atoms: C7_9  and  N2_11 
REMARK    3  A    between atoms: N2_11  and  C8_12 
REMARK    4  A    between atoms: C10_14  and  C11_15 
REMARK    5  A    between atoms: C19_23  and  O3_24 
ROOT
ATOM      1  C7  NON d   1     -41.165  19.093  -5.589  0.00  0.00     0.256 C 
ATOM      2  O2  NON d   1     -40.174  19.218  -4.868  0.00  0.00    -0.267 OA
ATOM      3  N2  NON d   1     -41.195  19.502  -6.912  0.00  0.00    -0.320 N 
ATOM      4  H7  NON d   1     -42.092  19.556  -7.372  0.00  0.00     0.169 HD
ENDROOT
BRANCH   3   5
ATOM      5  C8  NON d   1     -40.065  19.958  -7.675  0.00  0.00     0.069 A 
ATOM      6  C9  NON d   1     -40.317  20.891  -8.713  0.00  0.00     0.044 A 
ATOM      7  C10 NON d   1     -39.296  21.439  -9.543  0.00  0.00    -0.024 A 
ATOM      8  C17 NON d   1     -37.993  20.974  -9.296  0.00  0.00     0.015 A 
ATOM      9  C18 NON d   1     -37.720  20.026  -8.313  0.00  0.00     0.040 A 
ATOM     10  C19 NON d   1     -38.739  19.526  -7.512  0.00  0.00     0.092 A 
BRANCH   7  11
ATOM     11  C11 NON d   1     -39.557  22.456 -10.623  0.00  0.00    -0.026 A 
ATOM     12  C12 NON d   1     -39.938  23.781 -10.345  0.00  0.00     0.012 A 
ATOM     13  C13 NON d   1     -40.183  24.722 -11.359  0.00  0.00     0.001 A 
ATOM     14  C14 NON d   1     -40.054  24.366 -12.695  0.00  0.00     0.000 A 
ATOM     15  C15 NON d   1     -39.676  23.072 -13.015  0.00  0.00     0.001 A 
ATOM     16  C16 NON d   1     -39.435  22.140 -11.997  0.00  0.00     0.012 A 
ENDBRANCH   7  11
BRANCH  10  17
ATOM     17  O3  NON d   1     -38.313  18.568  -6.641  0.00  0.00    -0.358 OA
ATOM     18  H16 NON d   1     -38.707  18.773  -5.767  0.00  0.00     0.217 HD
ENDBRANCH  10  17
ENDBRANCH   3   5
BRANCH   1  19
ATOM     19  C6  NON d   1     -42.372  18.466  -4.961  0.00  0.00     0.032 A 
ATOM     20  C5  NON d   1     -42.388  17.441  -4.010  0.00  0.00     0.019 A 
ATOM     21  C4  NON d   1     -43.622  16.880  -3.580  0.00  0.00     0.030 A 
ATOM     22  C3  NON d   1     -44.855  17.326  -4.089  0.00  0.00     0.034 A 
ATOM     23  C21 NON d   1     -44.814  18.382  -5.001  0.00  0.00     0.030 A 
ATOM     24  C20 NON d   1     -43.604  18.934  -5.433  0.00  0.00     0.019 A 
BRANCH  22  25
ATOM     25  N1  NON d   1     -46.075  16.688  -3.682  0.00  0.00    -0.328 N 
ATOM     26  C2  NON d   1     -46.987  16.114  -4.547  0.00  0.00     0.218 C 
ATOM     27  C1  NON d   1     -48.264  15.409  -4.054  0.00  0.00     0.117 C 
ATOM     28  O1  NON d   1     -46.831  16.058  -5.773  0.00  0.00    -0.274 OA
ATOM     29  H4  NON d   1     -46.226  16.581  -2.689  0.00  0.00     0.169 HD
ENDBRANCH  22  25
ENDBRANCH   1  19
TORSDOF 5
ENDMDL
MODEL 3
REMARK VINA RESULT:   -11.904      4.840     11.030
REMARK INTER + INTRA:         -14.975
REMARK INTER:                 -13.396
REMARK INTRA:                  -1.579
REMARK CONF_INDEPENDENT:        1.492
REMARK UNBOUND:                -1.579
REMARK  5 active torsions:
REMARK  status: ('A' for Active; 'I' for Inactive)
REMARK       I    between atoms: C2_2  and  N1_4 
REMARK    1  A    between atoms: N1_4  and  C3_5 
REMARK    2  A    between atoms: C6_8  and  C7_9 
REMARK       I    between atoms: C7_9  and  N2_11 
REMARK    3  A    between atoms: N2_11  and  C8_12 
REMARK    4  A    between atoms: C10_14  and  C11_15 
REMARK    5  A    between atoms: C19_23  and  O3_24 
ROOT
ATOM      1  C7  NON d   1     -41.205  18.974  -5.786  0.00  0.00     0.256 C 
ATOM      2  O2  NON d   1     -40.110  18.852  -5.237  0.00  0.00    -0.267 OA
ATOM      3  N2  NON d   1     -41.379  19.639  -6.988  0.00  0.00    -0.320 N 
ATOM      4  H7  NON d   1     -42.320  19.875  -7.269  0.00  0.00     0.169 HD
ENDROOT
BRANCH   3   5
ATOM      5  C8  NON d   1     -40.327  20.121  -7.841  0.00  0.00     0.069 A 
ATOM      6  C9  NON d   1     -40.480  21.420  -8.391  0.00  0.00     0.044 A 
ATOM      7  C10 NON d   1     -39.514  22.033  -9.242  0.00  0.00    -0.024 A 
ATOM      8  C17 NON d   1     -38.385  21.253  -9.544  0.00  0.00     0.015 A 
ATOM      9  C18 NON d   1     -38.227  19.959  -9.055  0.00  0.00     0.040 A 
ATOM     10  C19 NON d   1     -39.181  19.401  -8.214  0.00  0.00     0.092 A 
BRANCH   7  11
ATOM     11  C11 NON d   1     -39.659  23.425  -9.799  0.00  0.00    -0.026 A 
ATOM     12  C12 NON d   1     -39.789  24.561  -8.980  0.00  0.00     0.012 A 
ATOM     13  C13 NON d   1     -39.927  25.856  -9.508  0.00  0.00     0.001 A 
ATOM     14  C14 NON d   1     -39.940  26.058 -10.882  0.00  0.00     0.000 A 
ATOM     15  C15 NON d   1     -39.810  24.967 -11.726  0.00  0.00     0.001 A 
ATOM     16  C16 NON d   1     -39.674  23.679 -11.191  0.00  0.00     0.012 A 
ENDBRANCH   7  11
BRANCH  10  17
ATOM     17  O3  NON d   1     -38.903  18.110  -7.873  0.00  0.00    -0.358 OA
ATOM     18  H16 NON d   1     -39.024  18.034  -6.903  0.00  0.00     0.217 HD
ENDBRANCH  10  17
ENDBRANCH   3   5
BRANCH   1  19
ATOM     19  C6  NON d   1     -42.376  18.361  -5.081  0.00  0.00     0.032 A 
ATOM     20  C5  NON d   1     -42.348  17.301  -4.171  0.00  0.00     0.019 A 
ATOM     21  C4  NON d   1     -43.560  16.761  -3.659  0.00  0.00     0.030 A 
ATOM     22  C3  NON d   1     -44.816  17.265  -4.045  0.00  0.00     0.034 A 
ATOM     23  C21 NON d   1     -44.815  18.355  -4.918  0.00  0.00     0.030 A 
ATOM     24  C20 NON d   1     -43.627  18.886  -5.430  0.00  0.00     0.019 A 
BRANCH  22  25
ATOM     25  N1  NON d   1     -46.019  16.650  -3.560  0.00  0.00    -0.328 N 
ATOM     26  C2  NON d   1     -47.014  16.131  -4.365  0.00  0.00     0.218 C 
ATOM     27  C1  NON d   1     -48.270  15.448  -3.791  0.00  0.00     0.117 C 
ATOM     28  O1  NON d   1     -46.959  16.111  -5.601  0.00  0.00    -0.274 OA
ATOM     29  H4  NON d   1     -46.092  16.514  -2.561  0.00  0.00     0.169 HD
ENDBRANCH  22  25
ENDBRANCH   1  19
TORSDOF 5
ENDMDL
MODEL 4
REMARK VINA RESULT:   -11.254      4.706     11.194
REMARK INTER + INTRA:         -14.339
REMARK INTER:                 -12.746
REMARK INTRA:                  -1.593
REMARK CONF_INDEPENDENT:        1.492
REMARK UNBOUND:                -1.593
REMARK  5 active torsions:
REMARK  status: ('A' for Active; 'I' for Inactive)
REMARK       I    between atoms: C2_2  and  N1_4 
REMARK    1  A    between atoms: N1_4  and  C3_5 
REMARK    2  A    between atoms: C6_8  and  C7_9 
REMARK       I    between atoms: C7_9  and  N2_11 
REMARK    3  A    between atoms: N2_11  and  C8_12 
REMARK    4  A    between atoms: C10_14  and  C11_15 
REMARK    5  A    between atoms: C19_23  and  O3_24 
ROOT
ATOM      1  C7  NON d   1     -40.883  19.103  -5.534  0.00  0.00     0.256 C 
ATOM      2  O2  NON d   1     -39.888  18.378  -5.577  0.00  0.00    -0.267 OA
ATOM      3  N2  NON d   1     -40.890  20.406  -6.001  0.00  0.00    -0.320 N 
ATOM      4  H7  NON d   1     -41.669  20.998  -5.748  0.00  0.00     0.169 HD
ENDROOT
BRANCH   3   5
ATOM      5  C8  NON d   1     -39.832  21.039  -6.742  0.00  0.00     0.069 A 
ATOM      6  C9  NON d   1     -40.149  21.533  -8.033  0.00  0.00     0.044 A 
ATOM      7  C10 NON d   1     -39.207  22.192  -8.876  0.00  0.00    -0.024 A 
ATOM      8  C17 NON d   1     -37.903  22.305  -8.363  0.00  0.00     0.015 A 
ATOM      9  C18 NON d   1     -37.552  21.792  -7.117  0.00  0.00     0.040 A 
ATOM     10  C19 NON d   1     -38.501  21.169  -6.317  0.00  0.00     0.092 A 
BRANCH   7  11
ATOM     11  C11 NON d   1     -39.550  22.748 -10.233  0.00  0.00    -0.026 A 
ATOM     12  C12 NON d   1     -39.323  22.037 -11.425  0.00  0.00     0.012 A 
ATOM     13  C13 NON d   1     -39.642  22.564 -12.687  0.00  0.00     0.001 A 
ATOM     14  C14 NON d   1     -40.203  23.830 -12.800  0.00  0.00     0.000 A 
ATOM     15  C15 NON d   1     -40.449  24.563 -11.651  0.00  0.00     0.001 A 
ATOM     16  C16 NON d   1     -40.126  24.030 -10.396  0.00  0.00     0.012 A 
ENDBRANCH   7  11
BRANCH  10  17
ATOM     17  O3  NON d   1     -37.980  20.674  -5.157  0.00  0.00    -0.358 OA
ATOM     18  H16 NON d   1     -38.480  19.861  -4.938  0.00  0.00     0.217 HD
ENDBRANCH  10  17
ENDBRANCH   3   5
BRANCH   1  19
ATOM     19  C6  NON d   1     -42.119  18.504  -4.936  0.00  0.00     0.032 A 
ATOM     20  C5  NON d   1     -42.181  17.477  -3.989  0.00  0.00     0.019 A 
ATOM     21  C4  NON d   1     -43.438  16.944  -3.590  0.00  0.00     0.030 A 
ATOM     22  C3  NON d   1     -44.649  17.421  -4.126  0.00  0.00     0.034 A 
ATOM     23  C21 NON d   1     -44.561  18.479  -5.033  0.00  0.00     0.030 A 
ATOM     24  C20 NON d   1     -43.328  19.003  -5.435  0.00  0.00     0.019 A 
BRANCH  22  25
ATOM     25  N1  NON d   1     -45.893  16.813  -3.749  0.00  0.00    -0.328 N 
ATOM     26  C2  NON d   1     -46.725  16.130  -4.614  0.00  0.00     0.218 C 
ATOM     27  C1  NON d   1     -48.034  15.463  -4.150  0.00  0.00     0.117 C 
ATOM     28  O1  NON d   1     -46.470  15.941  -5.810  0.00  0.00    -0.274 OA
ATOM     29  H4  NON d   1     -46.123  16.814  -2.765  0.00  0.00     0.169 HD
ENDBRANCH  22  25
ENDBRANCH   1  19
TORSDOF 5
ENDMDL
MODEL 5
REMARK VINA RESULT:   -11.084      4.407     11.752
REMARK INTER + INTRA:         -14.156
REMARK INTER:                 -12.576
REMARK INTRA:                  -1.580
REMARK CONF_INDEPENDENT:        1.492
REMARK UNBOUND:                -1.580
REMARK  5 active torsions:
REMARK  status: ('A' for Active; 'I' for Inactive)
REMARK       I    between atoms: C2_2  and  N1_4 
REMARK    1  A    between atoms: N1_4  and  C3_5 
REMARK    2  A    between atoms: C6_8  and  C7_9 
REMARK       I    between atoms: C7_9  and  N2_11 
REMARK    3  A    between atoms: N2_11  and  C8_12 
REMARK    4  A    between atoms: C10_14  and  C11_15 
REMARK    5  A    between atoms: C19_23  and  O3_24 
ROOT
ATOM      1  C7  NON d   1     -41.054  19.103  -5.450  0.00  0.00     0.256 C 
ATOM      2  O2  NON d   1     -40.551  19.811  -4.577  0.00  0.00    -0.267 OA
ATOM      3  N2  NON d   1     -40.446  18.860  -6.670  0.00  0.00    -0.320 N 
ATOM      4  H7  NON d   1     -41.003  18.446  -7.405  0.00  0.00     0.169 HD
ENDROOT
BRANCH   3   5
ATOM      5  C8  NON d   1     -39.105  19.236  -7.030  0.00  0.00     0.069 A 
ATOM      6  C9  NON d   1     -38.899  19.727  -8.344  0.00  0.00     0.044 A 
ATOM      7  C10 NON d   1     -37.629  20.148  -8.836  0.00  0.00    -0.024 A 
ATOM      8  C17 NON d   1     -36.554  20.019  -7.940  0.00  0.00     0.015 A 
ATOM      9  C18 NON d   1     -36.718  19.500  -6.659  0.00  0.00     0.040 A 
ATOM     10  C19 NON d   1     -37.974  19.115  -6.208  0.00  0.00     0.092 A 
BRANCH   7  11
ATOM     11  C11 NON d   1     -37.415  20.703 -10.220  0.00  0.00    -0.026 A 
ATOM     12  C12 NON d   1     -36.386  20.255 -11.068  0.00  0.00     0.012 A 
ATOM     13  C13 NON d   1     -36.190  20.781 -12.356  0.00  0.00     0.001 A 
ATOM     14  C14 NON d   1     -37.023  21.779 -12.842  0.00  0.00     0.000 A 
ATOM     15  C15 NON d   1     -38.053  22.247 -12.043  0.00  0.00     0.001 A 
ATOM     16  C16 NON d   1     -38.240  21.718 -10.759  0.00  0.00     0.012 A 
ENDBRANCH   7  11
BRANCH  10  17
ATOM     17  O3  NON d   1     -37.950  18.576  -4.955  0.00  0.00    -0.358 OA
ATOM     18  H16 NON d   1     -38.590  19.079  -4.410  0.00  0.00     0.217 HD
ENDBRANCH  10  17
ENDBRANCH   3   5
BRANCH   1  19
ATOM     19  C6  NON d   1     -42.389  18.501  -5.134  0.00  0.00     0.032 A 
ATOM     20  C5  NON d   1     -43.645  19.052  -5.407  0.00  0.00     0.019 A 
ATOM     21  C4  NON d   1     -44.827  18.403  -4.954  0.00  0.00     0.030 A 
ATOM     22  C3  NON d   1     -44.778  17.203  -4.222  0.00  0.00     0.034 A 
ATOM     23  C21 NON d   1     -43.515  16.649  -4.004  0.00  0.00     0.030 A 
ATOM     24  C20 NON d   1     -42.349  17.285  -4.441  0.00  0.00     0.019 A 
BRANCH  22  25
ATOM     25  N1  NON d   1     -45.989  16.615  -3.723  0.00  0.00    -0.328 N 
ATOM     26  C2  NON d   1     -46.972  16.054  -4.515  0.00  0.00     0.218 C 
ATOM     27  C1  NON d   1     -48.237  15.402  -3.925  0.00  0.00     0.117 C 
ATOM     28  O1  NON d   1     -46.899  15.969  -5.747  0.00  0.00    -0.274 OA
ATOM     29  H4  NON d   1     -46.078  16.531  -2.720  0.00  0.00     0.169 HD
ENDBRANCH  22  25
ENDBRANCH   1  19
TORSDOF 5
ENDMDL
MODEL 6
REMARK VINA RESULT:   -10.573      3.844     10.312
REMARK INTER + INTRA:         -13.652
REMARK INTER:                 -12.065
REMARK INTRA:                  -1.587
REMARK CONF_INDEPENDENT:        1.492
REMARK UNBOUND:                -1.587
REMARK  5 active torsions:
REMARK  status: ('A' for Active; 'I' for Inactive)
REMARK       I    between atoms: C2_2  and  N1_4 
REMARK    1  A    between atoms: N1_4  and  C3_5 
REMARK    2  A    between atoms: C6_8  and  C7_9 
REMARK       I    between atoms: C7_9  and  N2_11 
REMARK    3  A    between atoms: N2_11  and  C8_12 
REMARK    4  A    between atoms: C10_14  and  C11_15 
REMARK    5  A    between atoms: C19_23  and  O3_24 
ROOT
ATOM      1  C7  NON d   1     -41.060  19.122  -3.772  0.00  0.00     0.256 C 
ATOM      2  O2  NON d   1     -40.338  19.408  -4.728  0.00  0.00    -0.267 OA
ATOM      3  N2  NON d   1     -40.667  19.280  -2.453  0.00  0.00    -0.320 N 
ATOM      4  H7  NON d   1     -41.223  18.838  -1.735  0.00  0.00     0.169 HD
ENDROOT
BRANCH   3   5
ATOM      5  C8  NON d   1     -39.470  19.941  -2.008  0.00  0.00     0.069 A 
ATOM      6  C9  NON d   1     -39.613  20.939  -1.010  0.00  0.00     0.044 A 
ATOM      7  C10 NON d   1     -38.516  21.668  -0.464  0.00  0.00    -0.024 A 
ATOM      8  C17 NON d   1     -37.253  21.363  -1.000  0.00  0.00     0.015 A 
ATOM      9  C18 NON d   1     -37.087  20.420  -2.011  0.00  0.00     0.040 A 
ATOM     10  C19 NON d   1     -38.178  19.717  -2.507  0.00  0.00     0.092 A 
BRANCH   7  11
ATOM     11  C11 NON d   1     -38.661  22.703   0.620  0.00  0.00    -0.026 A 
ATOM     12  C12 NON d   1     -39.688  23.665   0.621  0.00  0.00     0.012 A 
ATOM     13  C13 NON d   1     -39.814  24.629   1.635  0.00  0.00     0.001 A 
ATOM     14  C14 NON d   1     -38.910  24.665   2.689  0.00  0.00     0.000 A 
ATOM     15  C15 NON d   1     -37.886  23.733   2.730  0.00  0.00     0.001 A 
ATOM     16  C16 NON d   1     -37.767  22.776   1.715  0.00  0.00     0.012 A 
ENDBRANCH   7  11
BRANCH  10  17
ATOM     17  O3  NON d   1     -37.851  18.876  -3.529  0.00  0.00    -0.358 OA
ATOM     18  H16 NON d   1     -38.513  19.010  -4.239  0.00  0.00     0.217 HD
ENDBRANCH  10  17
ENDBRANCH   3   5
BRANCH   1  19
ATOM     19  C6  NON d   1     -42.417  18.577  -4.099  0.00  0.00     0.032 A 
ATOM     20  C5  NON d   1     -43.352  19.127  -4.981  0.00  0.00     0.019 A 
ATOM     21  C4  NON d   1     -44.643  18.546  -5.112  0.00  0.00     0.030 A 
ATOM     22  C3  NON d   1     -45.024  17.414  -4.369  0.00  0.00     0.034 A 
ATOM     23  C21 NON d   1     -44.056  16.856  -3.531  0.00  0.00     0.030 A 
ATOM     24  C20 NON d   1     -42.787  17.426  -3.393  0.00  0.00     0.019 A 
BRANCH  22  25
ATOM     25  N1  NON d   1     -46.359  16.896  -4.477  0.00  0.00    -0.328 N 
ATOM     26  C2  NON d   1     -46.754  15.932  -5.384  0.00  0.00     0.218 C 
ATOM     27  C1  NON d   1     -48.193  15.384  -5.434  0.00  0.00     0.117 C 
ATOM     28  O1  NON d   1     -45.986  15.382  -6.184  0.00  0.00    -0.274 OA
ATOM     29  H4  NON d   1     -47.025  17.200  -3.782  0.00  0.00     0.169 HD
ENDBRANCH  22  25
ENDBRANCH   1  19
TORSDOF 5
ENDMDL
MODEL 7
REMARK VINA RESULT:   -10.364      3.045     10.600
REMARK INTER + INTRA:         -13.425
REMARK INTER:                 -11.856
REMARK INTRA:                  -1.569
REMARK CONF_INDEPENDENT:        1.492
REMARK UNBOUND:                -1.569
REMARK  5 active torsions:
REMARK  status: ('A' for Active; 'I' for Inactive)
REMARK       I    between atoms: C2_2  and  N1_4 
REMARK    1  A    between atoms: N1_4  and  C3_5 
REMARK    2  A    between atoms: C6_8  and  C7_9 
REMARK       I    between atoms: C7_9  and  N2_11 
REMARK    3  A    between atoms: N2_11  and  C8_12 
REMARK    4  A    between atoms: C10_14  and  C11_15 
REMARK    5  A    between atoms: C19_23  and  O3_24 
ROOT
ATOM      1  C7  NON d   1     -41.027  18.841  -4.422  0.00  0.00     0.256 C 
ATOM      2  O2  NON d   1     -40.513  19.244  -5.466  0.00  0.00    -0.267 OA
ATOM      3  N2  NON d   1     -40.355  18.811  -3.211  0.00  0.00    -0.320 N 
ATOM      4  H7  NON d   1     -40.765  18.283  -2.454  0.00  0.00     0.169 HD
ENDROOT
BRANCH   3   5
ATOM      5  C8  NON d   1     -39.062  19.385  -2.954  0.00  0.00     0.069 A 
ATOM      6  C9  NON d   1     -38.958  20.288  -1.865  0.00  0.00     0.044 A 
ATOM      7  C10 NON d   1     -37.740  20.924  -1.484  0.00  0.00    -0.024 A 
ATOM      8  C17 NON d   1     -36.621  20.627  -2.282  0.00  0.00     0.015 A 
ATOM      9  C18 NON d   1     -36.702  19.778  -3.382  0.00  0.00     0.040 A 
ATOM     10  C19 NON d   1     -37.903  19.164  -3.714  0.00  0.00     0.092 A 
BRANCH   7  11
ATOM     11  C11 NON d   1     -37.620  21.857  -0.308  0.00  0.00    -0.026 A 
ATOM     12  C12 NON d   1     -36.612  22.833  -0.212  0.00  0.00     0.012 A 
ATOM     13  C13 NON d   1     -36.505  23.697   0.891  0.00  0.00     0.001 A 
ATOM     14  C14 NON d   1     -37.409  23.612   1.942  0.00  0.00     0.000 A 
ATOM     15  C15 NON d   1     -38.421  22.667   1.886  0.00  0.00     0.001 A 
ATOM     16  C16 NON d   1     -38.519  21.809   0.784  0.00  0.00     0.012 A 
ENDBRANCH   7  11
BRANCH  10  17
ATOM     17  O3  NON d   1     -37.823  18.412  -4.849  0.00  0.00    -0.358 OA
ATOM     18  H16 NON d   1     -38.384  18.846  -5.525  0.00  0.00     0.217 HD
ENDBRANCH  10  17
ENDBRANCH   3   5
BRANCH   1  19
ATOM     19  C6  NON d   1     -42.445  18.369  -4.515  0.00  0.00     0.032 A 
ATOM     20  C5  NON d   1     -43.492  18.986  -5.206  0.00  0.00     0.019 A 
ATOM     21  C4  NON d   1     -44.814  18.469  -5.118  0.00  0.00     0.030 A 
ATOM     22  C3  NON d   1     -45.115  17.334  -4.343  0.00  0.00     0.034 A 
ATOM     23  C21 NON d   1     -44.043  16.709  -3.701  0.00  0.00     0.030 A 
ATOM     24  C20 NON d   1     -42.743  17.216  -3.778  0.00  0.00     0.019 A 
BRANCH  22  25
ATOM     25  N1  NON d   1     -46.472  16.882  -4.224  0.00  0.00    -0.328 N 
ATOM     26  C2  NON d   1     -47.064  15.952  -5.056  0.00  0.00     0.218 C 
ATOM     27  C1  NON d   1     -48.515  15.473  -4.863  0.00  0.00     0.117 C 
ATOM     28  O1  NON d   1     -46.472  15.380  -5.981  0.00  0.00    -0.274 OA
ATOM     29  H4  NON d   1     -46.994  17.206  -3.422  0.00  0.00     0.169 HD
ENDBRANCH  22  25
ENDBRANCH   1  19
TORSDOF 5
ENDMDL
MODEL 8
REMARK VINA RESULT:   -10.261      3.387     10.732
REMARK INTER + INTRA:         -12.742
REMARK INTER:                 -11.752
REMARK INTRA:                  -0.989
REMARK CONF_INDEPENDENT:        1.492
REMARK UNBOUND:                -0.989
REMARK  5 active torsions:
REMARK  status: ('A' for Active; 'I' for Inactive)
REMARK       I    between atoms: C2_2  and  N1_4 
REMARK    1  A    between atoms: N1_4  and  C3_5 
REMARK    2  A    between atoms: C6_8  and  C7_9 
REMARK       I    between atoms: C7_9  and  N2_11 
REMARK    3  A    between atoms: N2_11  and  C8_12 
REMARK    4  A    between atoms: C10_14  and  C11_15 
REMARK    5  A    between atoms: C19_23  and  O3_24 
ROOT
ATOM      1  C7  NON d   1     -41.524  19.222  -4.759  0.00  0.00     0.256 C 
ATOM      2  O2  NON d   1     -41.213  19.578  -5.896  0.00  0.00    -0.267 OA
ATOM      3  N2  NON d   1     -40.742  19.479  -3.645  0.00  0.00    -0.320 N 
ATOM      4  H7  NON d   1     -40.955  18.985  -2.791  0.00  0.00     0.169 HD
ENDROOT
BRANCH   3   5
ATOM      5  C8  NON d   1     -39.577  20.321  -3.614  0.00  0.00     0.069 A 
ATOM      6  C9  NON d   1     -39.659  21.568  -4.283  0.00  0.00     0.044 A 
ATOM      7  C10 NON d   1     -38.590  22.510  -4.326  0.00  0.00    -0.024 A 
ATOM      8  C17 NON d   1     -37.404  22.117  -3.681  0.00  0.00     0.015 A 
ATOM      9  C18 NON d   1     -37.279  20.881  -3.053  0.00  0.00     0.040 A 
ATOM     10  C19 NON d   1     -38.349  19.996  -3.017  0.00  0.00     0.092 A 
BRANCH   7  11
ATOM     11  C11 NON d   1     -38.686  23.850  -5.007  0.00  0.00    -0.026 A 
ATOM     12  C12 NON d   1     -37.575  24.495  -5.579  0.00  0.00     0.012 A 
ATOM     13  C13 NON d   1     -37.674  25.747  -6.209  0.00  0.00     0.001 A 
ATOM     14  C14 NON d   1     -38.896  26.400  -6.288  0.00  0.00     0.000 A 
ATOM     15  C15 NON d   1     -40.019  25.799  -5.743  0.00  0.00     0.001 A 
ATOM     16  C16 NON d   1     -39.911  24.551  -5.115  0.00  0.00     0.012 A 
ENDBRANCH   7  11
BRANCH  10  17
ATOM     17  O3  NON d   1     -38.041  18.811  -2.415  0.00  0.00    -0.358 OA
ATOM     18  H16 NON d   1     -38.571  18.758  -1.592  0.00  0.00     0.217 HD
ENDBRANCH  10  17
ENDBRANCH   3   5
BRANCH   1  19
ATOM     19  C6  NON d   1     -42.816  18.476  -4.623  0.00  0.00     0.032 A 
ATOM     20  C5  NON d   1     -44.015  18.744  -5.291  0.00  0.00     0.019 A 
ATOM     21  C4  NON d   1     -45.190  18.005  -4.981  0.00  0.00     0.030 A 
ATOM     22  C3  NON d   1     -45.192  16.994  -4.002  0.00  0.00     0.034 A 
ATOM     23  C21 NON d   1     -43.971  16.714  -3.385  0.00  0.00     0.030 A 
ATOM     24  C20 NON d   1     -42.814  17.440  -3.680  0.00  0.00     0.019 A 
BRANCH  22  25
ATOM     25  N1  NON d   1     -46.413  16.317  -3.669  0.00  0.00    -0.328 N 
ATOM     26  C2  NON d   1     -47.274  15.753  -4.590  0.00  0.00     0.218 C 
ATOM     27  C1  NON d   1     -48.555  15.005  -4.176  0.00  0.00     0.117 C 
ATOM     28  O1  NON d   1     -47.066  15.741  -5.810  0.00  0.00    -0.274 OA
ATOM     29  H4  NON d   1     -46.603  16.173  -2.687  0.00  0.00     0.169 HD
ENDBRANCH  22  25
ENDBRANCH   1  19
TORSDOF 5
ENDMDL
MODEL 9
REMARK VINA RESULT:    -9.739      3.904     10.398
REMARK INTER + INTRA:         -12.766
REMARK INTER:                 -11.230
REMARK INTRA:                  -1.536
REMARK CONF_INDEPENDENT:        1.492
REMARK UNBOUND:                -1.536
REMARK  5 active torsions:
REMARK  status: ('A' for Active; 'I' for Inactive)
REMARK       I    between atoms: C2_2  and  N1_4 
REMARK    1  A    between atoms: N1_4  and  C3_5 
REMARK    2  A    between atoms: C6_8  and  C7_9 
REMARK       I    between atoms: C7_9  and  N2_11 
REMARK    3  A    between atoms: N2_11  and  C8_12 
REMARK    4  A    between atoms: C10_14  and  C11_15 
REMARK    5  A    between atoms: C19_23  and  O3_24 
ROOT
ATOM      1  C7  NON d   1     -41.576  19.402  -4.929  0.00  0.00     0.256 C 
ATOM      2  O2  NON d   1     -41.032  19.329  -6.032  0.00  0.00    -0.267 OA
ATOM      3  N2  NON d   1     -41.071  20.160  -3.886  0.00  0.00    -0.320 N 
ATOM      4  H7  NON d   1     -41.451  20.010  -2.962  0.00  0.00     0.169 HD
ENDROOT
BRANCH   3   5
ATOM      5  C8  NON d   1     -39.973  21.085  -3.974  0.00  0.00     0.069 A 
ATOM      6  C9  NON d   1     -40.169  22.378  -3.427  0.00  0.00     0.044 A 
ATOM      7  C10 NON d   1     -39.168  23.393  -3.431  0.00  0.00    -0.024 A 
ATOM      8  C17 NON d   1     -37.953  23.051  -4.050  0.00  0.00     0.015 A 
ATOM      9  C18 NON d   1     -37.747  21.804  -4.633  0.00  0.00     0.040 A 
ATOM     10  C19 NON d   1     -38.740  20.833  -4.596  0.00  0.00     0.092 A 
BRANCH   7  11
ATOM     11  C11 NON d   1     -39.361  24.756  -2.820  0.00  0.00    -0.026 A 
ATOM     12  C12 NON d   1     -40.561  25.480  -2.940  0.00  0.00     0.012 A 
ATOM     13  C13 NON d   1     -40.732  26.753  -2.370  0.00  0.00     0.001 A 
ATOM     14  C14 NON d   1     -39.700  27.348  -1.656  0.00  0.00     0.000 A 
ATOM     15  C15 NON d   1     -38.502  26.669  -1.509  0.00  0.00     0.001 A 
ATOM     16  C16 NON d   1     -38.340  25.401  -2.082  0.00  0.00     0.012 A 
ENDBRANCH   7  11
BRANCH  10  17
ATOM     17  O3  NON d   1     -38.399  19.693  -5.262  0.00  0.00    -0.358 OA
ATOM     18  H16 NON d   1     -38.894  19.691  -6.107  0.00  0.00     0.217 HD
ENDBRANCH  10  17
ENDBRANCH   3   5
BRANCH   1  19
ATOM     19  C6  NON d   1     -42.838  18.614  -4.754  0.00  0.00     0.032 A 
ATOM     20  C5  NON d   1     -44.050  18.809  -5.422  0.00  0.00     0.019 A 
ATOM     21  C4  NON d   1     -45.194  18.040  -5.073  0.00  0.00     0.030 A 
ATOM     22  C3  NON d   1     -45.152  17.069  -4.056  0.00  0.00     0.034 A 
ATOM     23  C21 NON d   1     -43.917  16.860  -3.437  0.00  0.00     0.030 A 
ATOM     24  C20 NON d   1     -42.790  17.617  -3.771  0.00  0.00     0.019 A 
BRANCH  22  25
ATOM     25  N1  NON d   1     -46.344  16.361  -3.686  0.00  0.00    -0.328 N 
ATOM     26  C2  NON d   1     -47.224  15.786  -4.582  0.00  0.00     0.218 C 
ATOM     27  C1  NON d   1     -48.472  15.004  -4.130  0.00  0.00     0.117 C 
ATOM     28  O1  NON d   1     -47.060  15.792  -5.808  0.00  0.00    -0.274 OA
ATOM     29  H4  NON d   1     -46.495  16.202  -2.700  0.00  0.00     0.169 HD
ENDBRANCH  22  25
ENDBRANCH   1  19
TORSDOF 5
ENDMDL
