MODEL 1
REMARK VINA RESULT:   -36.199      0.000      0.000
REMARK INTER + INTRA:         -40.712
REMARK INTER:                 -39.481
REMARK INTRA:                  -1.231
REMARK CONF_INDEPENDENT:        3.281
REMARK UNBOUND:                -1.231
REMARK  11 active torsions:
REMARK  status: ('A' for Active; 'I' for Inactive)
REMARK    1  A    between atoms: N1_1  and  C1_2 
REMARK    2  A    between atoms: C6_7  and  N2_8 
REMARK       I    between atoms: N2_8  and  C7_9 
REMARK    3  A    between atoms: C7_9  and  C8_11 
REMARK    4  A    between atoms: C11_14  and  C12_15 
REMARK    5  A    between atoms: C12_15  and  N3_16 
REMARK    6  A    between atoms: N3_16  and  C13_17 
REMARK    7  A    between atoms: N3_16  and  C15_20 
REMARK    8  A    between atoms: C13_17  and  C14_18 
REMARK    9  A    between atoms: C14_18  and  O2_19 
REMARK   10  A    between atoms: C15_20  and  C16_21 
REMARK   11  A    between atoms: C19_24  and  C20_25 
ROOT
ATOM      1  C12 NON d   1     -40.168  19.969  -4.615  0.00  0.00     0.273 C 
ENDROOT
BRANCH   1   2
ATOM      2  C11 NON d   1     -41.438  19.185  -4.809  0.00  0.00    -0.033 A 
ATOM      3  C10 NON d   1     -41.459  17.795  -4.641  0.00  0.00     0.010 A 
ATOM      4  C9  NON d   1     -42.668  17.090  -4.707  0.00  0.00     0.017 A 
ATOM      5  C8  NON d   1     -43.883  17.746  -4.961  0.00  0.00     0.032 A 
ATOM      6  C29 NON d   1     -43.861  19.132  -5.138  0.00  0.00     0.017 A 
ATOM      7  C28 NON d   1     -42.655  19.841  -5.049  0.00  0.00     0.010 A 
BRANCH   5   8
ATOM      8  C7  NON d   1     -45.141  16.921  -4.954  0.00  0.00     0.256 C 
ATOM      9  N2  NON d   1     -46.105  17.261  -4.028  0.00  0.00    -0.321 N 
ATOM     10  H7  NON d   1     -45.994  18.070  -3.432  0.00  0.00     0.169 HD
ATOM     11  O1  NON d   1     -45.224  16.017  -5.777  0.00  0.00    -0.267 OA
BRANCH   9  12
ATOM     12  C6  NON d   1     -47.316  16.579  -3.752  0.00  0.00     0.056 A 
ATOM     13  C5  NON d   1     -47.850  16.410  -2.476  0.00  0.00     0.031 A 
ATOM     14  C4  NON d   1     -49.069  15.753  -2.301  0.00  0.00     0.002 A 
ATOM     15  C3  NON d   1     -49.769  15.263  -3.406  0.00  0.00     0.002 A 
ATOM     16  C2  NON d   1     -49.243  15.417  -4.691  0.00  0.00     0.025 A 
ATOM     17  C1  NON d   1     -48.026  16.087  -4.872  0.00  0.00     0.033 A 
BRANCH  17  18
ATOM     18  N1  NON d   1     -47.440  16.160  -6.167  0.00  0.00    -0.301 NA
ATOM     19  H1  NON d   1     -48.147  16.343  -6.876  0.00  0.00     0.124 HD
ATOM     20  H2  NON d   1     -46.985  15.271  -6.372  0.00  0.00     0.124 HD
ENDBRANCH  17  18
ENDBRANCH   9  12
ENDBRANCH   5   8
ENDBRANCH   1   2
BRANCH   1  21
ATOM     21  N3  NON d   1     -39.328  19.688  -3.381  0.00  0.00    -0.061 N 
ATOM     22  H12 NON d   1     -38.662  20.462  -3.332  0.00  0.00     0.280 HD
BRANCH  21  23
ATOM     23  C13 NON d   1     -38.539  18.401  -3.588  0.00  0.00     0.261 C 
BRANCH  23  24
ATOM     24  C14 NON d   1     -37.577  18.126  -2.433  0.00  0.00     0.192 C 
BRANCH  24  25
ATOM     25  O2  NON d   1     -38.084  17.024  -1.695  0.00  0.00    -0.399 OA
ATOM     26  H17 NON d   1     -38.767  17.335  -1.071  0.00  0.00     0.209 HD
ENDBRANCH  24  25
ENDBRANCH  23  24
ENDBRANCH  21  23
BRANCH  21  27
ATOM     27  C15 NON d   1     -40.080  19.640  -2.062  0.00  0.00     0.273 C 
BRANCH  27  28
ATOM     28  C16 NON d   1     -40.312  20.949  -1.352  0.00  0.00    -0.033 A 
ATOM     29  C17 NON d   1     -40.191  21.002   0.043  0.00  0.00     0.010 A 
ATOM     30  C18 NON d   1     -40.363  22.208   0.745  0.00  0.00     0.013 A 
ATOM     31  C19 NON d   1     -40.645  23.422   0.091  0.00  0.00    -0.026 A 
ATOM     32  C26 NON d   1     -40.719  23.349  -1.311  0.00  0.00     0.013 A 
ATOM     33  C27 NON d   1     -40.551  22.150  -2.021  0.00  0.00     0.010 A 
BRANCH  31  34
ATOM     34  C20 NON d   1     -40.844  24.712   0.828  0.00  0.00    -0.026 A 
ATOM     35  C21 NON d   1     -40.991  24.770   2.229  0.00  0.00     0.012 A 
ATOM     36  C22 NON d   1     -41.176  25.982   2.912  0.00  0.00     0.001 A 
ATOM     37  C23 NON d   1     -41.211  27.181   2.215  0.00  0.00     0.000 A 
ATOM     38  C24 NON d   1     -41.065  27.167   0.836  0.00  0.00     0.001 A 
ATOM     39  C25 NON d   1     -40.894  25.953   0.158  0.00  0.00     0.012 A 
ENDBRANCH  31  34
ENDBRANCH  27  28
ENDBRANCH  21  27
ENDBRANCH   1  21
TORSDOF 11
ENDMDL
MODEL 2
REMARK VINA RESULT:   -35.728      1.977      2.744
REMARK INTER + INTRA:         -41.005
REMARK INTER:                 -39.009
REMARK INTRA:                  -1.995
REMARK CONF_INDEPENDENT:        3.281
REMARK UNBOUND:                -1.995
REMARK  11 active torsions:
REMARK  status: ('A' for Active; 'I' for Inactive)
REMARK    1  A    between atoms: N1_1  and  C1_2 
REMARK    2  A    between atoms: C6_7  and  N2_8 
REMARK       I    between atoms: N2_8  and  C7_9 
REMARK    3  A    between atoms: C7_9  and  C8_11 
REMARK    4  A    between atoms: C11_14  and  C12_15 
REMARK    5  A    between atoms: C12_15  and  N3_16 
REMARK    6  A    between atoms: N3_16  and  C13_17 
REMARK    7  A    between atoms: N3_16  and  C15_20 
REMARK    8  A    between atoms: C13_17  and  C14_18 
REMARK    9  A    between atoms: C14_18  and  O2_19 
REMARK   10  A    between atoms: C15_20  and  C16_21 
REMARK   11  A    between atoms: C19_24  and  C20_25 
ROOT
ATOM      1  C12 NON d   1     -40.140  19.901  -5.092  0.00  0.00     0.273 C 
ENDROOT
BRANCH   1   2
ATOM      2  C11 NON d   1     -41.442  19.163  -4.934  0.00  0.00    -0.033 A 
ATOM      3  C10 NON d   1     -42.628  19.668  -5.481  0.00  0.00     0.010 A 
ATOM      4  C9  NON d   1     -43.809  18.918  -5.431  0.00  0.00     0.017 A 
ATOM      5  C8  NON d   1     -43.847  17.655  -4.818  0.00  0.00     0.032 A 
ATOM      6  C29 NON d   1     -42.667  17.154  -4.262  0.00  0.00     0.017 A 
ATOM      7  C28 NON d   1     -41.478  17.894  -4.334  0.00  0.00     0.010 A 
BRANCH   5   8
ATOM      8  C7  NON d   1     -45.142  16.891  -4.862  0.00  0.00     0.256 C 
ATOM      9  N2  NON d   1     -46.088  17.210  -3.911  0.00  0.00    -0.321 N 
ATOM     10  H7  NON d   1     -45.939  17.970  -3.260  0.00  0.00     0.169 HD
ATOM     11  O1  NON d   1     -45.269  16.051  -5.746  0.00  0.00    -0.267 OA
BRANCH   9  12
ATOM     12  C6  NON d   1     -47.329  16.568  -3.677  0.00  0.00     0.056 A 
ATOM     13  C5  NON d   1     -47.886  16.368  -2.415  0.00  0.00     0.031 A 
ATOM     14  C4  NON d   1     -49.133  15.755  -2.282  0.00  0.00     0.002 A 
ATOM     15  C3  NON d   1     -49.838  15.340  -3.414  0.00  0.00     0.002 A 
ATOM     16  C2  NON d   1     -49.290  15.527  -4.685  0.00  0.00     0.025 A 
ATOM     17  C1  NON d   1     -48.045  16.153  -4.824  0.00  0.00     0.033 A 
BRANCH  17  18
ATOM     18  N1  NON d   1     -47.440  16.256  -6.108  0.00  0.00    -0.301 NA
ATOM     19  H1  NON d   1     -47.008  17.170  -6.234  0.00  0.00     0.124 HD
ATOM     20  H2  NON d   1     -48.157  16.126  -6.820  0.00  0.00     0.124 HD
ENDBRANCH  17  18
ENDBRANCH   9  12
ENDBRANCH   5   8
ENDBRANCH   1   2
BRANCH   1  21
ATOM     21  N3  NON d   1     -40.019  20.918  -6.214  0.00  0.00    -0.061 N 
ATOM     22  H12 NON d   1     -40.963  21.002  -6.599  0.00  0.00     0.280 HD
BRANCH  21  23
ATOM     23  C13 NON d   1     -39.114  20.361  -7.306  0.00  0.00     0.261 C 
BRANCH  23  24
ATOM     24  C14 NON d   1     -39.846  20.216  -8.640  0.00  0.00     0.192 C 
BRANCH  24  25
ATOM     25  O2  NON d   1     -41.241  20.255  -8.381  0.00  0.00    -0.399 OA
ATOM     26  H17 NON d   1     -41.701  20.680  -9.129  0.00  0.00     0.209 HD
ENDBRANCH  24  25
ENDBRANCH  23  24
ENDBRANCH  21  23
BRANCH  21  27
ATOM     27  C15 NON d   1     -39.561  22.308  -5.806  0.00  0.00     0.273 C 
BRANCH  27  28
ATOM     28  C16 NON d   1     -39.867  22.750  -4.398  0.00  0.00    -0.033 A 
ATOM     29  C17 NON d   1     -38.885  22.610  -3.408  0.00  0.00     0.010 A 
ATOM     30  C18 NON d   1     -39.113  23.041  -2.089  0.00  0.00     0.013 A 
ATOM     31  C19 NON d   1     -40.320  23.648  -1.698  0.00  0.00    -0.026 A 
ATOM     32  C26 NON d   1     -41.271  23.815  -2.719  0.00  0.00     0.013 A 
ATOM     33  C27 NON d   1     -41.055  23.387  -4.038  0.00  0.00     0.010 A 
BRANCH  31  34
ATOM     34  C20 NON d   1     -40.582  24.100  -0.292  0.00  0.00    -0.026 A 
ATOM     35  C21 NON d   1     -40.700  23.198   0.784  0.00  0.00     0.012 A 
ATOM     36  C22 NON d   1     -40.944  23.628   2.098  0.00  0.00     0.001 A 
ATOM     37  C23 NON d   1     -41.067  24.981   2.380  0.00  0.00     0.000 A 
ATOM     38  C24 NON d   1     -40.951  25.901   1.350  0.00  0.00     0.001 A 
ATOM     39  C25 NON d   1     -40.722  25.465   0.038  0.00  0.00     0.012 A 
ENDBRANCH  31  34
ENDBRANCH  27  28
ENDBRANCH  21  27
ENDBRANCH   1  21
TORSDOF 11
ENDMDL
MODEL 3
REMARK VINA RESULT:   -35.508      1.587      2.133
REMARK INTER + INTRA:         -40.835
REMARK INTER:                 -38.789
REMARK INTRA:                  -2.046
REMARK CONF_INDEPENDENT:        3.281
REMARK UNBOUND:                -2.046
REMARK  11 active torsions:
REMARK  status: ('A' for Active; 'I' for Inactive)
REMARK    1  A    between atoms: N1_1  and  C1_2 
REMARK    2  A    between atoms: C6_7  and  N2_8 
REMARK       I    between atoms: N2_8  and  C7_9 
REMARK    3  A    between atoms: C7_9  and  C8_11 
REMARK    4  A    between atoms: C11_14  and  C12_15 
REMARK    5  A    between atoms: C12_15  and  N3_16 
REMARK    6  A    between atoms: N3_16  and  C13_17 
REMARK    7  A    between atoms: N3_16  and  C15_20 
REMARK    8  A    between atoms: C13_17  and  C14_18 
REMARK    9  A    between atoms: C14_18  and  O2_19 
REMARK   10  A    between atoms: C15_20  and  C16_21 
REMARK   11  A    between atoms: C19_24  and  C20_25 
ROOT
ATOM      1  C12 NON d   1     -40.135  19.778  -4.285  0.00  0.00     0.273 C 
ENDROOT
BRANCH   1   2
ATOM      2  C11 NON d   1     -41.411  19.021  -4.535  0.00  0.00    -0.033 A 
ATOM      3  C10 NON d   1     -41.528  17.671  -4.183  0.00  0.00     0.010 A 
ATOM      4  C9  NON d   1     -42.755  17.007  -4.310  0.00  0.00     0.017 A 
ATOM      5  C8  NON d   1     -43.892  17.663  -4.810  0.00  0.00     0.032 A 
ATOM      6  C29 NON d   1     -43.773  19.008  -5.171  0.00  0.00     0.017 A 
ATOM      7  C28 NON d   1     -42.552  19.679  -5.021  0.00  0.00     0.010 A 
BRANCH   5   8
ATOM      8  C7  NON d   1     -45.183  16.894  -4.856  0.00  0.00     0.256 C 
ATOM      9  N2  NON d   1     -46.133  17.211  -3.908  0.00  0.00    -0.321 N 
ATOM     10  H7  NON d   1     -45.990  17.973  -3.260  0.00  0.00     0.169 HD
ATOM     11  O1  NON d   1     -45.303  16.050  -5.737  0.00  0.00    -0.267 OA
BRANCH   9  12
ATOM     12  C6  NON d   1     -47.372  16.564  -3.677  0.00  0.00     0.056 A 
ATOM     13  C5  NON d   1     -47.948  16.394  -2.418  0.00  0.00     0.031 A 
ATOM     14  C4  NON d   1     -49.191  15.774  -2.288  0.00  0.00     0.002 A 
ATOM     15  C3  NON d   1     -49.873  15.320  -3.419  0.00  0.00     0.002 A 
ATOM     16  C2  NON d   1     -49.306  15.475  -4.686  0.00  0.00     0.025 A 
ATOM     17  C1  NON d   1     -48.065  16.109  -4.823  0.00  0.00     0.033 A 
BRANCH  17  18
ATOM     18  N1  NON d   1     -47.440  16.181  -6.099  0.00  0.00    -0.301 NA
ATOM     19  H1  NON d   1     -46.726  15.461  -6.196  0.00  0.00     0.124 HD
ATOM     20  H2  NON d   1     -47.004  17.097  -6.200  0.00  0.00     0.124 HD
ENDBRANCH  17  18
ENDBRANCH   9  12
ENDBRANCH   5   8
ENDBRANCH   1   2
BRANCH   1  21
ATOM     21  N3  NON d   1     -40.167  20.944  -3.311  0.00  0.00    -0.061 N 
ATOM     22  H12 NON d   1     -41.150  21.220  -3.261  0.00  0.00     0.280 HD
BRANCH  21  23
ATOM     23  C13 NON d   1     -39.379  22.111  -3.894  0.00  0.00     0.261 C 
BRANCH  23  24
ATOM     24  C14 NON d   1     -40.260  23.034  -4.735  0.00  0.00     0.192 C 
BRANCH  24  25
ATOM     25  O2  NON d   1     -41.590  22.930  -4.253  0.00  0.00    -0.399 OA
ATOM     26  H17 NON d   1     -41.920  23.815  -4.008  0.00  0.00     0.209 HD
ENDBRANCH  24  25
ENDBRANCH  23  24
ENDBRANCH  21  23
BRANCH  21  27
ATOM     27  C15 NON d   1     -39.698  20.643  -1.898  0.00  0.00     0.273 C 
BRANCH  27  28
ATOM     28  C16 NON d   1     -40.013  21.663  -0.834  0.00  0.00    -0.033 A 
ATOM     29  C17 NON d   1     -40.420  22.947  -1.218  0.00  0.00     0.010 A 
ATOM     30  C18 NON d   1     -40.760  23.921  -0.262  0.00  0.00     0.013 A 
ATOM     31  C19 NON d   1     -40.728  23.656   1.120  0.00  0.00    -0.026 A 
ATOM     32  C26 NON d   1     -40.357  22.348   1.476  0.00  0.00     0.013 A 
ATOM     33  C27 NON d   1     -40.015  21.370   0.529  0.00  0.00     0.010 A 
BRANCH  31  34
ATOM     34  C20 NON d   1     -41.074  24.689   2.151  0.00  0.00    -0.026 A 
ATOM     35  C21 NON d   1     -41.335  24.358   3.496  0.00  0.00     0.012 A 
ATOM     36  C22 NON d   1     -41.657  25.331   4.456  0.00  0.00     0.001 A 
ATOM     37  C23 NON d   1     -41.718  26.671   4.103  0.00  0.00     0.000 A 
ATOM     38  C24 NON d   1     -41.462  27.038   2.790  0.00  0.00     0.001 A 
ATOM     39  C25 NON d   1     -41.155  26.061   1.833  0.00  0.00     0.012 A 
ENDBRANCH  31  34
ENDBRANCH  27  28
ENDBRANCH  21  27
ENDBRANCH   1  21
TORSDOF 11
ENDMDL
MODEL 4
REMARK VINA RESULT:   -34.720      4.503      7.184
REMARK INTER + INTRA:         -39.607
REMARK INTER:                 -38.001
REMARK INTRA:                  -1.605
REMARK CONF_INDEPENDENT:        3.281
REMARK UNBOUND:                -1.605
REMARK  11 active torsions:
REMARK  status: ('A' for Active; 'I' for Inactive)
REMARK    1  A    between atoms: N1_1  and  C1_2 
REMARK    2  A    between atoms: C6_7  and  N2_8 
REMARK       I    between atoms: N2_8  and  C7_9 
REMARK    3  A    between atoms: C7_9  and  C8_11 
REMARK    4  A    between atoms: C11_14  and  C12_15 
REMARK    5  A    between atoms: C12_15  and  N3_16 
REMARK    6  A    between atoms: N3_16  and  C13_17 
REMARK    7  A    between atoms: N3_16  and  C15_20 
REMARK    8  A    between atoms: C13_17  and  C14_18 
REMARK    9  A    between atoms: C14_18  and  O2_19 
REMARK   10  A    between atoms: C15_20  and  C16_21 
REMARK   11  A    between atoms: C19_24  and  C20_25 
ROOT
ATOM      1  C12 NON d   1     -40.133  19.746  -4.166  0.00  0.00     0.273 C 
ENDROOT
BRANCH   1   2
ATOM      2  C11 NON d   1     -41.400  18.978  -4.432  0.00  0.00    -0.033 A 
ATOM      3  C10 NON d   1     -41.565  17.673  -3.953  0.00  0.00     0.010 A 
ATOM      4  C9  NON d   1     -42.790  17.011  -4.103  0.00  0.00     0.017 A 
ATOM      5  C8  NON d   1     -43.876  17.623  -4.750  0.00  0.00     0.032 A 
ATOM      6  C29 NON d   1     -43.709  18.922  -5.236  0.00  0.00     0.017 A 
ATOM      7  C28 NON d   1     -42.491  19.594  -5.065  0.00  0.00     0.010 A 
BRANCH   5   8
ATOM      8  C7  NON d   1     -45.173  16.864  -4.813  0.00  0.00     0.256 C 
ATOM      9  N2  NON d   1     -46.127  17.178  -3.867  0.00  0.00    -0.321 N 
ATOM     10  H7  NON d   1     -45.982  17.931  -3.209  0.00  0.00     0.169 HD
ATOM     11  O1  NON d   1     -45.294  16.032  -5.704  0.00  0.00    -0.267 OA
BRANCH   9  12
ATOM     12  C6  NON d   1     -47.372  16.538  -3.651  0.00  0.00     0.056 A 
ATOM     13  C5  NON d   1     -47.952  16.348  -2.397  0.00  0.00     0.031 A 
ATOM     14  C4  NON d   1     -49.201  15.737  -2.282  0.00  0.00     0.002 A 
ATOM     15  C3  NON d   1     -49.886  15.314  -3.423  0.00  0.00     0.002 A 
ATOM     16  C2  NON d   1     -49.316  15.490  -4.686  0.00  0.00     0.025 A 
ATOM     17  C1  NON d   1     -48.068  16.114  -4.808  0.00  0.00     0.033 A 
BRANCH  17  18
ATOM     18  N1  NON d   1     -47.440  16.207  -6.081  0.00  0.00    -0.301 NA
ATOM     19  H1  NON d   1     -46.962  17.100  -6.187  0.00  0.00     0.124 HD
ATOM     20  H2  NON d   1     -48.153  16.124  -6.805  0.00  0.00     0.124 HD
ENDBRANCH  17  18
ENDBRANCH   9  12
ENDBRANCH   5   8
ENDBRANCH   1   2
BRANCH   1  21
ATOM     21  N3  NON d   1     -39.402  20.362  -5.346  0.00  0.00    -0.061 N 
ATOM     22  H12 NON d   1     -39.703  19.819  -6.157  0.00  0.00     0.280 HD
BRANCH  21  23
ATOM     23  C13 NON d   1     -37.902  20.157  -5.174  0.00  0.00     0.261 C 
BRANCH  23  24
ATOM     24  C14 NON d   1     -37.260  19.540  -6.417  0.00  0.00     0.192 C 
BRANCH  24  25
ATOM     25  O2  NON d   1     -38.276  18.872  -7.148  0.00  0.00    -0.399 OA
ATOM     26  H17 NON d   1     -38.522  19.405  -7.928  0.00  0.00     0.209 HD
ENDBRANCH  24  25
ENDBRANCH  23  24
ENDBRANCH  21  23
BRANCH  21  27
ATOM     27  C15 NON d   1     -39.706  21.824  -5.628  0.00  0.00     0.273 C 
BRANCH  27  28
ATOM     28  C16 NON d   1     -39.736  22.256  -7.071  0.00  0.00    -0.033 A 
ATOM     29  C17 NON d   1     -39.734  21.281  -8.078  0.00  0.00     0.010 A 
ATOM     30  C18 NON d   1     -39.798  21.636  -9.437  0.00  0.00     0.013 A 
ATOM     31  C19 NON d   1     -39.885  22.975  -9.858  0.00  0.00    -0.026 A 
ATOM     32  C26 NON d   1     -39.928  23.931  -8.827  0.00  0.00     0.013 A 
ATOM     33  C27 NON d   1     -39.864  23.587  -7.468  0.00  0.00     0.010 A 
BRANCH  31  34
ATOM     34  C20 NON d   1     -39.940  23.369 -11.304  0.00  0.00    -0.026 A 
ATOM     35  C21 NON d   1     -40.649  24.500 -11.755  0.00  0.00     0.012 A 
ATOM     36  C22 NON d   1     -40.695  24.863 -13.111  0.00  0.00     0.001 A 
ATOM     37  C23 NON d   1     -40.022  24.109 -14.061  0.00  0.00     0.000 A 
ATOM     38  C24 NON d   1     -39.308  22.990 -13.657  0.00  0.00     0.001 A 
ATOM     39  C25 NON d   1     -39.277  22.626 -12.304  0.00  0.00     0.012 A 
ENDBRANCH  31  34
ENDBRANCH  27  28
ENDBRANCH  21  27
ENDBRANCH   1  21
TORSDOF 11
ENDMDL
MODEL 5
REMARK VINA RESULT:   -34.664      3.967      6.584
REMARK INTER + INTRA:         -40.830
REMARK INTER:                 -37.945
REMARK INTRA:                  -2.885
REMARK CONF_INDEPENDENT:        3.281
REMARK UNBOUND:                -2.885
REMARK  11 active torsions:
REMARK  status: ('A' for Active; 'I' for Inactive)
REMARK    1  A    between atoms: N1_1  and  C1_2 
REMARK    2  A    between atoms: C6_7  and  N2_8 
REMARK       I    between atoms: N2_8  and  C7_9 
REMARK    3  A    between atoms: C7_9  and  C8_11 
REMARK    4  A    between atoms: C11_14  and  C12_15 
REMARK    5  A    between atoms: C12_15  and  N3_16 
REMARK    6  A    between atoms: N3_16  and  C13_17 
REMARK    7  A    between atoms: N3_16  and  C15_20 
REMARK    8  A    between atoms: C13_17  and  C14_18 
REMARK    9  A    between atoms: C14_18  and  O2_19 
REMARK   10  A    between atoms: C15_20  and  C16_21 
REMARK   11  A    between atoms: C19_24  and  C20_25 
ROOT
ATOM      1  C12 NON d   1     -40.099  19.986  -4.401  0.00  0.00     0.273 C 
ENDROOT
BRANCH   1   2
ATOM      2  C11 NON d   1     -41.360  19.198  -4.632  0.00  0.00    -0.033 A 
ATOM      3  C10 NON d   1     -41.450  17.854  -4.248  0.00  0.00     0.010 A 
ATOM      4  C9  NON d   1     -42.663  17.163  -4.358  0.00  0.00     0.017 A 
ATOM      5  C8  NON d   1     -43.813  17.785  -4.872  0.00  0.00     0.032 A 
ATOM      6  C29 NON d   1     -43.722  19.123  -5.265  0.00  0.00     0.017 A 
ATOM      7  C28 NON d   1     -42.514  19.822  -5.132  0.00  0.00     0.010 A 
BRANCH   5   8
ATOM      8  C7  NON d   1     -45.089  16.988  -4.899  0.00  0.00     0.256 C 
ATOM      9  N2  NON d   1     -46.041  17.301  -3.951  0.00  0.00    -0.321 N 
ATOM     10  H7  NON d   1     -45.909  18.077  -3.315  0.00  0.00     0.169 HD
ATOM     11  O1  NON d   1     -45.197  16.129  -5.765  0.00  0.00    -0.267 OA
BRANCH   9  12
ATOM     12  C6  NON d   1     -47.265  16.633  -3.702  0.00  0.00     0.056 A 
ATOM     13  C5  NON d   1     -47.785  16.391  -2.431  0.00  0.00     0.031 A 
ATOM     14  C4  NON d   1     -49.018  15.755  -2.281  0.00  0.00     0.002 A 
ATOM     15  C3  NON d   1     -49.746  15.358  -3.406  0.00  0.00     0.002 A 
ATOM     16  C2  NON d   1     -49.235  15.586  -4.685  0.00  0.00     0.025 A 
ATOM     17  C1  NON d   1     -48.004  16.236  -4.840  0.00  0.00     0.033 A 
BRANCH  17  18
ATOM     18  N1  NON d   1     -47.435  16.382  -6.137  0.00  0.00    -0.301 NA
ATOM     19  H1  NON d   1     -46.969  15.524  -6.429  0.00  0.00     0.124 HD
ATOM     20  H2  NON d   1     -46.752  17.139  -6.112  0.00  0.00     0.124 HD
ENDBRANCH  17  18
ENDBRANCH   9  12
ENDBRANCH   5   8
ENDBRANCH   1   2
BRANCH   1  21
ATOM     21  N3  NON d   1     -38.783  19.233  -4.314  0.00  0.00    -0.061 N 
ATOM     22  H12 NON d   1     -39.004  18.371  -3.811  0.00  0.00     0.280 HD
BRANCH  21  23
ATOM     23  C13 NON d   1     -37.799  20.032  -3.468  0.00  0.00     0.261 C 
BRANCH  23  24
ATOM     24  C14 NON d   1     -37.629  19.438  -2.070  0.00  0.00     0.192 C 
BRANCH  24  25
ATOM     25  O2  NON d   1     -38.058  18.086  -2.115  0.00  0.00    -0.399 OA
ATOM     26  H17 NON d   1     -38.837  17.971  -1.538  0.00  0.00     0.209 HD
ENDBRANCH  24  25
ENDBRANCH  23  24
ENDBRANCH  21  23
BRANCH  21  27
ATOM     27  C15 NON d   1     -38.149  18.847  -5.640  0.00  0.00     0.273 C 
BRANCH  27  28
ATOM     28  C16 NON d   1     -38.398  19.757  -6.815  0.00  0.00    -0.033 A 
ATOM     29  C17 NON d   1     -39.370  19.402  -7.760  0.00  0.00     0.010 A 
ATOM     30  C18 NON d   1     -39.663  20.237  -8.853  0.00  0.00     0.013 A 
ATOM     31  C19 NON d   1     -39.016  21.471  -9.047  0.00  0.00    -0.026 A 
ATOM     32  C26 NON d   1     -38.077  21.822  -8.062  0.00  0.00     0.013 A 
ATOM     33  C27 NON d   1     -37.776  20.996  -6.968  0.00  0.00     0.010 A 
BRANCH  31  34
ATOM     34  C20 NON d   1     -39.308  22.364 -10.216  0.00  0.00    -0.026 A 
ATOM     35  C21 NON d   1     -38.862  22.074 -11.521  0.00  0.00     0.012 A 
ATOM     36  C22 NON d   1     -39.140  22.915 -12.611  0.00  0.00     0.001 A 
ATOM     37  C23 NON d   1     -39.885  24.071 -12.431  0.00  0.00     0.000 A 
ATOM     38  C24 NON d   1     -40.348  24.389 -11.163  0.00  0.00     0.001 A 
ATOM     39  C25 NON d   1     -40.055  23.553 -10.077  0.00  0.00     0.012 A 
ENDBRANCH  31  34
ENDBRANCH  27  28
ENDBRANCH  21  27
ENDBRANCH   1  21
TORSDOF 11
ENDMDL
MODEL 6
REMARK VINA RESULT:   -34.217      4.407      7.413
REMARK INTER + INTRA:         -38.591
REMARK INTER:                 -37.498
REMARK INTRA:                  -1.093
REMARK CONF_INDEPENDENT:        3.281
REMARK UNBOUND:                -1.093
REMARK  11 active torsions:
REMARK  status: ('A' for Active; 'I' for Inactive)
REMARK    1  A    between atoms: N1_1  and  C1_2 
REMARK    2  A    between atoms: C6_7  and  N2_8 
REMARK       I    between atoms: N2_8  and  C7_9 
REMARK    3  A    between atoms: C7_9  and  C8_11 
REMARK    4  A    between atoms: C11_14  and  C12_15 
REMARK    5  A    between atoms: C12_15  and  N3_16 
REMARK    6  A    between atoms: N3_16  and  C13_17 
REMARK    7  A    between atoms: N3_16  and  C15_20 
REMARK    8  A    between atoms: C13_17  and  C14_18 
REMARK    9  A    between atoms: C14_18  and  O2_19 
REMARK   10  A    between atoms: C15_20  and  C16_21 
REMARK   11  A    between atoms: C19_24  and  C20_25 
ROOT
ATOM      1  C12 NON d   1     -39.832  19.013  -5.600  0.00  0.00     0.273 C 
ENDROOT
BRANCH   1   2
ATOM      2  C11 NON d   1     -41.271  18.674  -5.319  0.00  0.00    -0.033 A 
ATOM      3  C10 NON d   1     -42.286  19.619  -5.515  0.00  0.00     0.010 A 
ATOM      4  C9  NON d   1     -43.631  19.259  -5.365  0.00  0.00     0.017 A 
ATOM      5  C8  NON d   1     -44.001  17.955  -4.997  0.00  0.00     0.032 A 
ATOM      6  C29 NON d   1     -42.989  17.013  -4.793  0.00  0.00     0.017 A 
ATOM      7  C28 NON d   1     -41.644  17.367  -4.966  0.00  0.00     0.010 A 
BRANCH   5   8
ATOM      8  C7  NON d   1     -45.470  17.639  -4.918  0.00  0.00     0.256 C 
ATOM      9  N2  NON d   1     -45.940  17.152  -3.716  0.00  0.00    -0.321 N 
ATOM     10  H7  NON d   1     -45.334  17.080  -2.910  0.00  0.00     0.169 HD
ATOM     11  O1  NON d   1     -46.144  17.845  -5.921  0.00  0.00    -0.267 OA
BRANCH   9  12
ATOM     12  C6  NON d   1     -47.244  16.683  -3.425  0.00  0.00     0.056 A 
ATOM     13  C5  NON d   1     -47.813  16.682  -2.152  0.00  0.00     0.031 A 
ATOM     14  C4  NON d   1     -49.121  16.232  -1.963  0.00  0.00     0.002 A 
ATOM     15  C3  NON d   1     -49.874  15.782  -3.050  0.00  0.00     0.002 A 
ATOM     16  C2  NON d   1     -49.316  15.770  -4.330  0.00  0.00     0.025 A 
ATOM     17  C1  NON d   1     -48.008  16.233  -4.526  0.00  0.00     0.033 A 
BRANCH  17  18
ATOM     18  N1  NON d   1     -47.403  16.131  -5.810  0.00  0.00    -0.301 NA
ATOM     19  H1  NON d   1     -47.684  16.907  -6.407  0.00  0.00     0.124 HD
ATOM     20  H2  NON d   1     -47.695  15.255  -6.242  0.00  0.00     0.124 HD
ENDBRANCH  17  18
ENDBRANCH   9  12
ENDBRANCH   5   8
ENDBRANCH   1   2
BRANCH   1  21
ATOM     21  N3  NON d   1     -39.310  20.368  -5.155  0.00  0.00    -0.061 N 
ATOM     22  H12 NON d   1     -38.330  20.382  -5.444  0.00  0.00     0.280 HD
BRANCH  21  23
ATOM     23  C13 NON d   1     -39.352  20.450  -3.634  0.00  0.00     0.261 C 
BRANCH  23  24
ATOM     24  C14 NON d   1     -37.992  20.817  -3.041  0.00  0.00     0.192 C 
BRANCH  24  25
ATOM     25  O2  NON d   1     -36.989  20.191  -3.826  0.00  0.00    -0.399 OA
ATOM     26  H17 NON d   1     -36.195  20.037  -3.279  0.00  0.00     0.209 HD
ENDBRANCH  24  25
ENDBRANCH  23  24
ENDBRANCH  21  23
BRANCH  21  27
ATOM     27  C15 NON d   1     -39.993  21.578  -5.768  0.00  0.00     0.273 C 
BRANCH  27  28
ATOM     28  C16 NON d   1     -39.814  21.795  -7.249  0.00  0.00    -0.033 A 
ATOM     29  C17 NON d   1     -39.359  23.039  -7.708  0.00  0.00     0.010 A 
ATOM     30  C18 NON d   1     -39.142  23.276  -9.077  0.00  0.00     0.013 A 
ATOM     31  C19 NON d   1     -39.350  22.282 -10.051  0.00  0.00    -0.026 A 
ATOM     32  C26 NON d   1     -39.765  21.032  -9.559  0.00  0.00     0.013 A 
ATOM     33  C27 NON d   1     -39.985  20.786  -8.195  0.00  0.00     0.010 A 
BRANCH  31  34
ATOM     34  C20 NON d   1     -39.136  22.525 -11.515  0.00  0.00    -0.026 A 
ATOM     35  C21 NON d   1     -38.062  21.957 -12.228  0.00  0.00     0.012 A 
ATOM     36  C22 NON d   1     -37.868  22.188 -13.600  0.00  0.00     0.001 A 
ATOM     37  C23 NON d   1     -38.753  22.989 -14.306  0.00  0.00     0.000 A 
ATOM     38  C24 NON d   1     -39.827  23.563 -13.642  0.00  0.00     0.001 A 
ATOM     39  C25 NON d   1     -40.006  23.339 -12.270  0.00  0.00     0.012 A 
ENDBRANCH  31  34
ENDBRANCH  27  28
ENDBRANCH  21  27
ENDBRANCH   1  21
TORSDOF 11
ENDMDL
