MODEL 1
REMARK VINA RESULT:   -18.491      0.000      0.000
REMARK INTER + INTRA:         -22.725
REMARK INTER:                 -20.579
REMARK INTRA:                  -2.146
REMARK CONF_INDEPENDENT:        2.088
REMARK UNBOUND:                -2.146
REMARK  7 active torsions:
REMARK  status: ('A' for Active; 'I' for Inactive)
REMARK    1  A    between atoms: C1_2  and  C2_3 
REMARK       I    between atoms: C1_2  and  N3_34 
REMARK    2  A    between atoms: C3_4  and  C4_5 
REMARK    3  A    between atoms: C7_8  and  C8_9 
REMARK    4  A    between atoms: C8_9  and  N1_10 
REMARK    5  A    between atoms: C12_14  and  C13_15 
REMARK    6  A    between atoms: C14_16  and  C15_17 
REMARK    7  A    between atoms: N3_34  and  O2_35 
ROOT
ATOM      1  N1  NON d   1     -39.191  20.796  -0.743  0.00  0.00    -0.066 N 
ATOM      2  C9  NON d   1     -37.735  20.923  -0.347  0.00  0.00     0.235 C 
ATOM      3  C10 NON d   1     -37.580  21.741   0.898  0.00  0.00     0.028 C 
ATOM      4  C11 NON d   1     -38.207  23.121   0.779  0.00  0.00     0.013 C 
ATOM      5  C12 NON d   1     -39.291  23.348  -0.267  0.00  0.00     0.048 C 
ATOM      6  C27 NON d   1     -40.073  22.010  -0.362  0.00  0.00     0.244 C 
ATOM      7  H7  NON d   1     -39.586  20.027  -0.185  0.00  0.00     0.280 HD
ENDROOT
BRANCH   1   8
ATOM      8  C8  NON d   1     -39.201  20.283  -2.179  0.00  0.00     0.276 C 
BRANCH   8   9
ATOM      9  C7  NON d   1     -40.396  19.565  -2.722  0.00  0.00     0.006 A 
ATOM     10  C6  NON d   1     -40.795  18.296  -2.286  0.00  0.00     0.013 A 
ATOM     11  C5  NON d   1     -41.843  17.627  -2.942  0.00  0.00     0.012 A 
ATOM     12  C4  NON d   1     -42.530  18.223  -4.011  0.00  0.00    -0.033 A 
ATOM     13  C29 NON d   1     -42.114  19.482  -4.451  0.00  0.00     0.054 A 
ATOM     14  C28 NON d   1     -41.050  20.114  -3.824  0.00  0.00     0.125 A 
ATOM     15  F1  NON d   1     -40.617  21.290  -4.303  0.00  0.00    -0.205 F 
BRANCH  12  16
ATOM     16  C3  NON d   1     -43.586  17.479  -4.717  0.00  0.00     0.017 C 
ATOM     17  C2  NON d   1     -44.846  17.927  -4.849  0.00  0.00     0.077 C 
BRANCH  17  18
ATOM     18  C1  NON d   1     -45.959  17.266  -5.598  0.00  0.00     0.264 C 
ATOM     19  O1  NON d   1     -46.632  17.934  -6.385  0.00  0.00    -0.266 OA
ATOM     20  N3  NON d   1     -46.155  15.938  -5.332  0.00  0.00    -0.234 N 
ATOM     21  H28 NON d   1     -45.763  15.483  -4.520  0.00  0.00     0.197 HD
BRANCH  20  22
ATOM     22  O2  NON d   1     -47.356  15.380  -5.810  0.00  0.00    -0.287 OA
ATOM     23  H29 NON d   1     -47.664  16.058  -6.441  0.00  0.00     0.244 HD
ENDBRANCH  20  22
ENDBRANCH  17  18
ENDBRANCH  12  16
ENDBRANCH   8   9
ENDBRANCH   1   8
BRANCH   5  24
ATOM     24  C13 NON d   1     -40.161  24.617   0.044  0.00  0.00    -0.012 C 
ATOM     25  C14 NON d   1     -40.784  25.607  -0.792  0.00  0.00     0.050 C 
ATOM     26  N2  NON d   1     -41.346  26.505   0.112  0.00  0.00    -0.354 N 
ATOM     27  C21 NON d   1     -41.372  26.063   1.394  0.00  0.00     0.043 A 
ATOM     28  H20 NON d   1     -41.784  27.375  -0.148  0.00  0.00     0.166 HD
ATOM     29  C22 NON d   1     -42.009  26.630   2.508  0.00  0.00     0.030 A 
ATOM     30  C26 NON d   1     -40.609  24.912   1.422  0.00  0.00    -0.001 A 
ATOM     31  C23 NON d   1     -41.839  26.010   3.741  0.00  0.00     0.002 A 
ATOM     32  C24 NON d   1     -41.063  24.867   3.840  0.00  0.00     0.001 A 
ATOM     33  C25 NON d   1     -40.465  24.313   2.697  0.00  0.00     0.014 A 
BRANCH  25  34
ATOM     34  C15 NON d   1     -40.993  25.985  -2.254  0.00  0.00    -0.009 A 
ATOM     35  C16 NON d   1     -41.596  27.142  -2.754  0.00  0.00     0.014 A 
ATOM     36  C17 NON d   1     -41.813  27.378  -4.125  0.00  0.00     0.001 A 
ATOM     37  C18 NON d   1     -41.459  26.432  -5.069  0.00  0.00     0.000 A 
ATOM     38  C19 NON d   1     -40.851  25.269  -4.637  0.00  0.00     0.001 A 
ATOM     39  C20 NON d   1     -40.601  25.069  -3.268  0.00  0.00     0.014 A 
ENDBRANCH  25  34
ENDBRANCH   5  24
TORSDOF 7
ENDMDL
MODEL 2
REMARK VINA RESULT:   -18.435      0.529      3.975
REMARK INTER + INTRA:         -22.736
REMARK INTER:                 -20.523
REMARK INTRA:                  -2.213
REMARK CONF_INDEPENDENT:        2.088
REMARK UNBOUND:                -2.213
REMARK  7 active torsions:
REMARK  status: ('A' for Active; 'I' for Inactive)
REMARK    1  A    between atoms: C1_2  and  C2_3 
REMARK       I    between atoms: C1_2  and  N3_34 
REMARK    2  A    between atoms: C3_4  and  C4_5 
REMARK    3  A    between atoms: C7_8  and  C8_9 
REMARK    4  A    between atoms: C8_9  and  N1_10 
REMARK    5  A    between atoms: C12_14  and  C13_15 
REMARK    6  A    between atoms: C14_16  and  C15_17 
REMARK    7  A    between atoms: N3_34  and  O2_35 
ROOT
ATOM      1  N1  NON d   1     -39.275  20.755  -0.701  0.00  0.00    -0.066 N 
ATOM      2  C9  NON d   1     -37.871  20.995  -0.190  0.00  0.00     0.235 C 
ATOM      3  C10 NON d   1     -37.847  22.072   0.850  0.00  0.00     0.028 C 
ATOM      4  C11 NON d   1     -38.449  23.379   0.359  0.00  0.00     0.013 C 
ATOM      5  C12 NON d   1     -39.412  23.347  -0.821  0.00  0.00     0.048 C 
ATOM      6  C27 NON d   1     -40.187  22.006  -0.698  0.00  0.00     0.244 C 
ATOM      7  H7  NON d   1     -39.732  20.123  -0.031  0.00  0.00     0.280 HD
ENDROOT
BRANCH   1   8
ATOM      8  C8  NON d   1     -39.133  19.935  -1.979  0.00  0.00     0.276 C 
BRANCH   8   9
ATOM      9  C7  NON d   1     -40.341  19.386  -2.670  0.00  0.00     0.006 A 
ATOM     10  C6  NON d   1     -40.938  18.168  -2.325  0.00  0.00     0.013 A 
ATOM     11  C5  NON d   1     -41.983  17.652  -3.111  0.00  0.00     0.012 A 
ATOM     12  C4  NON d   1     -42.472  18.356  -4.224  0.00  0.00    -0.033 A 
ATOM     13  C29 NON d   1     -41.859  19.562  -4.571  0.00  0.00     0.054 A 
ATOM     14  C28 NON d   1     -40.799  20.040  -3.813  0.00  0.00     0.125 A 
ATOM     15  F1  NON d   1     -40.176  21.162  -4.201  0.00  0.00    -0.205 F 
BRANCH  12  16
ATOM     16  C3  NON d   1     -43.528  17.768  -5.062  0.00  0.00     0.017 C 
ATOM     17  C2  NON d   1     -44.816  17.689  -4.685  0.00  0.00     0.077 C 
BRANCH  17  18
ATOM     18  C1  NON d   1     -45.958  17.165  -5.495  0.00  0.00     0.264 C 
ATOM     19  O1  NON d   1     -46.520  17.916  -6.296  0.00  0.00    -0.266 OA
ATOM     20  N3  NON d   1     -46.306  15.861  -5.268  0.00  0.00    -0.234 N 
ATOM     21  H28 NON d   1     -46.002  15.352  -4.451  0.00  0.00     0.197 HD
BRANCH  20  22
ATOM     22  O2  NON d   1     -47.537  15.444  -5.810  0.00  0.00    -0.287 OA
ATOM     23  H29 NON d   1     -47.661  16.069  -6.550  0.00  0.00     0.244 HD
ENDBRANCH  20  22
ENDBRANCH  17  18
ENDBRANCH  12  16
ENDBRANCH   8   9
ENDBRANCH   1   8
BRANCH   5  24
ATOM     24  C13 NON d   1     -40.304  24.637  -0.897  0.00  0.00    -0.012 C 
ATOM     25  C14 NON d   1     -40.944  25.447   0.103  0.00  0.00     0.050 C 
ATOM     26  N2  NON d   1     -41.642  26.401  -0.632  0.00  0.00    -0.354 N 
ATOM     27  C21 NON d   1     -41.311  26.443  -1.947  0.00  0.00     0.043 A 
ATOM     28  H20 NON d   1     -42.276  27.075  -0.233  0.00  0.00     0.166 HD
ATOM     29  C22 NON d   1     -41.689  27.380  -2.920  0.00  0.00     0.030 A 
ATOM     30  C26 NON d   1     -40.515  25.339  -2.181  0.00  0.00    -0.001 A 
ATOM     31  C23 NON d   1     -41.259  27.172  -4.226  0.00  0.00     0.002 A 
ATOM     32  C24 NON d   1     -40.480  26.068  -4.531  0.00  0.00     0.001 A 
ATOM     33  C25 NON d   1     -40.099  25.168  -3.523  0.00  0.00     0.014 A 
BRANCH  25  34
ATOM     34  C15 NON d   1     -41.118  25.576   1.613  0.00  0.00    -0.009 A 
ATOM     35  C16 NON d   1     -40.721  24.663   2.594  0.00  0.00     0.014 A 
ATOM     36  C17 NON d   1     -40.987  24.830   3.966  0.00  0.00     0.001 A 
ATOM     37  C18 NON d   1     -41.705  25.920   4.420  0.00  0.00     0.000 A 
ATOM     38  C19 NON d   1     -42.118  26.863   3.498  0.00  0.00     0.001 A 
ATOM     39  C20 NON d   1     -41.805  26.704   2.135  0.00  0.00     0.014 A 
ENDBRANCH  25  34
ENDBRANCH   5  24
TORSDOF 7
ENDMDL
MODEL 3
REMARK VINA RESULT:   -17.918      0.829      1.124
REMARK INTER + INTRA:         -21.910
REMARK INTER:                 -20.006
REMARK INTRA:                  -1.904
REMARK CONF_INDEPENDENT:        2.088
REMARK UNBOUND:                -1.904
REMARK  7 active torsions:
REMARK  status: ('A' for Active; 'I' for Inactive)
REMARK    1  A    between atoms: C1_2  and  C2_3 
REMARK       I    between atoms: C1_2  and  N3_34 
REMARK    2  A    between atoms: C3_4  and  C4_5 
REMARK    3  A    between atoms: C7_8  and  C8_9 
REMARK    4  A    between atoms: C8_9  and  N1_10 
REMARK    5  A    between atoms: C12_14  and  C13_15 
REMARK    6  A    between atoms: C14_16  and  C15_17 
REMARK    7  A    between atoms: N3_34  and  O2_35 
ROOT
ATOM      1  N1  NON d   1     -39.384  20.676  -1.251  0.00  0.00    -0.066 N 
ATOM      2  C9  NON d   1     -37.953  20.660  -0.760  0.00  0.00     0.235 C 
ATOM      3  C10 NON d   1     -37.820  21.370   0.552  0.00  0.00     0.028 C 
ATOM      4  C11 NON d   1     -38.334  22.800   0.503  0.00  0.00     0.013 C 
ATOM      5  C12 NON d   1     -39.327  23.187  -0.586  0.00  0.00     0.048 C 
ATOM      6  C27 NON d   1     -40.197  21.924  -0.832  0.00  0.00     0.244 C 
ATOM      7  H7  NON d   1     -39.871  19.902  -0.780  0.00  0.00     0.280 HD
ENDROOT
BRANCH   1   8
ATOM      8  C8  NON d   1     -39.337  20.271  -2.721  0.00  0.00     0.276 C 
BRANCH   8   9
ATOM      9  C7  NON d   1     -40.426  19.436  -3.315  0.00  0.00     0.006 A 
ATOM     10  C6  NON d   1     -40.864  19.568  -4.639  0.00  0.00     0.013 A 
ATOM     11  C5  NON d   1     -41.986  18.846  -5.081  0.00  0.00     0.012 A 
ATOM     12  C4  NON d   1     -42.662  17.958  -4.229  0.00  0.00    -0.033 A 
ATOM     13  C29 NON d   1     -42.230  17.845  -2.906  0.00  0.00     0.054 A 
ATOM     14  C28 NON d   1     -41.148  18.595  -2.468  0.00  0.00     0.125 A 
ATOM     15  F1  NON d   1     -40.790  18.529  -1.177  0.00  0.00    -0.205 F 
BRANCH  12  16
ATOM     16  C3  NON d   1     -43.867  17.257  -4.701  0.00  0.00     0.017 C 
ATOM     17  C2  NON d   1     -44.974  17.890  -5.127  0.00  0.00     0.077 C 
BRANCH  17  18
ATOM     18  C1  NON d   1     -46.213  17.259  -5.677  0.00  0.00     0.264 C 
ATOM     19  O1  NON d   1     -47.075  17.976  -6.188  0.00  0.00    -0.266 OA
ATOM     20  N3  NON d   1     -46.297  15.898  -5.555  0.00  0.00    -0.234 N 
ATOM     21  H28 NON d   1     -45.707  15.371  -4.927  0.00  0.00     0.197 HD
BRANCH  20  22
ATOM     22  O2  NON d   1     -47.560  15.330  -5.810  0.00  0.00    -0.287 OA
ATOM     23  H29 NON d   1     -47.851  15.816  -6.605  0.00  0.00     0.244 HD
ENDBRANCH  20  22
ENDBRANCH  17  18
ENDBRANCH  12  16
ENDBRANCH   8   9
ENDBRANCH   1   8
BRANCH   5  24
ATOM     24  C13 NON d   1     -40.120  24.494  -0.231  0.00  0.00    -0.012 C 
ATOM     25  C14 NON d   1     -40.697  25.539  -1.033  0.00  0.00     0.050 C 
ATOM     26  N2  NON d   1     -41.195  26.444  -0.098  0.00  0.00    -0.354 N 
ATOM     27  C21 NON d   1     -41.229  25.971   1.172  0.00  0.00     0.043 A 
ATOM     28  H20 NON d   1     -41.587  27.343  -0.330  0.00  0.00     0.166 HD
ATOM     29  C22 NON d   1     -41.818  26.543   2.309  0.00  0.00     0.030 A 
ATOM     30  C26 NON d   1     -40.531  24.779   1.160  0.00  0.00    -0.001 A 
ATOM     31  C23 NON d   1     -41.667  25.883   3.524  0.00  0.00     0.002 A 
ATOM     32  C24 NON d   1     -40.955  24.697   3.583  0.00  0.00     0.001 A 
ATOM     33  C25 NON d   1     -40.405  24.140   2.417  0.00  0.00     0.014 A 
BRANCH  25  34
ATOM     34  C15 NON d   1     -40.903  25.965  -2.482  0.00  0.00    -0.009 A 
ATOM     35  C16 NON d   1     -41.681  27.027  -2.951  0.00  0.00     0.014 A 
ATOM     36  C17 NON d   1     -41.874  27.307  -4.318  0.00  0.00     0.001 A 
ATOM     37  C18 NON d   1     -41.314  26.500  -5.291  0.00  0.00     0.000 A 
ATOM     38  C19 NON d   1     -40.527  25.438  -4.888  0.00  0.00     0.001 A 
ATOM     39  C20 NON d   1     -40.307  25.199  -3.520  0.00  0.00     0.014 A 
ENDBRANCH  25  34
ENDBRANCH   5  24
TORSDOF 7
ENDMDL
MODEL 4
REMARK VINA RESULT:   -17.192      1.318      4.168
REMARK INTER + INTRA:         -21.483
REMARK INTER:                 -19.280
REMARK INTRA:                  -2.203
REMARK CONF_INDEPENDENT:        2.088
REMARK UNBOUND:                -2.203
REMARK  7 active torsions:
REMARK  status: ('A' for Active; 'I' for Inactive)
REMARK    1  A    between atoms: C1_2  and  C2_3 
REMARK       I    between atoms: C1_2  and  N3_34 
REMARK    2  A    between atoms: C3_4  and  C4_5 
REMARK    3  A    between atoms: C7_8  and  C8_9 
REMARK    4  A    between atoms: C8_9  and  N1_10 
REMARK    5  A    between atoms: C12_14  and  C13_15 
REMARK    6  A    between atoms: C14_16  and  C15_17 
REMARK    7  A    between atoms: N3_34  and  O2_35 
ROOT
ATOM      1  N1  NON d   1     -38.831  20.180  -1.778  0.00  0.00    -0.066 N 
ATOM      2  C9  NON d   1     -37.345  20.459  -1.705  0.00  0.00     0.235 C 
ATOM      3  C10 NON d   1     -37.065  21.726  -0.958  0.00  0.00     0.028 C 
ATOM      4  C11 NON d   1     -37.789  22.928  -1.543  0.00  0.00     0.013 C 
ATOM      5  C12 NON d   1     -39.024  22.694  -2.404  0.00  0.00     0.048 C 
ATOM      6  C27 NON d   1     -39.725  21.443  -1.807  0.00  0.00     0.244 C 
ATOM      7  H7  NON d   1     -39.092  19.721  -0.896  0.00  0.00     0.280 HD
ENDROOT
BRANCH   1   8
ATOM      8  C8  NON d   1     -39.014  19.107  -2.847  0.00  0.00     0.276 C 
BRANCH   8   9
ATOM      9  C7  NON d   1     -40.384  18.661  -3.250  0.00  0.00     0.006 A 
ATOM     10  C6  NON d   1     -41.340  18.193  -2.340  0.00  0.00     0.013 A 
ATOM     11  C5  NON d   1     -42.552  17.659  -2.811  0.00  0.00     0.012 A 
ATOM     12  C4  NON d   1     -42.845  17.619  -4.183  0.00  0.00    -0.033 A 
ATOM     13  C29 NON d   1     -41.879  18.071  -5.084  0.00  0.00     0.054 A 
ATOM     14  C28 NON d   1     -40.668  18.556  -4.610  0.00  0.00     0.125 A 
ATOM     15  F1  NON d   1     -39.724  18.920  -5.491  0.00  0.00    -0.205 F 
BRANCH  12  16
ATOM     16  C3  NON d   1     -44.098  17.004  -4.652  0.00  0.00     0.017 C 
ATOM     17  C2  NON d   1     -45.088  17.697  -5.241  0.00  0.00     0.077 C 
BRANCH  17  18
ATOM     18  C1  NON d   1     -46.360  17.144  -5.799  0.00  0.00     0.264 C 
ATOM     19  O1  NON d   1     -47.235  17.923  -6.184  0.00  0.00    -0.266 OA
ATOM     20  N3  NON d   1     -46.460  15.779  -5.827  0.00  0.00    -0.234 N 
ATOM     21  H28 NON d   1     -45.850  15.179  -5.291  0.00  0.00     0.197 HD
BRANCH  20  22
ATOM     22  O2  NON d   1     -47.742  15.256  -6.083  0.00  0.00    -0.287 OA
ATOM     23  H29 NON d   1     -48.299  16.057  -6.076  0.00  0.00     0.244 HD
ENDBRANCH  20  22
ENDBRANCH  17  18
ENDBRANCH  12  16
ENDBRANCH   8   9
ENDBRANCH   1   8
BRANCH   5  24
ATOM     24  C13 NON d   1     -39.920  23.978  -2.521  0.00  0.00    -0.012 C 
ATOM     25  C14 NON d   1     -40.607  24.786  -1.551  0.00  0.00     0.050 C 
ATOM     26  N2  NON d   1     -41.280  25.734  -2.318  0.00  0.00    -0.354 N 
ATOM     27  C21 NON d   1     -40.895  25.775  -3.617  0.00  0.00     0.043 A 
ATOM     28  H20 NON d   1     -41.935  26.404  -1.947  0.00  0.00     0.166 HD
ATOM     29  C22 NON d   1     -41.237  26.707  -4.608  0.00  0.00     0.030 A 
ATOM     30  C26 NON d   1     -40.082  24.675  -3.815  0.00  0.00    -0.001 A 
ATOM     31  C23 NON d   1     -40.751  26.499  -5.894  0.00  0.00     0.002 A 
ATOM     32  C24 NON d   1     -39.953  25.400  -6.163  0.00  0.00     0.001 A 
ATOM     33  C25 NON d   1     -39.608  24.504  -5.138  0.00  0.00     0.014 A 
BRANCH  25  34
ATOM     34  C15 NON d   1     -40.846  24.917  -0.050  0.00  0.00    -0.009 A 
ATOM     35  C16 NON d   1     -41.225  26.065   0.651  0.00  0.00     0.014 A 
ATOM     36  C17 NON d   1     -41.353  26.114   2.053  0.00  0.00     0.001 A 
ATOM     37  C18 NON d   1     -41.069  25.006   2.828  0.00  0.00     0.000 A 
ATOM     38  C19 NON d   1     -40.696  23.838   2.191  0.00  0.00     0.001 A 
ATOM     39  C20 NON d   1     -40.616  23.792   0.787  0.00  0.00     0.014 A 
ENDBRANCH  25  34
ENDBRANCH   5  24
TORSDOF 7
ENDMDL
MODEL 5
REMARK VINA RESULT:   -16.984      2.372      3.741
REMARK INTER + INTRA:         -21.491
REMARK INTER:                 -19.072
REMARK INTRA:                  -2.419
REMARK CONF_INDEPENDENT:        2.088
REMARK UNBOUND:                -2.419
REMARK  7 active torsions:
REMARK  status: ('A' for Active; 'I' for Inactive)
REMARK    1  A    between atoms: C1_2  and  C2_3 
REMARK       I    between atoms: C1_2  and  N3_34 
REMARK    2  A    between atoms: C3_4  and  C4_5 
REMARK    3  A    between atoms: C7_8  and  C8_9 
REMARK    4  A    between atoms: C8_9  and  N1_10 
REMARK    5  A    between atoms: C12_14  and  C13_15 
REMARK    6  A    between atoms: C14_16  and  C15_17 
REMARK    7  A    between atoms: N3_34  and  O2_35 
ROOT
ATOM      1  N1  NON d   1     -38.679  20.178  -1.773  0.00  0.00    -0.066 N 
ATOM      2  C9  NON d   1     -37.185  20.384  -1.649  0.00  0.00     0.235 C 
ATOM      3  C10 NON d   1     -36.856  21.813  -1.345  0.00  0.00     0.028 C 
ATOM      4  C11 NON d   1     -37.428  22.780  -2.369  0.00  0.00     0.013 C 
ATOM      5  C12 NON d   1     -38.609  22.334  -3.221  0.00  0.00     0.048 C 
ATOM      6  C27 NON d   1     -39.457  21.402  -2.314  0.00  0.00     0.244 C 
ATOM      7  H7  NON d   1     -39.045  20.063  -0.819  0.00  0.00     0.280 HD
ENDROOT
BRANCH   1   8
ATOM      8  C8  NON d   1     -38.871  18.817  -2.434  0.00  0.00     0.276 C 
BRANCH   8   9
ATOM      9  C7  NON d   1     -40.185  18.448  -3.048  0.00  0.00     0.006 A 
ATOM     10  C6  NON d   1     -41.285  18.004  -2.304  0.00  0.00     0.013 A 
ATOM     11  C5  NON d   1     -42.436  17.542  -2.964  0.00  0.00     0.012 A 
ATOM     12  C4  NON d   1     -42.524  17.550  -4.365  0.00  0.00    -0.033 A 
ATOM     13  C29 NON d   1     -41.417  17.977  -5.100  0.00  0.00     0.054 A 
ATOM     14  C28 NON d   1     -40.269  18.391  -4.438  0.00  0.00     0.125 A 
ATOM     15  F1  NON d   1     -39.189  18.730  -5.159  0.00  0.00    -0.205 F 
BRANCH  12  16
ATOM     16  C3  NON d   1     -43.720  17.009  -5.032  0.00  0.00     0.017 C 
ATOM     17  C2  NON d   1     -44.951  17.527  -4.881  0.00  0.00     0.077 C 
BRANCH  17  18
ATOM     18  C1  NON d   1     -46.203  17.079  -5.565  0.00  0.00     0.264 C 
ATOM     19  O1  NON d   1     -46.876  17.904  -6.185  0.00  0.00    -0.266 OA
ATOM     20  N3  NON d   1     -46.516  15.753  -5.435  0.00  0.00    -0.234 N 
ATOM     21  H28 NON d   1     -46.093  15.161  -4.734  0.00  0.00     0.197 HD
BRANCH  20  22
ATOM     22  O2  NON d   1     -47.815  15.380  -5.829  0.00  0.00    -0.287 OA
ATOM     23  H29 NON d   1     -48.042  16.073  -6.478  0.00  0.00     0.244 HD
ENDBRANCH  20  22
ENDBRANCH  17  18
ENDBRANCH  12  16
ENDBRANCH   8   9
ENDBRANCH   1   8
BRANCH   5  24
ATOM     24  C13 NON d   1     -39.381  23.548  -3.851  0.00  0.00    -0.012 C 
ATOM     25  C14 NON d   1     -39.789  23.860  -5.193  0.00  0.00     0.050 C 
ATOM     26  N2  NON d   1     -40.371  25.121  -5.083  0.00  0.00    -0.354 N 
ATOM     27  C21 NON d   1     -40.605  25.518  -3.808  0.00  0.00     0.043 A 
ATOM     28  H20 NON d   1     -40.682  25.674  -5.866  0.00  0.00     0.166 HD
ATOM     29  C22 NON d   1     -41.320  26.634  -3.350  0.00  0.00     0.030 A 
ATOM     30  C26 NON d   1     -39.970  24.599  -2.994  0.00  0.00    -0.001 A 
ATOM     31  C23 NON d   1     -41.374  26.857  -1.979  0.00  0.00     0.002 A 
ATOM     32  C24 NON d   1     -40.734  25.987  -1.111  0.00  0.00     0.001 A 
ATOM     33  C25 NON d   1     -40.053  24.864  -1.606  0.00  0.00     0.014 A 
BRANCH  25  34
ATOM     34  C15 NON d   1     -39.769  23.307  -6.614  0.00  0.00    -0.009 A 
ATOM     35  C16 NON d   1     -39.629  24.027  -7.803  0.00  0.00     0.014 A 
ATOM     36  C17 NON d   1     -39.694  23.440  -9.082  0.00  0.00     0.001 A 
ATOM     37  C18 NON d   1     -39.940  22.088  -9.227  0.00  0.00     0.000 A 
ATOM     38  C19 NON d   1     -40.080  21.321  -8.086  0.00  0.00     0.001 A 
ATOM     39  C20 NON d   1     -39.967  21.914  -6.816  0.00  0.00     0.014 A 
ENDBRANCH  25  34
ENDBRANCH   5  24
TORSDOF 7
ENDMDL
MODEL 6
REMARK VINA RESULT:   -16.300      1.607      2.488
REMARK INTER + INTRA:         -20.294
REMARK INTER:                 -18.388
REMARK INTRA:                  -1.906
REMARK CONF_INDEPENDENT:        2.088
REMARK UNBOUND:                -1.906
REMARK  7 active torsions:
REMARK  status: ('A' for Active; 'I' for Inactive)
REMARK    1  A    between atoms: C1_2  and  C2_3 
REMARK       I    between atoms: C1_2  and  N3_34 
REMARK    2  A    between atoms: C3_4  and  C4_5 
REMARK    3  A    between atoms: C7_8  and  C8_9 
REMARK    4  A    between atoms: C8_9  and  N1_10 
REMARK    5  A    between atoms: C12_14  and  C13_15 
REMARK    6  A    between atoms: C14_16  and  C15_17 
REMARK    7  A    between atoms: N3_34  and  O2_35 
ROOT
ATOM      1  N1  NON d   1     -38.654  20.525  -3.163  0.00  0.00    -0.066 N 
ATOM      2  C9  NON d   1     -39.138  20.480  -4.596  0.00  0.00     0.235 C 
ATOM      3  C10 NON d   1     -39.095  21.837  -5.227  0.00  0.00     0.028 C 
ATOM      4  C11 NON d   1     -39.885  22.875  -4.447  0.00  0.00     0.013 C 
ATOM      5  C12 NON d   1     -40.174  22.624  -2.972  0.00  0.00     0.048 C 
ATOM      6  C27 NON d   1     -38.939  21.856  -2.426  0.00  0.00     0.244 C 
ATOM      7  H7  NON d   1     -37.627  20.482  -3.193  0.00  0.00     0.280 HD
ENDROOT
BRANCH   1   8
ATOM      8  C8  NON d   1     -39.082  19.208  -2.524  0.00  0.00     0.276 C 
BRANCH   8   9
ATOM      9  C7  NON d   1     -40.309  18.496  -2.998  0.00  0.00     0.006 A 
ATOM     10  C6  NON d   1     -40.451  17.987  -4.295  0.00  0.00     0.013 A 
ATOM     11  C5  NON d   1     -41.686  17.456  -4.708  0.00  0.00     0.012 A 
ATOM     12  C4  NON d   1     -42.779  17.390  -3.830  0.00  0.00    -0.033 A 
ATOM     13  C29 NON d   1     -42.635  17.916  -2.545  0.00  0.00     0.054 A 
ATOM     14  C28 NON d   1     -41.424  18.476  -2.162  0.00  0.00     0.125 A 
ATOM     15  F1  NON d   1     -41.323  19.040  -0.949  0.00  0.00    -0.205 F 
BRANCH  12  16
ATOM     16  C3  NON d   1     -44.076  16.881  -4.305  0.00  0.00     0.017 C 
ATOM     17  C2  NON d   1     -44.912  17.593  -5.081  0.00  0.00     0.077 C 
BRANCH  17  18
ATOM     18  C1  NON d   1     -46.214  17.132  -5.655  0.00  0.00     0.264 C 
ATOM     19  O1  NON d   1     -46.960  17.957  -6.186  0.00  0.00    -0.266 OA
ATOM     20  N3  NON d   1     -46.485  15.797  -5.530  0.00  0.00    -0.234 N 
ATOM     21  H28 NON d   1     -45.985  15.198  -4.888  0.00  0.00     0.197 HD
BRANCH  20  22
ATOM     22  O2  NON d   1     -47.808  15.403  -5.810  0.00  0.00    -0.287 OA
ATOM     23  H29 NON d   1     -48.031  15.958  -6.581  0.00  0.00     0.244 HD
ENDBRANCH  20  22
ENDBRANCH  17  18
ENDBRANCH  12  16
ENDBRANCH   8   9
ENDBRANCH   1   8
BRANCH   5  24
ATOM     24  C13 NON d   1     -40.543  23.942  -2.204  0.00  0.00    -0.012 C 
ATOM     25  C14 NON d   1     -40.947  25.251  -2.641  0.00  0.00     0.050 C 
ATOM     26  N2  NON d   1     -41.051  25.983  -1.461  0.00  0.00    -0.354 N 
ATOM     27  C21 NON d   1     -41.013  25.230  -0.333  0.00  0.00     0.043 A 
ATOM     28  H20 NON d   1     -41.229  26.973  -1.419  0.00  0.00     0.166 HD
ATOM     29  C22 NON d   1     -41.258  25.617   0.992  0.00  0.00     0.030 A 
ATOM     30  C26 NON d   1     -40.654  23.956  -0.730  0.00  0.00    -0.001 A 
ATOM     31  C23 NON d   1     -41.101  24.661   1.991  0.00  0.00     0.002 A 
ATOM     32  C24 NON d   1     -40.716  23.372   1.660  0.00  0.00     0.001 A 
ATOM     33  C25 NON d   1     -40.508  23.016   0.318  0.00  0.00     0.014 A 
BRANCH  25  34
ATOM     34  C15 NON d   1     -41.252  26.055  -3.900  0.00  0.00    -0.009 A 
ATOM     35  C16 NON d   1     -42.444  26.713  -4.218  0.00  0.00     0.014 A 
ATOM     36  C17 NON d   1     -42.665  27.376  -5.441  0.00  0.00     0.001 A 
ATOM     37  C18 NON d   1     -41.698  27.378  -6.428  0.00  0.00     0.000 A 
ATOM     38  C19 NON d   1     -40.495  26.751  -6.170  0.00  0.00     0.001 A 
ATOM     39  C20 NON d   1     -40.272  26.132  -4.926  0.00  0.00     0.014 A 
ENDBRANCH  25  34
ENDBRANCH   5  24
TORSDOF 7
ENDMDL
MODEL 7
REMARK VINA RESULT:   -16.018      3.286      6.216
REMARK INTER + INTRA:         -20.368
REMARK INTER:                 -18.106
REMARK INTRA:                  -2.261
REMARK CONF_INDEPENDENT:        2.088
REMARK UNBOUND:                -2.261
REMARK  7 active torsions:
REMARK  status: ('A' for Active; 'I' for Inactive)
REMARK    1  A    between atoms: C1_2  and  C2_3 
REMARK       I    between atoms: C1_2  and  N3_34 
REMARK    2  A    between atoms: C3_4  and  C4_5 
REMARK    3  A    between atoms: C7_8  and  C8_9 
REMARK    4  A    between atoms: C8_9  and  N1_10 
REMARK    5  A    between atoms: C12_14  and  C13_15 
REMARK    6  A    between atoms: C14_16  and  C15_17 
REMARK    7  A    between atoms: N3_34  and  O2_35 
ROOT
ATOM      1  N1  NON d   1     -38.178  20.175  -3.020  0.00  0.00    -0.066 N 
ATOM      2  C9  NON d   1     -37.263  19.169  -3.684  0.00  0.00     0.235 C 
ATOM      3  C10 NON d   1     -36.435  19.811  -4.754  0.00  0.00     0.028 C 
ATOM      4  C11 NON d   1     -37.275  20.520  -5.804  0.00  0.00     0.013 C 
ATOM      5  C12 NON d   1     -38.693  20.944  -5.447  0.00  0.00     0.048 C 
ATOM      6  C27 NON d   1     -38.654  21.324  -3.942  0.00  0.00     0.244 C 
ATOM      7  H7  NON d   1     -37.621  20.658  -2.303  0.00  0.00     0.280 HD
ENDROOT
BRANCH   1   8
ATOM      8  C8  NON d   1     -39.207  19.367  -2.237  0.00  0.00     0.276 C 
BRANCH   8   9
ATOM      9  C7  NON d   1     -40.303  18.638  -2.948  0.00  0.00     0.006 A 
ATOM     10  C6  NON d   1     -40.327  18.446  -4.335  0.00  0.00     0.013 A 
ATOM     11  C5  NON d   1     -41.459  17.877  -4.944  0.00  0.00     0.012 A 
ATOM     12  C4  NON d   1     -42.561  17.456  -4.182  0.00  0.00    -0.033 A 
ATOM     13  C29 NON d   1     -42.536  17.666  -2.802  0.00  0.00     0.054 A 
ATOM     14  C28 NON d   1     -41.432  18.270  -2.217  0.00  0.00     0.125 A 
ATOM     15  F1  NON d   1     -41.453  18.529  -0.901  0.00  0.00    -0.205 F 
BRANCH  12  16
ATOM     16  C3  NON d   1     -43.755  16.914  -4.850  0.00  0.00     0.017 C 
ATOM     17  C2  NON d   1     -44.950  17.528  -4.845  0.00  0.00     0.077 C 
BRANCH  17  18
ATOM     18  C1  NON d   1     -46.193  17.080  -5.546  0.00  0.00     0.264 C 
ATOM     19  O1  NON d   1     -46.845  17.900  -6.195  0.00  0.00    -0.266 OA
ATOM     20  N3  NON d   1     -46.522  15.760  -5.396  0.00  0.00    -0.234 N 
ATOM     21  H28 NON d   1     -46.120  15.178  -4.675  0.00  0.00     0.197 HD
BRANCH  20  22
ATOM     22  O2  NON d   1     -47.817  15.393  -5.810  0.00  0.00    -0.287 OA
ATOM     23  H29 NON d   1     -47.973  15.994  -6.562  0.00  0.00     0.244 HD
ENDBRANCH  20  22
ENDBRANCH  17  18
ENDBRANCH  12  16
ENDBRANCH   8   9
ENDBRANCH   1   8
BRANCH   5  24
ATOM     24  C13 NON d   1     -39.242  22.057  -6.409  0.00  0.00    -0.012 C 
ATOM     25  C14 NON d   1     -39.882  23.323  -6.179  0.00  0.00     0.050 C 
ATOM     26  N2  NON d   1     -40.182  23.786  -7.458  0.00  0.00    -0.354 N 
ATOM     27  C21 NON d   1     -39.583  23.091  -8.457  0.00  0.00     0.043 A 
ATOM     28  H20 NON d   1     -40.721  24.615  -7.652  0.00  0.00     0.166 HD
ATOM     29  C22 NON d   1     -39.533  23.386  -9.827  0.00  0.00     0.030 A 
ATOM     30  C26 NON d   1     -39.020  21.975  -7.869  0.00  0.00    -0.001 A 
ATOM     31  C23 NON d   1     -38.896  22.478 -10.667  0.00  0.00     0.002 A 
ATOM     32  C24 NON d   1     -38.334  21.326 -10.142  0.00  0.00     0.001 A 
ATOM     33  C25 NON d   1     -38.380  21.080  -8.760  0.00  0.00     0.014 A 
BRANCH  25  34
ATOM     34  C15 NON d   1     -40.335  24.254  -5.060  0.00  0.00    -0.009 A 
ATOM     35  C16 NON d   1     -40.348  25.652  -5.072  0.00  0.00     0.014 A 
ATOM     36  C17 NON d   1     -40.716  26.436  -3.962  0.00  0.00     0.001 A 
ATOM     37  C18 NON d   1     -41.060  25.845  -2.761  0.00  0.00     0.000 A 
ATOM     38  C19 NON d   1     -41.074  24.465  -2.689  0.00  0.00     0.001 A 
ATOM     39  C20 NON d   1     -40.747  23.695  -3.820  0.00  0.00     0.014 A 
ENDBRANCH  25  34
ENDBRANCH   5  24
TORSDOF 7
ENDMDL
MODEL 8
REMARK VINA RESULT:   -15.835      2.726      4.388
REMARK INTER + INTRA:         -20.548
REMARK INTER:                 -17.923
REMARK INTRA:                  -2.625
REMARK CONF_INDEPENDENT:        2.088
REMARK UNBOUND:                -2.625
REMARK  7 active torsions:
REMARK  status: ('A' for Active; 'I' for Inactive)
REMARK    1  A    between atoms: C1_2  and  C2_3 
REMARK       I    between atoms: C1_2  and  N3_34 
REMARK    2  A    between atoms: C3_4  and  C4_5 
REMARK    3  A    between atoms: C7_8  and  C8_9 
REMARK    4  A    between atoms: C8_9  and  N1_10 
REMARK    5  A    between atoms: C12_14  and  C13_15 
REMARK    6  A    between atoms: C14_16  and  C15_17 
REMARK    7  A    between atoms: N3_34  and  O2_35 
ROOT
ATOM      1  N1  NON d   1     -38.722  20.246  -1.611  0.00  0.00    -0.066 N 
ATOM      2  C9  NON d   1     -37.253  20.560  -1.430  0.00  0.00     0.235 C 
ATOM      3  C10 NON d   1     -37.020  22.037  -1.339  0.00  0.00     0.028 C 
ATOM      4  C11 NON d   1     -37.568  22.795  -2.537  0.00  0.00     0.013 C 
ATOM      5  C12 NON d   1     -38.662  22.150  -3.378  0.00  0.00     0.048 C 
ATOM      6  C27 NON d   1     -39.523  21.320  -2.386  0.00  0.00     0.244 C 
ATOM      7  H7  NON d   1     -39.147  20.258  -0.675  0.00  0.00     0.280 HD
ENDROOT
BRANCH   1   8
ATOM      8  C8  NON d   1     -38.797  18.789  -2.056  0.00  0.00     0.276 C 
BRANCH   8   9
ATOM      9  C7  NON d   1     -39.914  18.318  -2.933  0.00  0.00     0.006 A 
ATOM     10  C6  NON d   1     -39.855  18.335  -4.332  0.00  0.00     0.013 A 
ATOM     11  C5  NON d   1     -40.996  18.010  -5.085  0.00  0.00     0.012 A 
ATOM     12  C4  NON d   1     -42.195  17.628  -4.462  0.00  0.00    -0.033 A 
ATOM     13  C29 NON d   1     -42.251  17.630  -3.067  0.00  0.00     0.054 A 
ATOM     14  C28 NON d   1     -41.130  17.995  -2.333  0.00  0.00     0.125 A 
ATOM     15  F1  NON d   1     -41.221  18.061  -0.996  0.00  0.00    -0.205 F 
BRANCH  12  16
ATOM     16  C3  NON d   1     -43.391  17.347  -5.273  0.00  0.00     0.017 C 
ATOM     17  C2  NON d   1     -44.628  17.243  -4.758  0.00  0.00     0.077 C 
BRANCH  17  18
ATOM     18  C1  NON d   1     -45.899  17.021  -5.514  0.00  0.00     0.264 C 
ATOM     19  O1  NON d   1     -46.367  17.943  -6.185  0.00  0.00    -0.266 OA
ATOM     20  N3  NON d   1     -46.463  15.780  -5.387  0.00  0.00    -0.234 N 
ATOM     21  H28 NON d   1     -46.202  15.137  -4.654  0.00  0.00     0.197 HD
BRANCH  20  22
ATOM     22  O2  NON d   1     -47.783  15.648  -5.858  0.00  0.00    -0.287 OA
ATOM     23  H29 NON d   1     -48.064  16.578  -5.954  0.00  0.00     0.244 HD
ENDBRANCH  20  22
ENDBRANCH  17  18
ENDBRANCH  12  16
ENDBRANCH   8   9
ENDBRANCH   1   8
BRANCH   5  24
ATOM     24  C13 NON d   1     -39.449  23.200  -4.239  0.00  0.00    -0.012 C 
ATOM     25  C14 NON d   1     -39.891  23.213  -5.607  0.00  0.00     0.050 C 
ATOM     26  N2  NON d   1     -40.469  24.470  -5.762  0.00  0.00    -0.354 N 
ATOM     27  C21 NON d   1     -40.671  25.138  -4.599  0.00  0.00     0.043 A 
ATOM     28  H20 NON d   1     -40.800  24.840  -6.639  0.00  0.00     0.166 HD
ATOM     29  C22 NON d   1     -41.374  26.332  -4.381  0.00  0.00     0.030 A 
ATOM     30  C26 NON d   1     -40.016  24.417  -3.620  0.00  0.00    -0.001 A 
ATOM     31  C23 NON d   1     -41.392  26.851  -3.091  0.00  0.00     0.002 A 
ATOM     32  C24 NON d   1     -40.732  26.189  -2.069  0.00  0.00     0.001 A 
ATOM     33  C25 NON d   1     -40.063  24.980  -2.322  0.00  0.00     0.014 A 
BRANCH  25  34
ATOM     34  C15 NON d   1     -39.907  22.361  -6.872  0.00  0.00    -0.009 A 
ATOM     35  C16 NON d   1     -40.613  21.175  -7.086  0.00  0.00     0.014 A 
ATOM     36  C17 NON d   1     -40.513  20.411  -8.265  0.00  0.00     0.001 A 
ATOM     37  C18 NON d   1     -39.660  20.792  -9.284  0.00  0.00     0.000 A 
ATOM     38  C19 NON d   1     -38.940  21.961  -9.133  0.00  0.00     0.001 A 
ATOM     39  C20 NON d   1     -39.085  22.736  -7.968  0.00  0.00     0.014 A 
ENDBRANCH  25  34
ENDBRANCH   5  24
TORSDOF 7
ENDMDL
