MODEL 1
REMARK VINA RESULT:   -14.560      0.000      0.000
REMARK INTER + INTRA:         -17.474
REMARK INTER:                 -16.051
REMARK INTRA:                  -1.423
REMARK CONF_INDEPENDENT:        1.492
REMARK UNBOUND:                -1.423
REMARK  5 active torsions:
REMARK  status: ('A' for Active; 'I' for Inactive)
REMARK    1  A    between atoms: C1_2  and  C2_3 
REMARK       I    between atoms: C1_2  and  N2_21 
REMARK    2  A    between atoms: C3_4  and  C4_5 
REMARK    3  A    between atoms: N1_12  and  C11_13 
REMARK    4  A    between atoms: C11_13  and  C12_14 
REMARK    5  A    between atoms: N2_21  and  O2_22 
ROOT
ATOM      1  C4  NON d   1     -42.795  17.826  -4.341  0.00  0.00    -0.035 A 
ATOM      2  C5  NON d   1     -42.561  17.921  -2.967  0.00  0.00     0.013 A 
ATOM      3  C6  NON d   1     -41.486  18.650  -2.444  0.00  0.00     0.031 A 
ATOM      4  C7  NON d   1     -40.610  19.275  -3.344  0.00  0.00     0.044 A 
ATOM      5  C8  NON d   1     -40.804  19.199  -4.722  0.00  0.00    -0.007 A 
ATOM      6  C9  NON d   1     -39.716  19.879  -5.327  0.00  0.00     0.031 C 
ATOM      7  C10 NON d   1     -38.864  20.293  -4.325  0.00  0.00     0.092 C 
ATOM      8  N1  NON d   1     -39.456  20.029  -3.120  0.00  0.00    -0.352 N 
ATOM      9  C18 NON d   1     -41.919  18.487  -5.223  0.00  0.00     0.025 A 
ENDROOT
BRANCH   1  10
ATOM     10  C3  NON d   1     -43.914  16.969  -4.790  0.00  0.00     0.017 C 
ATOM     11  C2  NON d   1     -45.170  17.368  -5.054  0.00  0.00     0.077 C 
BRANCH  11  12
ATOM     12  C1  NON d   1     -46.226  16.476  -5.599  0.00  0.00     0.264 C 
ATOM     13  O1  NON d   1     -45.940  15.379  -6.071  0.00  0.00    -0.266 OA
ATOM     14  N2  NON d   1     -47.507  16.954  -5.589  0.00  0.00    -0.234 N 
ATOM     15  H15 NON d   1     -47.770  17.915  -5.402  0.00  0.00     0.197 HD
BRANCH  14  16
ATOM     16  O2  NON d   1     -48.490  16.132  -6.185  0.00  0.00    -0.287 OA
ATOM     17  H16 NON d   1     -47.946  15.423  -6.592  0.00  0.00     0.244 HD
ENDBRANCH  14  16
ENDBRANCH  11  12
ENDBRANCH   1  10
BRANCH   8  18
ATOM     18  C11 NON d   1     -39.011  20.336  -1.752  0.00  0.00     0.167 C 
BRANCH  18  19
ATOM     19  C12 NON d   1     -39.719  21.340  -0.870  0.00  0.00    -0.040 A 
ATOM     20  C13 NON d   1     -40.367  22.405  -1.534  0.00  0.00     0.009 A 
ATOM     21  C14 NON d   1     -40.991  23.437  -0.831  0.00  0.00     0.001 A 
ATOM     22  C15 NON d   1     -40.989  23.420   0.558  0.00  0.00     0.000 A 
ATOM     23  C16 NON d   1     -40.330  22.398   1.235  0.00  0.00     0.001 A 
ATOM     24  C17 NON d   1     -39.669  21.387   0.527  0.00  0.00     0.009 A 
ENDBRANCH  18  19
ENDBRANCH   8  18
TORSDOF 5
ENDMDL
MODEL 2
REMARK VINA RESULT:   -14.519      0.977      1.052
REMARK INTER + INTRA:         -17.360
REMARK INTER:                 -16.010
REMARK INTRA:                  -1.350
REMARK CONF_INDEPENDENT:        1.492
REMARK UNBOUND:                -1.350
REMARK  5 active torsions:
REMARK  status: ('A' for Active; 'I' for Inactive)
REMARK    1  A    between atoms: C1_2  and  C2_3 
REMARK       I    between atoms: C1_2  and  N2_21 
REMARK    2  A    between atoms: C3_4  and  C4_5 
REMARK    3  A    between atoms: N1_12  and  C11_13 
REMARK    4  A    between atoms: C11_13  and  C12_14 
REMARK    5  A    between atoms: N2_21  and  O2_22 
ROOT
ATOM      1  C4  NON d   1     -42.654  18.331  -4.106  0.00  0.00    -0.035 A 
ATOM      2  C5  NON d   1     -42.057  18.001  -2.886  0.00  0.00     0.013 A 
ATOM      3  C6  NON d   1     -41.023  18.765  -2.334  0.00  0.00     0.031 A 
ATOM      4  C7  NON d   1     -40.564  19.878  -3.054  0.00  0.00     0.044 A 
ATOM      5  C8  NON d   1     -41.128  20.237  -4.278  0.00  0.00    -0.007 A 
ATOM      6  C9  NON d   1     -40.395  21.354  -4.754  0.00  0.00     0.031 C 
ATOM      7  C10 NON d   1     -39.378  21.608  -3.858  0.00  0.00     0.092 C 
ATOM      8  N1  NON d   1     -39.545  20.790  -2.774  0.00  0.00    -0.352 N 
ATOM      9  C18 NON d   1     -42.196  19.469  -4.796  0.00  0.00     0.025 A 
ENDROOT
BRANCH   1  10
ATOM     10  C3  NON d   1     -43.686  17.415  -4.636  0.00  0.00     0.017 C 
ATOM     11  C2  NON d   1     -44.991  17.690  -4.801  0.00  0.00     0.077 C 
BRANCH  11  12
ATOM     12  C1  NON d   1     -45.962  16.760  -5.434  0.00  0.00     0.264 C 
ATOM     13  O1  NON d   1     -45.577  15.755  -6.023  0.00  0.00    -0.266 OA
ATOM     14  N2  NON d   1     -47.285  17.101  -5.363  0.00  0.00    -0.234 N 
ATOM     15  H15 NON d   1     -47.639  18.005  -5.070  0.00  0.00     0.197 HD
BRANCH  14  16
ATOM     16  O2  NON d   1     -48.190  16.252  -6.038  0.00  0.00    -0.287 OA
ATOM     17  H16 NON d   1     -47.631  15.884  -6.757  0.00  0.00     0.244 HD
ENDBRANCH  14  16
ENDBRANCH  11  12
ENDBRANCH   1  10
BRANCH   8  18
ATOM     18  C11 NON d   1     -38.788  20.711  -1.515  0.00  0.00     0.167 C 
BRANCH  18  19
ATOM     19  C12 NON d   1     -39.085  21.599  -0.327  0.00  0.00    -0.040 A 
ATOM     20  C13 NON d   1     -40.317  22.290  -0.358  0.00  0.00     0.009 A 
ATOM     21  C14 NON d   1     -40.674  23.198   0.640  0.00  0.00     0.001 A 
ATOM     22  C15 NON d   1     -39.807  23.428   1.701  0.00  0.00     0.000 A 
ATOM     23  C16 NON d   1     -38.574  22.784   1.737  0.00  0.00     0.001 A 
ATOM     24  C17 NON d   1     -38.201  21.904   0.712  0.00  0.00     0.009 A 
ENDBRANCH  18  19
ENDBRANCH   8  18
TORSDOF 5
ENDMDL
MODEL 3
REMARK VINA RESULT:   -13.935      2.115      4.489
REMARK INTER + INTRA:         -16.699
REMARK INTER:                 -15.427
REMARK INTRA:                  -1.272
REMARK CONF_INDEPENDENT:        1.492
REMARK UNBOUND:                -1.272
REMARK  5 active torsions:
REMARK  status: ('A' for Active; 'I' for Inactive)
REMARK    1  A    between atoms: C1_2  and  C2_3 
REMARK       I    between atoms: C1_2  and  N2_21 
REMARK    2  A    between atoms: C3_4  and  C4_5 
REMARK    3  A    between atoms: N1_12  and  C11_13 
REMARK    4  A    between atoms: C11_13  and  C12_14 
REMARK    5  A    between atoms: N2_21  and  O2_22 
ROOT
ATOM      1  C4  NON d   1     -42.867  17.503  -4.479  0.00  0.00    -0.035 A 
ATOM      2  C5  NON d   1     -41.933  17.745  -5.490  0.00  0.00     0.013 A 
ATOM      3  C6  NON d   1     -40.693  18.339  -5.229  0.00  0.00     0.031 A 
ATOM      4  C7  NON d   1     -40.405  18.721  -3.911  0.00  0.00     0.044 A 
ATOM      5  C8  NON d   1     -41.312  18.503  -2.875  0.00  0.00    -0.007 A 
ATOM      6  C9  NON d   1     -40.738  19.059  -1.703  0.00  0.00     0.031 C 
ATOM      7  C10 NON d   1     -39.543  19.650  -2.056  0.00  0.00     0.092 C 
ATOM      8  N1  NON d   1     -39.284  19.350  -3.366  0.00  0.00    -0.352 N 
ATOM      9  C18 NON d   1     -42.544  17.868  -3.159  0.00  0.00     0.025 A 
ENDROOT
BRANCH   1  10
ATOM     10  C3  NON d   1     -44.177  16.940  -4.874  0.00  0.00     0.017 C 
ATOM     11  C2  NON d   1     -45.239  17.628  -5.327  0.00  0.00     0.077 C 
BRANCH  11  12
ATOM     12  C1  NON d   1     -46.495  16.995  -5.803  0.00  0.00     0.264 C 
ATOM     13  O1  NON d   1     -47.439  17.680  -6.185  0.00  0.00    -0.266 OA
ATOM     14  N2  NON d   1     -46.560  15.629  -5.753  0.00  0.00    -0.234 N 
ATOM     15  H15 NON d   1     -45.901  15.032  -5.267  0.00  0.00     0.197 HD
BRANCH  14  16
ATOM     16  O2  NON d   1     -47.789  15.044  -6.131  0.00  0.00    -0.287 OA
ATOM     17  H16 NON d   1     -48.190  15.746  -6.688  0.00  0.00     0.244 HD
ENDBRANCH  14  16
ENDBRANCH  11  12
ENDBRANCH   1  10
BRANCH   8  18
ATOM     18  C11 NON d   1     -38.117  19.667  -4.204  0.00  0.00     0.167 C 
BRANCH  18  19
ATOM     19  C12 NON d   1     -38.186  19.716  -5.714  0.00  0.00    -0.040 A 
ATOM     20  C13 NON d   1     -38.968  20.753  -6.269  0.00  0.00     0.009 A 
ATOM     21  C14 NON d   1     -39.173  20.861  -7.646  0.00  0.00     0.001 A 
ATOM     22  C15 NON d   1     -38.589  19.935  -8.501  0.00  0.00     0.000 A 
ATOM     23  C16 NON d   1     -37.841  18.885  -7.976  0.00  0.00     0.001 A 
ATOM     24  C17 NON d   1     -37.671  18.756  -6.591  0.00  0.00     0.009 A 
ENDBRANCH  18  19
ENDBRANCH   8  18
TORSDOF 5
ENDMDL
MODEL 4
REMARK VINA RESULT:   -13.901      1.028      1.866
REMARK INTER + INTRA:         -16.767
REMARK INTER:                 -15.392
REMARK INTRA:                  -1.374
REMARK CONF_INDEPENDENT:        1.492
REMARK UNBOUND:                -1.374
REMARK  5 active torsions:
REMARK  status: ('A' for Active; 'I' for Inactive)
REMARK    1  A    between atoms: C1_2  and  C2_3 
REMARK       I    between atoms: C1_2  and  N2_21 
REMARK    2  A    between atoms: C3_4  and  C4_5 
REMARK    3  A    between atoms: N1_12  and  C11_13 
REMARK    4  A    between atoms: C11_13  and  C12_14 
REMARK    5  A    between atoms: N2_21  and  O2_22 
ROOT
ATOM      1  C4  NON d   1     -42.754  17.773  -4.534  0.00  0.00    -0.035 A 
ATOM      2  C5  NON d   1     -42.788  19.139  -4.827  0.00  0.00     0.013 A 
ATOM      3  C6  NON d   1     -41.814  20.026  -4.352  0.00  0.00     0.031 A 
ATOM      4  C7  NON d   1     -40.795  19.514  -3.535  0.00  0.00     0.044 A 
ATOM      5  C8  NON d   1     -40.729  18.159  -3.214  0.00  0.00    -0.007 A 
ATOM      6  C9  NON d   1     -39.628  18.000  -2.334  0.00  0.00     0.031 C 
ATOM      7  C10 NON d   1     -39.095  19.248  -2.091  0.00  0.00     0.092 C 
ATOM      8  N1  NON d   1     -39.726  20.151  -2.902  0.00  0.00    -0.352 N 
ATOM      9  C18 NON d   1     -41.705  17.279  -3.737  0.00  0.00     0.025 A 
ENDROOT
BRANCH   1  10
ATOM     10  C3  NON d   1     -43.873  16.938  -5.022  0.00  0.00     0.017 C 
ATOM     11  C2  NON d   1     -45.176  17.265  -5.019  0.00  0.00     0.077 C 
BRANCH  11  12
ATOM     12  C1  NON d   1     -46.244  16.423  -5.617  0.00  0.00     0.264 C 
ATOM     13  O1  NON d   1     -45.970  15.370  -6.185  0.00  0.00    -0.266 OA
ATOM     14  N2  NON d   1     -47.524  16.899  -5.541  0.00  0.00    -0.234 N 
ATOM     15  H15 NON d   1     -47.781  17.841  -5.268  0.00  0.00     0.197 HD
BRANCH  14  16
ATOM     16  O2  NON d   1     -48.520  16.130  -6.185  0.00  0.00    -0.287 OA
ATOM     17  H16 NON d   1     -48.072  15.263  -6.295  0.00  0.00     0.244 HD
ENDBRANCH  14  16
ENDBRANCH  11  12
ENDBRANCH   1  10
BRANCH   8  18
ATOM     18  C11 NON d   1     -39.488  21.591  -3.092  0.00  0.00     0.167 C 
BRANCH  18  19
ATOM     19  C12 NON d   1     -40.006  22.637  -2.130  0.00  0.00    -0.040 A 
ATOM     20  C13 NON d   1     -40.047  22.265  -0.768  0.00  0.00     0.009 A 
ATOM     21  C14 NON d   1     -40.574  23.112   0.208  0.00  0.00     0.001 A 
ATOM     22  C15 NON d   1     -41.065  24.359  -0.158  0.00  0.00     0.000 A 
ATOM     23  C16 NON d   1     -41.064  24.735  -1.498  0.00  0.00     0.001 A 
ATOM     24  C17 NON d   1     -40.572  23.866  -2.480  0.00  0.00     0.009 A 
ENDBRANCH  18  19
ENDBRANCH   8  18
TORSDOF 5
ENDMDL
MODEL 5
REMARK VINA RESULT:   -13.670      1.822      2.932
REMARK INTER + INTRA:         -16.563
REMARK INTER:                 -15.162
REMARK INTRA:                  -1.402
REMARK CONF_INDEPENDENT:        1.492
REMARK UNBOUND:                -1.402
REMARK  5 active torsions:
REMARK  status: ('A' for Active; 'I' for Inactive)
REMARK    1  A    between atoms: C1_2  and  C2_3 
REMARK       I    between atoms: C1_2  and  N2_21 
REMARK    2  A    between atoms: C3_4  and  C4_5 
REMARK    3  A    between atoms: N1_12  and  C11_13 
REMARK    4  A    between atoms: C11_13  and  C12_14 
REMARK    5  A    between atoms: N2_21  and  O2_22 
ROOT
ATOM      1  C4  NON d   1     -42.743  17.894  -4.604  0.00  0.00    -0.035 A 
ATOM      2  C5  NON d   1     -42.248  18.839  -5.508  0.00  0.00     0.013 A 
ATOM      3  C6  NON d   1     -41.247  19.751  -5.156  0.00  0.00     0.031 A 
ATOM      4  C7  NON d   1     -40.754  19.719  -3.843  0.00  0.00     0.044 A 
ATOM      5  C8  NON d   1     -41.225  18.797  -2.910  0.00  0.00    -0.007 A 
ATOM      6  C9  NON d   1     -40.568  19.082  -1.685  0.00  0.00     0.031 C 
ATOM      7  C10 NON d   1     -39.773  20.191  -1.878  0.00  0.00     0.092 C 
ATOM      8  N1  NON d   1     -39.796  20.512  -3.208  0.00  0.00    -0.352 N 
ATOM      9  C18 NON d   1     -42.211  17.862  -3.302  0.00  0.00     0.025 A 
ENDROOT
BRANCH   1  10
ATOM     10  C3  NON d   1     -43.853  17.027  -5.055  0.00  0.00     0.017 C 
ATOM     11  C2  NON d   1     -45.160  17.340  -5.060  0.00  0.00     0.077 C 
BRANCH  11  12
ATOM     12  C1  NON d   1     -46.221  16.463  -5.620  0.00  0.00     0.264 C 
ATOM     13  O1  NON d   1     -45.939  15.385  -6.133  0.00  0.00    -0.266 OA
ATOM     14  N2  NON d   1     -47.504  16.935  -5.574  0.00  0.00    -0.234 N 
ATOM     15  H15 NON d   1     -47.767  17.888  -5.349  0.00  0.00     0.197 HD
BRANCH  14  16
ATOM     16  O2  NON d   1     -48.492  16.130  -6.183  0.00  0.00    -0.287 OA
ATOM     17  H16 NON d   1     -47.953  15.428  -6.609  0.00  0.00     0.244 HD
ENDBRANCH  14  16
ENDBRANCH  11  12
ENDBRANCH   1  10
BRANCH   8  18
ATOM     18  C11 NON d   1     -39.068  21.553  -3.950  0.00  0.00     0.167 C 
BRANCH  18  19
ATOM     19  C12 NON d   1     -39.575  22.973  -4.073  0.00  0.00    -0.040 A 
ATOM     20  C13 NON d   1     -40.350  23.453  -2.993  0.00  0.00     0.009 A 
ATOM     21  C14 NON d   1     -40.938  24.718  -3.019  0.00  0.00     0.001 A 
ATOM     22  C15 NON d   1     -40.756  25.538  -4.124  0.00  0.00     0.000 A 
ATOM     23  C16 NON d   1     -40.023  25.076  -5.214  0.00  0.00     0.001 A 
ATOM     24  C17 NON d   1     -39.468  23.789  -5.203  0.00  0.00     0.009 A 
ENDBRANCH  18  19
ENDBRANCH   8  18
TORSDOF 5
ENDMDL
