MODEL 1
REMARK VINA RESULT:   -36.490      0.000      0.000
REMARK INTER + INTRA:         -43.998
REMARK INTER:                 -41.263
REMARK INTRA:                  -2.736
REMARK CONF_INDEPENDENT:        4.773
REMARK UNBOUND:                -2.736
REMARK  16 active torsions:
REMARK  status: ('A' for Active; 'I' for Inactive)
REMARK       I    between atoms: C1_2  and  N1_3 
REMARK    1  A    between atoms: C1_2  and  O3_33 
REMARK    2  A    between atoms: C2_4  and  N1_3 
REMARK    3  A    between atoms: C2_4  and  C3_5 
REMARK    4  A    between atoms: C2_4  and  C14_19 
REMARK    5  A    between atoms: C3_5  and  C4_6 
REMARK    6  A    between atoms: C4_6  and  C5_7 
REMARK    7  A    between atoms: C5_7  and  C6_8 
REMARK    8  A    between atoms: C6_8  and  C7_9 
REMARK    9  A    between atoms: C7_9  and  C8_10 
REMARK   10  A    between atoms: C8_10  and  S1_11 
REMARK   11  A    between atoms: S1_11  and  S2_12 
REMARK   12  A    between atoms: S2_12  and  C9_13 
REMARK       I    between atoms: C14_19  and  N3_21 
REMARK   13  A    between atoms: N3_21  and  C15_22 
REMARK   14  A    between atoms: C16_24  and  C17_25 
REMARK   15  A    between atoms: O3_33  and  C24_34 
REMARK   16  A    between atoms: C24_34  and  C25_35 
ROOT
ATOM      1  C2  NON d   1     -39.337  19.816  -5.971  0.00  0.00     0.157 C 
ENDROOT
BRANCH   1   2
ATOM      2  N1  NON d   1     -38.536  20.254  -7.171  0.00  0.00    -0.224 NA
ATOM      3  C1  NON d   1     -39.037  20.198  -8.457  0.00  0.00     0.339 C 
ATOM      4  O1  NON d   1     -39.743  19.292  -8.874  0.00  0.00    -0.245 OA
ATOM      5  H1  NON d   1     -38.105  21.160  -7.029  0.00  0.00     0.133 HD
BRANCH   3   6
ATOM      6  O3  NON d   1     -38.855  21.405  -9.077  0.00  0.00    -0.304 OA
BRANCH   6   7
ATOM      7  C24 NON d   1     -40.057  22.205  -9.158  0.00  0.00     0.218 C 
BRANCH   7   8
ATOM      8  C25 NON d   1     -39.870  23.713  -9.170  0.00  0.00    -0.034 A 
ATOM      9  C26 NON d   1     -39.761  24.389  -7.942  0.00  0.00     0.009 A 
ATOM     10  C27 NON d   1     -39.644  25.782  -7.882  0.00  0.00     0.001 A 
ATOM     11  C28 NON d   1     -39.632  26.524  -9.058  0.00  0.00     0.000 A 
ATOM     12  C29 NON d   1     -39.725  25.871 -10.287  0.00  0.00     0.001 A 
ATOM     13  C30 NON d   1     -39.845  24.474 -10.346  0.00  0.00     0.009 A 
ENDBRANCH   7   8
ENDBRANCH   6   7
ENDBRANCH   3   6
ENDBRANCH   1   2
BRANCH   1  14
ATOM     14  C3  NON d   1     -39.571  18.555  -5.035  0.00  0.00     0.029 C 
BRANCH  14  15
ATOM     15  C4  NON d   1     -39.489  18.908  -3.487  0.00  0.00     0.002 C 
BRANCH  15  16
ATOM     16  C5  NON d   1     -39.959  17.807  -2.494  0.00  0.00     0.000 C 
BRANCH  16  17
ATOM     17  C6  NON d   1     -41.381  17.256  -2.654  0.00  0.00     0.001 C 
BRANCH  17  18
ATOM     18  C7  NON d   1     -41.940  17.321  -4.082  0.00  0.00     0.011 C 
BRANCH  18  19
ATOM     19  C8  NON d   1     -43.462  17.359  -4.129  0.00  0.00     0.086 C 
BRANCH  19  20
ATOM     20  S1  NON d   1     -44.090  18.798  -5.061  0.00  0.00    -0.091 SA
BRANCH  20  21
ATOM     21  S2  NON d   1     -45.626  18.020  -6.183  0.00  0.00    -0.038 SA
BRANCH  21  22
ATOM     22  C9  NON d   1     -46.582  16.935  -5.137  0.00  0.00     0.103 A 
ATOM     23  C10 NON d   1     -46.480  16.882  -3.751  0.00  0.00     0.040 A 
ATOM     24  C11 NON d   1     -47.300  16.006  -3.039  0.00  0.00     0.004 A 
ATOM     25  C12 NON d   1     -48.179  15.183  -3.728  0.00  0.00     0.019 A 
ATOM     26  C13 NON d   1     -48.206  15.275  -5.106  0.00  0.00     0.118 A 
ATOM     27  N2  NON d   1     -47.440  16.134  -5.813  0.00  0.00    -0.253 NA
ENDBRANCH  21  22
ENDBRANCH  20  21
ENDBRANCH  19  20
ENDBRANCH  18  19
ENDBRANCH  17  18
ENDBRANCH  16  17
ENDBRANCH  15  16
ENDBRANCH  14  15
ENDBRANCH   1  14
BRANCH   1  28
ATOM     28  C14 NON d   1     -39.531  21.111  -5.162  0.00  0.00     0.241 C 
ATOM     29  O2  NON d   1     -38.517  21.824  -5.103  0.00  0.00    -0.271 OA
ATOM     30  N3  NON d   1     -40.670  21.396  -4.448  0.00  0.00    -0.304 N 
ATOM     31  H19 NON d   1     -41.367  20.676  -4.316  0.00  0.00     0.171 HD
BRANCH  30  32
ATOM     32  C15 NON d   1     -40.823  22.555  -3.687  0.00  0.00     0.173 C 
ATOM     33  N4  NON d   1     -40.821  22.608  -2.367  0.00  0.00    -0.223 NA
ATOM     34  C16 NON d   1     -40.952  23.944  -1.933  0.00  0.00     0.076 C 
ATOM     35  C23 NON d   1     -41.080  24.857  -2.962  0.00  0.00     0.085 C 
ATOM     36  S3  NON d   1     -41.125  24.062  -4.456  0.00  0.00    -0.061 SA
BRANCH  34  37
ATOM     37  C17 NON d   1     -40.969  24.352  -0.519  0.00  0.00    -0.007 A 
ATOM     38  C18 NON d   1     -40.909  23.395   0.503  0.00  0.00     0.014 A 
ATOM     39  C19 NON d   1     -40.950  23.783   1.850  0.00  0.00     0.001 A 
ATOM     40  C20 NON d   1     -41.052  25.131   2.199  0.00  0.00     0.000 A 
ATOM     41  C21 NON d   1     -41.106  26.096   1.201  0.00  0.00     0.001 A 
ATOM     42  C22 NON d   1     -41.065  25.707  -0.142  0.00  0.00     0.014 A 
ENDBRANCH  34  37
ENDBRANCH  30  32
ENDBRANCH   1  28
TORSDOF 16
ENDMDL
MODEL 2
REMARK VINA RESULT:   -35.571      1.766      2.471
REMARK INTER + INTRA:         -43.319
REMARK INTER:                 -40.344
REMARK INTRA:                  -2.975
REMARK CONF_INDEPENDENT:        4.773
REMARK UNBOUND:                -2.975
REMARK  16 active torsions:
REMARK  status: ('A' for Active; 'I' for Inactive)
REMARK       I    between atoms: C1_2  and  N1_3 
REMARK    1  A    between atoms: C1_2  and  O3_33 
REMARK    2  A    between atoms: C2_4  and  N1_3 
REMARK    3  A    between atoms: C2_4  and  C3_5 
REMARK    4  A    between atoms: C2_4  and  C14_19 
REMARK    5  A    between atoms: C3_5  and  C4_6 
REMARK    6  A    between atoms: C4_6  and  C5_7 
REMARK    7  A    between atoms: C5_7  and  C6_8 
REMARK    8  A    between atoms: C6_8  and  C7_9 
REMARK    9  A    between atoms: C7_9  and  C8_10 
REMARK   10  A    between atoms: C8_10  and  S1_11 
REMARK   11  A    between atoms: S1_11  and  S2_12 
REMARK   12  A    between atoms: S2_12  and  C9_13 
REMARK       I    between atoms: C14_19  and  N3_21 
REMARK   13  A    between atoms: N3_21  and  C15_22 
REMARK   14  A    between atoms: C16_24  and  C17_25 
REMARK   15  A    between atoms: O3_33  and  C24_34 
REMARK   16  A    between atoms: C24_34  and  C25_35 
ROOT
ATOM      1  C2  NON d   1     -39.427  20.896  -7.229  0.00  0.00     0.157 C 
ENDROOT
BRANCH   1   2
ATOM      2  N1  NON d   1     -38.041  20.304  -7.191  0.00  0.00    -0.224 NA
ATOM      3  C1  NON d   1     -37.626  19.331  -8.079  0.00  0.00     0.339 C 
ATOM      4  O1  NON d   1     -38.338  18.419  -8.470  0.00  0.00    -0.245 OA
ATOM      5  H1  NON d   1     -37.325  21.019  -7.134  0.00  0.00     0.133 HD
BRANCH   3   6
ATOM      6  O3  NON d   1     -36.432  19.696  -8.639  0.00  0.00    -0.304 OA
BRANCH   6   7
ATOM      7  C24 NON d   1     -36.413  19.600 -10.082  0.00  0.00     0.218 C 
BRANCH   7   8
ATOM      8  C25 NON d   1     -36.990  20.779 -10.848  0.00  0.00    -0.034 A 
ATOM      9  C26 NON d   1     -36.333  21.214 -12.013  0.00  0.00     0.009 A 
ATOM     10  C27 NON d   1     -36.780  22.328 -12.732  0.00  0.00     0.001 A 
ATOM     11  C28 NON d   1     -37.901  23.026 -12.296  0.00  0.00     0.000 A 
ATOM     12  C29 NON d   1     -38.576  22.602 -11.150  0.00  0.00     0.001 A 
ATOM     13  C30 NON d   1     -38.124  21.486 -10.428  0.00  0.00     0.009 A 
ENDBRANCH   7   8
ENDBRANCH   6   7
ENDBRANCH   3   6
ENDBRANCH   1   2
BRANCH   1  14
ATOM     14  C3  NON d   1     -40.928  20.508  -7.574  0.00  0.00     0.029 C 
BRANCH  14  15
ATOM     15  C4  NON d   1     -41.533  19.425  -6.581  0.00  0.00     0.002 C 
BRANCH  15  16
ATOM     16  C5  NON d   1     -40.581  18.876  -5.482  0.00  0.00     0.000 C 
BRANCH  16  17
ATOM     17  C6  NON d   1     -41.204  18.409  -4.161  0.00  0.00     0.001 C 
BRANCH  17  18
ATOM     18  C7  NON d   1     -42.215  17.263  -4.295  0.00  0.00     0.011 C 
BRANCH  18  19
ATOM     19  C8  NON d   1     -43.626  17.654  -3.874  0.00  0.00     0.086 C 
BRANCH  19  20
ATOM     20  S1  NON d   1     -44.313  18.990  -4.912  0.00  0.00    -0.091 SA
BRANCH  20  21
ATOM     21  S2  NON d   1     -45.598  18.010  -6.180  0.00  0.00    -0.038 SA
BRANCH  21  22
ATOM     22  C9  NON d   1     -46.619  16.921  -5.203  0.00  0.00     0.103 A 
ATOM     23  C10 NON d   1     -46.600  16.856  -3.814  0.00  0.00     0.040 A 
ATOM     24  C11 NON d   1     -47.465  15.978  -3.159  0.00  0.00     0.004 A 
ATOM     25  C12 NON d   1     -48.306  15.166  -3.906  0.00  0.00     0.019 A 
ATOM     26  C13 NON d   1     -48.250  15.269  -5.282  0.00  0.00     0.118 A 
ATOM     27  N2  NON d   1     -47.440  16.130  -5.935  0.00  0.00    -0.253 NA
ENDBRANCH  21  22
ENDBRANCH  20  21
ENDBRANCH  19  20
ENDBRANCH  18  19
ENDBRANCH  17  18
ENDBRANCH  16  17
ENDBRANCH  15  16
ENDBRANCH  14  15
ENDBRANCH   1  14
BRANCH   1  28
ATOM     28  C14 NON d   1     -39.405  21.965  -6.121  0.00  0.00     0.241 C 
ATOM     29  O2  NON d   1     -38.312  22.542  -6.001  0.00  0.00    -0.271 OA
ATOM     30  N3  NON d   1     -40.443  22.170  -5.244  0.00  0.00    -0.304 N 
ATOM     31  H19 NON d   1     -41.206  21.509  -5.214  0.00  0.00     0.171 HD
BRANCH  30  32
ATOM     32  C15 NON d   1     -40.399  23.115  -4.219  0.00  0.00     0.173 C 
ATOM     33  N4  NON d   1     -40.569  22.856  -2.935  0.00  0.00    -0.223 NA
ATOM     34  C16 NON d   1     -40.413  24.035  -2.175  0.00  0.00     0.076 C 
ATOM     35  C23 NON d   1     -40.157  25.160  -2.935  0.00  0.00     0.085 C 
ATOM     36  S3  NON d   1     -40.193  24.782  -4.584  0.00  0.00    -0.061 SA
BRANCH  34  37
ATOM     37  C17 NON d   1     -40.523  24.091  -0.709  0.00  0.00    -0.007 A 
ATOM     38  C18 NON d   1     -40.919  22.963   0.023  0.00  0.00     0.014 A 
ATOM     39  C19 NON d   1     -41.048  23.023   1.418  0.00  0.00     0.001 A 
ATOM     40  C20 NON d   1     -40.786  24.210   2.105  0.00  0.00     0.000 A 
ATOM     41  C21 NON d   1     -40.386  25.338   1.400  0.00  0.00     0.001 A 
ATOM     42  C22 NON d   1     -40.257  25.275   0.009  0.00  0.00     0.014 A 
ENDBRANCH  34  37
ENDBRANCH  30  32
ENDBRANCH   1  28
TORSDOF 16
ENDMDL
MODEL 3
REMARK VINA RESULT:   -35.453      2.304      7.711
REMARK INTER + INTRA:         -42.652
REMARK INTER:                 -40.225
REMARK INTRA:                  -2.427
REMARK CONF_INDEPENDENT:        4.773
REMARK UNBOUND:                -2.427
REMARK  16 active torsions:
REMARK  status: ('A' for Active; 'I' for Inactive)
REMARK       I    between atoms: C1_2  and  N1_3 
REMARK    1  A    between atoms: C1_2  and  O3_33 
REMARK    2  A    between atoms: C2_4  and  N1_3 
REMARK    3  A    between atoms: C2_4  and  C3_5 
REMARK    4  A    between atoms: C2_4  and  C14_19 
REMARK    5  A    between atoms: C3_5  and  C4_6 
REMARK    6  A    between atoms: C4_6  and  C5_7 
REMARK    7  A    between atoms: C5_7  and  C6_8 
REMARK    8  A    between atoms: C6_8  and  C7_9 
REMARK    9  A    between atoms: C7_9  and  C8_10 
REMARK   10  A    between atoms: C8_10  and  S1_11 
REMARK   11  A    between atoms: S1_11  and  S2_12 
REMARK   12  A    between atoms: S2_12  and  C9_13 
REMARK       I    between atoms: C14_19  and  N3_21 
REMARK   13  A    between atoms: N3_21  and  C15_22 
REMARK   14  A    between atoms: C16_24  and  C17_25 
REMARK   15  A    between atoms: O3_33  and  C24_34 
REMARK   16  A    between atoms: C24_34  and  C25_35 
ROOT
ATOM      1  C2  NON d   1     -39.421  21.567  -5.384  0.00  0.00     0.157 C 
ENDROOT
BRANCH   1   2
ATOM      2  N1  NON d   1     -39.087  22.996  -5.042  0.00  0.00    -0.224 NA
ATOM      3  C1  NON d   1     -39.705  23.676  -4.009  0.00  0.00     0.339 C 
ATOM      4  O1  NON d   1     -40.890  23.564  -3.735  0.00  0.00    -0.245 OA
ATOM      5  H1  NON d   1     -38.088  23.147  -4.977  0.00  0.00     0.133 HD
BRANCH   3   6
ATOM      6  O3  NON d   1     -38.760  24.254  -3.206  0.00  0.00    -0.304 OA
BRANCH   6   7
ATOM      7  C24 NON d   1     -39.260  25.367  -2.429  0.00  0.00     0.218 C 
BRANCH   7   8
ATOM      8  C25 NON d   1     -39.861  25.033  -1.073  0.00  0.00    -0.034 A 
ATOM      9  C26 NON d   1     -39.498  23.824  -0.453  0.00  0.00     0.009 A 
ATOM     10  C27 NON d   1     -40.057  23.431   0.768  0.00  0.00     0.001 A 
ATOM     11  C28 NON d   1     -40.992  24.249   1.392  0.00  0.00     0.000 A 
ATOM     12  C29 NON d   1     -41.356  25.459   0.801  0.00  0.00     0.001 A 
ATOM     13  C30 NON d   1     -40.796  25.851  -0.425  0.00  0.00     0.009 A 
ENDBRANCH   7   8
ENDBRANCH   6   7
ENDBRANCH   3   6
ENDBRANCH   1   2
BRANCH   1  14
ATOM     14  C3  NON d   1     -40.270  20.334  -4.853  0.00  0.00     0.029 C 
BRANCH  14  15
ATOM     15  C4  NON d   1     -40.614  20.439  -3.305  0.00  0.00     0.002 C 
BRANCH  15  16
ATOM     16  C5  NON d   1     -40.571  19.116  -2.488  0.00  0.00     0.000 C 
BRANCH  16  17
ATOM     17  C6  NON d   1     -41.645  18.061  -2.775  0.00  0.00     0.001 C 
BRANCH  17  18
ATOM     18  C7  NON d   1     -41.683  17.557  -4.224  0.00  0.00     0.011 C 
BRANCH  18  19
ATOM     19  C8  NON d   1     -43.089  17.234  -4.711  0.00  0.00     0.086 C 
BRANCH  19  20
ATOM     20  S1  NON d   1     -44.078  18.738  -5.022  0.00  0.00    -0.091 SA
BRANCH  20  21
ATOM     21  S2  NON d   1     -45.651  18.061  -6.157  0.00  0.00    -0.038 SA
BRANCH  21  22
ATOM     22  C9  NON d   1     -46.568  16.879  -5.184  0.00  0.00     0.103 A 
ATOM     23  C10 NON d   1     -46.428  16.708  -3.811  0.00  0.00     0.040 A 
ATOM     24  C11 NON d   1     -47.221  15.764  -3.156  0.00  0.00     0.004 A 
ATOM     25  C12 NON d   1     -48.112  14.995  -3.890  0.00  0.00     0.019 A 
ATOM     26  C13 NON d   1     -48.177  15.206  -5.254  0.00  0.00     0.118 A 
ATOM     27  N2  NON d   1     -47.439  16.131  -5.904  0.00  0.00    -0.253 NA
ENDBRANCH  21  22
ENDBRANCH  20  21
ENDBRANCH  19  20
ENDBRANCH  18  19
ENDBRANCH  17  18
ENDBRANCH  16  17
ENDBRANCH  15  16
ENDBRANCH  14  15
ENDBRANCH   1  14
BRANCH   1  28
ATOM     28  C14 NON d   1     -39.348  21.527  -6.921  0.00  0.00     0.241 C 
ATOM     29  O2  NON d   1     -39.449  20.386  -7.400  0.00  0.00    -0.271 OA
ATOM     30  N3  NON d   1     -39.054  22.624  -7.696  0.00  0.00    -0.304 N 
ATOM     31  H19 NON d   1     -38.729  23.472  -7.253  0.00  0.00     0.171 HD
BRANCH  30  32
ATOM     32  C15 NON d   1     -38.953  22.570  -9.086  0.00  0.00     0.173 C 
ATOM     33  N4  NON d   1     -39.555  23.392  -9.927  0.00  0.00    -0.223 NA
ATOM     34  C16 NON d   1     -39.195  23.079 -11.255  0.00  0.00     0.076 C 
ATOM     35  C23 NON d   1     -38.344  21.996 -11.364  0.00  0.00     0.085 C 
ATOM     36  S3  NON d   1     -38.059  21.313  -9.842  0.00  0.00    -0.061 SA
BRANCH  34  37
ATOM     37  C17 NON d   1     -39.679  23.814 -12.434  0.00  0.00    -0.007 A 
ATOM     38  C18 NON d   1     -40.991  24.307 -12.483  0.00  0.00     0.014 A 
ATOM     39  C19 NON d   1     -41.459  24.986 -13.616  0.00  0.00     0.001 A 
ATOM     40  C20 NON d   1     -40.628  25.183 -14.721  0.00  0.00     0.000 A 
ATOM     41  C21 NON d   1     -39.323  24.709 -14.691  0.00  0.00     0.001 A 
ATOM     42  C22 NON d   1     -38.857  24.033 -13.559  0.00  0.00     0.014 A 
ENDBRANCH  34  37
ENDBRANCH  30  32
ENDBRANCH   1  28
TORSDOF 16
ENDMDL
MODEL 4
REMARK VINA RESULT:   -35.095      2.431      3.569
REMARK INTER + INTRA:         -43.278
REMARK INTER:                 -39.868
REMARK INTRA:                  -3.410
REMARK CONF_INDEPENDENT:        4.773
REMARK UNBOUND:                -3.410
REMARK  16 active torsions:
REMARK  status: ('A' for Active; 'I' for Inactive)
REMARK       I    between atoms: C1_2  and  N1_3 
REMARK    1  A    between atoms: C1_2  and  O3_33 
REMARK    2  A    between atoms: C2_4  and  N1_3 
REMARK    3  A    between atoms: C2_4  and  C3_5 
REMARK    4  A    between atoms: C2_4  and  C14_19 
REMARK    5  A    between atoms: C3_5  and  C4_6 
REMARK    6  A    between atoms: C4_6  and  C5_7 
REMARK    7  A    between atoms: C5_7  and  C6_8 
REMARK    8  A    between atoms: C6_8  and  C7_9 
REMARK    9  A    between atoms: C7_9  and  C8_10 
REMARK   10  A    between atoms: C8_10  and  S1_11 
REMARK   11  A    between atoms: S1_11  and  S2_12 
REMARK   12  A    between atoms: S2_12  and  C9_13 
REMARK       I    between atoms: C14_19  and  N3_21 
REMARK   13  A    between atoms: N3_21  and  C15_22 
REMARK   14  A    between atoms: C16_24  and  C17_25 
REMARK   15  A    between atoms: O3_33  and  C24_34 
REMARK   16  A    between atoms: C24_34  and  C25_35 
ROOT
ATOM      1  C2  NON d   1     -39.379  22.039  -3.551  0.00  0.00     0.157 C 
ENDROOT
BRANCH   1   2
ATOM      2  N1  NON d   1     -39.052  22.964  -4.696  0.00  0.00    -0.224 NA
ATOM      3  C1  NON d   1     -37.851  23.640  -4.784  0.00  0.00     0.339 C 
ATOM      4  O1  NON d   1     -37.272  24.126  -3.824  0.00  0.00    -0.245 OA
ATOM      5  H1  NON d   1     -39.253  22.541  -5.594  0.00  0.00     0.133 HD
BRANCH   3   6
ATOM      6  O3  NON d   1     -37.301  23.446  -6.022  0.00  0.00    -0.304 OA
BRANCH   6   7
ATOM      7  C24 NON d   1     -36.878  22.084  -6.263  0.00  0.00     0.218 C 
BRANCH   7   8
ATOM      8  C25 NON d   1     -37.846  21.198  -7.029  0.00  0.00    -0.034 A 
ATOM      9  C26 NON d   1     -37.920  19.834  -6.697  0.00  0.00     0.009 A 
ATOM     10  C27 NON d   1     -38.749  18.953  -7.401  0.00  0.00     0.001 A 
ATOM     11  C28 NON d   1     -39.524  19.428  -8.453  0.00  0.00     0.000 A 
ATOM     12  C29 NON d   1     -39.476  20.782  -8.790  0.00  0.00     0.001 A 
ATOM     13  C30 NON d   1     -38.642  21.663  -8.084  0.00  0.00     0.009 A 
ENDBRANCH   7   8
ENDBRANCH   6   7
ENDBRANCH   3   6
ENDBRANCH   1   2
BRANCH   1  14
ATOM     14  C3  NON d   1     -38.897  20.682  -2.882  0.00  0.00     0.029 C 
BRANCH  14  15
ATOM     15  C4  NON d   1     -40.065  19.913  -2.127  0.00  0.00     0.002 C 
BRANCH  15  16
ATOM     16  C5  NON d   1     -40.902  18.912  -2.972  0.00  0.00     0.000 C 
BRANCH  16  17
ATOM     17  C6  NON d   1     -40.439  18.619  -4.404  0.00  0.00     0.001 C 
BRANCH  17  18
ATOM     18  C7  NON d   1     -41.416  19.061  -5.502  0.00  0.00     0.011 C 
BRANCH  18  19
ATOM     19  C8  NON d   1     -42.835  19.276  -4.991  0.00  0.00     0.086 C 
BRANCH  19  20
ATOM     20  S1  NON d   1     -43.695  17.702  -4.651  0.00  0.00    -0.091 SA
BRANCH  20  21
ATOM     21  S2  NON d   1     -45.408  17.828  -5.779  0.00  0.00    -0.038 SA
BRANCH  21  22
ATOM     22  C9  NON d   1     -46.658  16.818  -5.003  0.00  0.00     0.103 A 
ATOM     23  C10 NON d   1     -46.842  16.705  -3.629  0.00  0.00     0.040 A 
ATOM     24  C11 NON d   1     -47.872  15.900  -3.142  0.00  0.00     0.004 A 
ATOM     25  C12 NON d   1     -48.674  15.204  -4.035  0.00  0.00     0.019 A 
ATOM     26  C13 NON d   1     -48.415  15.348  -5.384  0.00  0.00     0.118 A 
ATOM     27  N2  NON d   1     -47.440  16.141  -5.878  0.00  0.00    -0.253 NA
ENDBRANCH  21  22
ENDBRANCH  20  21
ENDBRANCH  19  20
ENDBRANCH  18  19
ENDBRANCH  17  18
ENDBRANCH  16  17
ENDBRANCH  15  16
ENDBRANCH  14  15
ENDBRANCH   1  14
BRANCH   1  28
ATOM     28  C14 NON d   1     -39.965  22.973  -2.476  0.00  0.00     0.241 C 
ATOM     29  O2  NON d   1     -40.956  22.507  -1.892  0.00  0.00    -0.271 OA
ATOM     30  N3  NON d   1     -39.531  24.260  -2.271  0.00  0.00    -0.304 N 
ATOM     31  H19 NON d   1     -38.899  24.684  -2.936  0.00  0.00     0.171 HD
BRANCH  30  32
ATOM     32  C15 NON d   1     -40.094  25.112  -1.320  0.00  0.00     0.173 C 
ATOM     33  N4  NON d   1     -40.402  24.773  -0.081  0.00  0.00    -0.223 NA
ATOM     34  C16 NON d   1     -40.907  25.890   0.618  0.00  0.00     0.076 C 
ATOM     35  C23 NON d   1     -40.988  27.039  -0.146  0.00  0.00     0.085 C 
ATOM     36  S3  NON d   1     -40.524  26.721  -1.742  0.00  0.00    -0.061 SA
BRANCH  34  37
ATOM     37  C17 NON d   1     -41.330  25.857   2.027  0.00  0.00    -0.007 A 
ATOM     38  C18 NON d   1     -40.985  24.780   2.854  0.00  0.00     0.014 A 
ATOM     39  C19 NON d   1     -41.409  24.738   4.190  0.00  0.00     0.001 A 
ATOM     40  C20 NON d   1     -42.186  25.768   4.722  0.00  0.00     0.000 A 
ATOM     41  C21 NON d   1     -42.535  26.849   3.921  0.00  0.00     0.001 A 
ATOM     42  C22 NON d   1     -42.110  26.889   2.589  0.00  0.00     0.014 A 
ENDBRANCH  34  37
ENDBRANCH  30  32
ENDBRANCH   1  28
TORSDOF 16
ENDMDL
MODEL 5
REMARK VINA RESULT:   -34.864      2.065      2.986
REMARK INTER + INTRA:         -42.183
REMARK INTER:                 -39.637
REMARK INTRA:                  -2.546
REMARK CONF_INDEPENDENT:        4.773
REMARK UNBOUND:                -2.546
REMARK  16 active torsions:
REMARK  status: ('A' for Active; 'I' for Inactive)
REMARK       I    between atoms: C1_2  and  N1_3 
REMARK    1  A    between atoms: C1_2  and  O3_33 
REMARK    2  A    between atoms: C2_4  and  N1_3 
REMARK    3  A    between atoms: C2_4  and  C3_5 
REMARK    4  A    between atoms: C2_4  and  C14_19 
REMARK    5  A    between atoms: C3_5  and  C4_6 
REMARK    6  A    between atoms: C4_6  and  C5_7 
REMARK    7  A    between atoms: C5_7  and  C6_8 
REMARK    8  A    between atoms: C6_8  and  C7_9 
REMARK    9  A    between atoms: C7_9  and  C8_10 
REMARK   10  A    between atoms: C8_10  and  S1_11 
REMARK   11  A    between atoms: S1_11  and  S2_12 
REMARK   12  A    between atoms: S2_12  and  C9_13 
REMARK       I    between atoms: C14_19  and  N3_21 
REMARK   13  A    between atoms: N3_21  and  C15_22 
REMARK   14  A    between atoms: C16_24  and  C17_25 
REMARK   15  A    between atoms: O3_33  and  C24_34 
REMARK   16  A    between atoms: C24_34  and  C25_35 
ROOT
ATOM      1  C2  NON d   1     -38.509  21.519  -8.116  0.00  0.00     0.157 C 
ENDROOT
BRANCH   1   2
ATOM      2  N1  NON d   1     -37.728  22.714  -8.600  0.00  0.00    -0.224 NA
ATOM      3  C1  NON d   1     -37.343  22.865  -9.918  0.00  0.00     0.339 C 
ATOM      4  O1  NON d   1     -36.963  21.945 -10.625  0.00  0.00    -0.245 OA
ATOM      5  H1  NON d   1     -38.131  23.586  -8.277  0.00  0.00     0.133 HD
BRANCH   3   6
ATOM      6  O3  NON d   1     -37.706  24.107 -10.365  0.00  0.00    -0.304 OA
BRANCH   6   7
ATOM      7  C24 NON d   1     -39.130  24.354 -10.304  0.00  0.00     0.218 C 
BRANCH   7   8
ATOM      8  C25 NON d   1     -39.830  24.620 -11.627  0.00  0.00    -0.034 A 
ATOM      9  C26 NON d   1     -39.827  23.612 -12.607  0.00  0.00     0.009 A 
ATOM     10  C27 NON d   1     -40.405  23.814 -13.866  0.00  0.00     0.001 A 
ATOM     11  C28 NON d   1     -41.001  25.035 -14.163  0.00  0.00     0.000 A 
ATOM     12  C29 NON d   1     -41.027  26.044 -13.199  0.00  0.00     0.001 A 
ATOM     13  C30 NON d   1     -40.445  25.841 -11.938  0.00  0.00     0.009 A 
ENDBRANCH   7   8
ENDBRANCH   6   7
ENDBRANCH   3   6
ENDBRANCH   1   2
BRANCH   1  14
ATOM     14  C3  NON d   1     -38.512  19.932  -8.190  0.00  0.00     0.029 C 
BRANCH  14  15
ATOM     15  C4  NON d   1     -39.884  19.291  -7.707  0.00  0.00     0.002 C 
BRANCH  15  16
ATOM     16  C5  NON d   1     -39.975  18.883  -6.209  0.00  0.00     0.000 C 
BRANCH  16  17
ATOM     17  C6  NON d   1     -41.353  18.918  -5.539  0.00  0.00     0.001 C 
BRANCH  17  18
ATOM     18  C7  NON d   1     -41.656  17.723  -4.626  0.00  0.00     0.011 C 
BRANCH  18  19
ATOM     19  C8  NON d   1     -43.146  17.467  -4.445  0.00  0.00     0.086 C 
BRANCH  19  20
ATOM     20  S1  NON d   1     -44.164  18.875  -5.006  0.00  0.00    -0.091 SA
BRANCH  20  21
ATOM     21  S2  NON d   1     -45.603  17.999  -6.183  0.00  0.00    -0.038 SA
BRANCH  21  22
ATOM     22  C9  NON d   1     -46.581  16.921  -5.152  0.00  0.00     0.103 A 
ATOM     23  C10 NON d   1     -46.497  16.864  -3.764  0.00  0.00     0.040 A 
ATOM     24  C11 NON d   1     -47.334  15.994  -3.065  0.00  0.00     0.004 A 
ATOM     25  C12 NON d   1     -48.213  15.182  -3.766  0.00  0.00     0.019 A 
ATOM     26  C13 NON d   1     -48.222  15.278  -5.144  0.00  0.00     0.118 A 
ATOM     27  N2  NON d   1     -47.440  16.130  -5.840  0.00  0.00    -0.253 NA
ENDBRANCH  21  22
ENDBRANCH  20  21
ENDBRANCH  19  20
ENDBRANCH  18  19
ENDBRANCH  17  18
ENDBRANCH  16  17
ENDBRANCH  15  16
ENDBRANCH  14  15
ENDBRANCH   1  14
BRANCH   1  28
ATOM     28  C14 NON d   1     -39.100  21.981  -6.772  0.00  0.00     0.241 C 
ATOM     29  O2  NON d   1     -39.859  22.958  -6.866  0.00  0.00    -0.271 OA
ATOM     30  N3  NON d   1     -38.719  21.462  -5.558  0.00  0.00    -0.304 N 
ATOM     31  H19 NON d   1     -37.917  20.850  -5.508  0.00  0.00     0.171 HD
BRANCH  30  32
ATOM     32  C15 NON d   1     -39.233  21.913  -4.341  0.00  0.00     0.173 C 
ATOM     33  N4  NON d   1     -38.590  21.896  -3.188  0.00  0.00    -0.223 NA
ATOM     34  C16 NON d   1     -39.388  22.469  -2.176  0.00  0.00     0.076 C 
ATOM     35  C23 NON d   1     -40.636  22.874  -2.610  0.00  0.00     0.085 C 
ATOM     36  S3  NON d   1     -40.855  22.472  -4.240  0.00  0.00    -0.061 SA
BRANCH  34  37
ATOM     37  C17 NON d   1     -38.961  22.620  -0.776  0.00  0.00    -0.007 A 
ATOM     38  C18 NON d   1     -39.031  23.864  -0.136  0.00  0.00     0.014 A 
ATOM     39  C19 NON d   1     -38.601  24.012   1.191  0.00  0.00     0.001 A 
ATOM     40  C20 NON d   1     -38.093  22.921   1.899  0.00  0.00     0.000 A 
ATOM     41  C21 NON d   1     -38.021  21.677   1.285  0.00  0.00     0.001 A 
ATOM     42  C22 NON d   1     -38.452  21.532  -0.037  0.00  0.00     0.014 A 
ENDBRANCH  34  37
ENDBRANCH  30  32
ENDBRANCH   1  28
TORSDOF 16
ENDMDL
MODEL 6
REMARK VINA RESULT:   -34.786      1.940      4.260
REMARK INTER + INTRA:         -42.476
REMARK INTER:                 -39.559
REMARK INTRA:                  -2.917
REMARK CONF_INDEPENDENT:        4.773
REMARK UNBOUND:                -2.917
REMARK  16 active torsions:
REMARK  status: ('A' for Active; 'I' for Inactive)
REMARK       I    between atoms: C1_2  and  N1_3 
REMARK    1  A    between atoms: C1_2  and  O3_33 
REMARK    2  A    between atoms: C2_4  and  N1_3 
REMARK    3  A    between atoms: C2_4  and  C3_5 
REMARK    4  A    between atoms: C2_4  and  C14_19 
REMARK    5  A    between atoms: C3_5  and  C4_6 
REMARK    6  A    between atoms: C4_6  and  C5_7 
REMARK    7  A    between atoms: C5_7  and  C6_8 
REMARK    8  A    between atoms: C6_8  and  C7_9 
REMARK    9  A    between atoms: C7_9  and  C8_10 
REMARK   10  A    between atoms: C8_10  and  S1_11 
REMARK   11  A    between atoms: S1_11  and  S2_12 
REMARK   12  A    between atoms: S2_12  and  C9_13 
REMARK       I    between atoms: C14_19  and  N3_21 
REMARK   13  A    between atoms: N3_21  and  C15_22 
REMARK   14  A    between atoms: C16_24  and  C17_25 
REMARK   15  A    between atoms: O3_33  and  C24_34 
REMARK   16  A    between atoms: C24_34  and  C25_35 
ROOT
ATOM      1  C2  NON d   1     -38.538  21.985  -7.346  0.00  0.00     0.157 C 
ENDROOT
BRANCH   1   2
ATOM      2  N1  NON d   1     -37.348  21.296  -6.729  0.00  0.00    -0.224 NA
ATOM      3  C1  NON d   1     -36.959  21.516  -5.422  0.00  0.00     0.339 C 
ATOM      4  O1  NON d   1     -36.999  22.607  -4.875  0.00  0.00    -0.245 OA
ATOM      5  H1  NON d   1     -37.355  20.298  -6.903  0.00  0.00     0.133 HD
BRANCH   3   6
ATOM      6  O3  NON d   1     -36.793  20.317  -4.782  0.00  0.00    -0.304 OA
BRANCH   6   7
ATOM      7  C24 NON d   1     -37.873  19.382  -5.010  0.00  0.00     0.218 C 
BRANCH   7   8
ATOM      8  C25 NON d   1     -38.894  19.238  -3.894  0.00  0.00    -0.034 A 
ATOM      9  C26 NON d   1     -39.216  20.370  -3.124  0.00  0.00     0.009 A 
ATOM     10  C27 NON d   1     -40.106  20.293  -2.046  0.00  0.00     0.001 A 
ATOM     11  C28 NON d   1     -40.691  19.074  -1.722  0.00  0.00     0.000 A 
ATOM     12  C29 NON d   1     -40.396  17.941  -2.482  0.00  0.00     0.001 A 
ATOM     13  C30 NON d   1     -39.501  18.020  -3.561  0.00  0.00     0.009 A 
ENDBRANCH   7   8
ENDBRANCH   6   7
ENDBRANCH   3   6
ENDBRANCH   1   2
BRANCH   1  14
ATOM     14  C3  NON d   1     -39.705  21.734  -8.395  0.00  0.00     0.029 C 
BRANCH  14  15
ATOM     15  C4  NON d   1     -40.623  20.494  -8.017  0.00  0.00     0.002 C 
BRANCH  15  16
ATOM     16  C5  NON d   1     -39.906  19.249  -7.421  0.00  0.00     0.000 C 
BRANCH  16  17
ATOM     17  C6  NON d   1     -40.739  18.276  -6.578  0.00  0.00     0.001 C 
BRANCH  17  18
ATOM     18  C7  NON d   1     -41.616  18.939  -5.507  0.00  0.00     0.011 C 
BRANCH  18  19
ATOM     19  C8  NON d   1     -42.745  18.043  -5.016  0.00  0.00     0.086 C 
BRANCH  19  20
ATOM     20  S1  NON d   1     -44.321  18.948  -4.839  0.00  0.00    -0.091 SA
BRANCH  20  21
ATOM     21  S2  NON d   1     -45.578  18.002  -6.159  0.00  0.00    -0.038 SA
BRANCH  21  22
ATOM     22  C9  NON d   1     -46.605  16.873  -5.235  0.00  0.00     0.103 A 
ATOM     23  C10 NON d   1     -46.579  16.733  -3.851  0.00  0.00     0.040 A 
ATOM     24  C11 NON d   1     -47.450  15.831  -3.239  0.00  0.00     0.004 A 
ATOM     25  C12 NON d   1     -48.303  15.068  -4.023  0.00  0.00     0.019 A 
ATOM     26  C13 NON d   1     -48.255  15.245  -5.392  0.00  0.00     0.118 A 
ATOM     27  N2  NON d   1     -47.439  16.131  -6.003  0.00  0.00    -0.253 NA
ENDBRANCH  21  22
ENDBRANCH  20  21
ENDBRANCH  19  20
ENDBRANCH  18  19
ENDBRANCH  17  18
ENDBRANCH  16  17
ENDBRANCH  15  16
ENDBRANCH  14  15
ENDBRANCH   1  14
BRANCH   1  28
ATOM     28  C14 NON d   1     -39.021  22.948  -6.247  0.00  0.00     0.241 C 
ATOM     29  O2  NON d   1     -38.487  24.067  -6.288  0.00  0.00    -0.271 OA
ATOM     30  N3  NON d   1     -39.857  22.572  -5.223  0.00  0.00    -0.304 N 
ATOM     31  H19 NON d   1     -40.062  21.592  -5.083  0.00  0.00     0.171 HD
BRANCH  30  32
ATOM     32  C15 NON d   1     -40.259  23.442  -4.209  0.00  0.00     0.173 C 
ATOM     33  N4  NON d   1     -40.223  23.175  -2.916  0.00  0.00    -0.223 NA
ATOM     34  C16 NON d   1     -40.659  24.294  -2.175  0.00  0.00     0.076 C 
ATOM     35  C23 NON d   1     -41.041  25.368  -2.957  0.00  0.00     0.085 C 
ATOM     36  S3  NON d   1     -40.946  24.968  -4.599  0.00  0.00    -0.061 SA
BRANCH  34  37
ATOM     37  C17 NON d   1     -40.724  24.335  -0.706  0.00  0.00    -0.007 A 
ATOM     38  C18 NON d   1     -41.362  25.395  -0.046  0.00  0.00     0.014 A 
ATOM     39  C19 NON d   1     -41.402  25.445   1.355  0.00  0.00     0.001 A 
ATOM     40  C20 NON d   1     -40.807  24.441   2.120  0.00  0.00     0.000 A 
ATOM     41  C21 NON d   1     -40.175  23.378   1.486  0.00  0.00     0.001 A 
ATOM     42  C22 NON d   1     -40.136  23.329   0.089  0.00  0.00     0.014 A 
ENDBRANCH  34  37
ENDBRANCH  30  32
ENDBRANCH   1  28
TORSDOF 16
ENDMDL
MODEL 7
REMARK VINA RESULT:   -34.733      2.232      7.842
REMARK INTER + INTRA:         -42.265
REMARK INTER:                 -39.506
REMARK INTRA:                  -2.759
REMARK CONF_INDEPENDENT:        4.773
REMARK UNBOUND:                -2.759
REMARK  16 active torsions:
REMARK  status: ('A' for Active; 'I' for Inactive)
REMARK       I    between atoms: C1_2  and  N1_3 
REMARK    1  A    between atoms: C1_2  and  O3_33 
REMARK    2  A    between atoms: C2_4  and  N1_3 
REMARK    3  A    between atoms: C2_4  and  C3_5 
REMARK    4  A    between atoms: C2_4  and  C14_19 
REMARK    5  A    between atoms: C3_5  and  C4_6 
REMARK    6  A    between atoms: C4_6  and  C5_7 
REMARK    7  A    between atoms: C5_7  and  C6_8 
REMARK    8  A    between atoms: C6_8  and  C7_9 
REMARK    9  A    between atoms: C7_9  and  C8_10 
REMARK   10  A    between atoms: C8_10  and  S1_11 
REMARK   11  A    between atoms: S1_11  and  S2_12 
REMARK   12  A    between atoms: S2_12  and  C9_13 
REMARK       I    between atoms: C14_19  and  N3_21 
REMARK   13  A    between atoms: N3_21  and  C15_22 
REMARK   14  A    between atoms: C16_24  and  C17_25 
REMARK   15  A    between atoms: O3_33  and  C24_34 
REMARK   16  A    between atoms: C24_34  and  C25_35 
ROOT
ATOM      1  C2  NON d   1     -40.058  23.151  -4.397  0.00  0.00     0.157 C 
ENDROOT
BRANCH   1   2
ATOM      2  N1  NON d   1     -39.527  24.326  -3.616  0.00  0.00    -0.224 NA
ATOM      3  C1  NON d   1     -40.316  25.407  -3.274  0.00  0.00     0.339 C 
ATOM      4  O1  NON d   1     -41.167  25.887  -4.007  0.00  0.00    -0.245 OA
ATOM      5  H1  NON d   1     -39.005  24.033  -2.798  0.00  0.00     0.133 HD
BRANCH   3   6
ATOM      6  O3  NON d   1     -40.188  25.667  -1.936  0.00  0.00    -0.304 OA
BRANCH   6   7
ATOM      7  C24 NON d   1     -41.058  24.866  -1.103  0.00  0.00     0.218 C 
BRANCH   7   8
ATOM      8  C25 NON d   1     -41.054  25.182   0.384  0.00  0.00    -0.034 A 
ATOM      9  C26 NON d   1     -40.675  24.174   1.288  0.00  0.00     0.009 A 
ATOM     10  C27 NON d   1     -40.705  24.383   2.671  0.00  0.00     0.001 A 
ATOM     11  C28 NON d   1     -41.115  25.613   3.174  0.00  0.00     0.000 A 
ATOM     12  C29 NON d   1     -41.482  26.632   2.293  0.00  0.00     0.001 A 
ATOM     13  C30 NON d   1     -41.454  26.420   0.906  0.00  0.00     0.009 A 
ENDBRANCH   7   8
ENDBRANCH   6   7
ENDBRANCH   3   6
ENDBRANCH   1   2
BRANCH   1  14
ATOM     14  C3  NON d   1     -41.092  21.952  -4.275  0.00  0.00     0.029 C 
BRANCH  14  15
ATOM     15  C4  NON d   1     -40.519  20.719  -3.452  0.00  0.00     0.002 C 
BRANCH  15  16
ATOM     16  C5  NON d   1     -39.957  19.528  -4.278  0.00  0.00     0.000 C 
BRANCH  16  17
ATOM     17  C6  NON d   1     -40.392  19.403  -5.743  0.00  0.00     0.001 C 
BRANCH  17  18
ATOM     18  C7  NON d   1     -41.877  19.076  -5.948  0.00  0.00     0.011 C 
BRANCH  18  19
ATOM     19  C8  NON d   1     -42.283  17.731  -5.361  0.00  0.00     0.086 C 
BRANCH  19  20
ATOM     20  S1  NON d   1     -43.787  17.848  -4.333  0.00  0.00    -0.091 SA
BRANCH  20  21
ATOM     21  S2  NON d   1     -45.320  17.700  -5.693  0.00  0.00    -0.038 SA
BRANCH  21  22
ATOM     22  C9  NON d   1     -46.615  16.714  -4.963  0.00  0.00     0.103 A 
ATOM     23  C10 NON d   1     -46.794  16.531  -3.595  0.00  0.00     0.040 A 
ATOM     24  C11 NON d   1     -47.861  15.754  -3.143  0.00  0.00     0.004 A 
ATOM     25  C12 NON d   1     -48.706  15.154  -4.066  0.00  0.00     0.019 A 
ATOM     26  C13 NON d   1     -48.450  15.361  -5.407  0.00  0.00     0.118 A 
ATOM     27  N2  NON d   1     -47.439  16.130  -5.866  0.00  0.00    -0.253 NA
ENDBRANCH  21  22
ENDBRANCH  20  21
ENDBRANCH  19  20
ENDBRANCH  18  19
ENDBRANCH  17  18
ENDBRANCH  16  17
ENDBRANCH  15  16
ENDBRANCH  14  15
ENDBRANCH   1  14
BRANCH   1  28
ATOM     28  C14 NON d   1     -39.951  23.603  -5.865  0.00  0.00     0.241 C 
ATOM     29  O2  NON d   1     -39.677  22.685  -6.654  0.00  0.00    -0.271 OA
ATOM     30  N3  NON d   1     -40.009  24.918  -6.260  0.00  0.00    -0.304 N 
ATOM     31  H19 NON d   1     -39.977  25.648  -5.563  0.00  0.00     0.171 HD
BRANCH  30  32
ATOM     32  C15 NON d   1     -39.874  25.320  -7.589  0.00  0.00     0.173 C 
ATOM     33  N4  NON d   1     -40.112  24.562  -8.644  0.00  0.00    -0.223 NA
ATOM     34  C16 NON d   1     -39.920  25.302  -9.830  0.00  0.00     0.076 C 
ATOM     35  C23 NON d   1     -39.508  26.604  -9.616  0.00  0.00     0.085 C 
ATOM     36  S3  NON d   1     -39.276  26.887  -7.963  0.00  0.00    -0.061 SA
BRANCH  34  37
ATOM     37  C17 NON d   1     -40.118  24.758 -11.182  0.00  0.00    -0.007 A 
ATOM     38  C18 NON d   1     -40.699  25.538 -12.191  0.00  0.00     0.014 A 
ATOM     39  C19 NON d   1     -40.910  25.011 -13.473  0.00  0.00     0.001 A 
ATOM     40  C20 NON d   1     -40.546  23.696 -13.769  0.00  0.00     0.000 A 
ATOM     41  C21 NON d   1     -39.963  22.906 -12.785  0.00  0.00     0.001 A 
ATOM     42  C22 NON d   1     -39.753  23.435 -11.508  0.00  0.00     0.014 A 
ENDBRANCH  34  37
ENDBRANCH  30  32
ENDBRANCH   1  28
TORSDOF 16
ENDMDL
MODEL 8
REMARK VINA RESULT:   -34.468      2.257      7.472
REMARK INTER + INTRA:         -42.493
REMARK INTER:                 -39.241
REMARK INTRA:                  -3.252
REMARK CONF_INDEPENDENT:        4.773
REMARK UNBOUND:                -3.252
REMARK  16 active torsions:
REMARK  status: ('A' for Active; 'I' for Inactive)
REMARK       I    between atoms: C1_2  and  N1_3 
REMARK    1  A    between atoms: C1_2  and  O3_33 
REMARK    2  A    between atoms: C2_4  and  N1_3 
REMARK    3  A    between atoms: C2_4  and  C3_5 
REMARK    4  A    between atoms: C2_4  and  C14_19 
REMARK    5  A    between atoms: C3_5  and  C4_6 
REMARK    6  A    between atoms: C4_6  and  C5_7 
REMARK    7  A    between atoms: C5_7  and  C6_8 
REMARK    8  A    between atoms: C6_8  and  C7_9 
REMARK    9  A    between atoms: C7_9  and  C8_10 
REMARK   10  A    between atoms: C8_10  and  S1_11 
REMARK   11  A    between atoms: S1_11  and  S2_12 
REMARK   12  A    between atoms: S2_12  and  C9_13 
REMARK       I    between atoms: C14_19  and  N3_21 
REMARK   13  A    between atoms: N3_21  and  C15_22 
REMARK   14  A    between atoms: C16_24  and  C17_25 
REMARK   15  A    between atoms: O3_33  and  C24_34 
REMARK   16  A    between atoms: C24_34  and  C25_35 
ROOT
ATOM      1  C2  NON d   1     -40.202  22.582  -3.959  0.00  0.00     0.157 C 
ENDROOT
BRANCH   1   2
ATOM      2  N1  NON d   1     -40.236  24.082  -3.812  0.00  0.00    -0.224 NA
ATOM      3  C1  NON d   1     -40.736  24.705  -2.685  0.00  0.00     0.339 C 
ATOM      4  O1  NON d   1     -41.717  24.315  -2.071  0.00  0.00    -0.245 OA
ATOM      5  H1  NON d   1     -39.348  24.507  -4.051  0.00  0.00     0.133 HD
BRANCH   3   6
ATOM      6  O3  NON d   1     -39.833  25.626  -2.228  0.00  0.00    -0.304 OA
BRANCH   6   7
ATOM      7  C24 NON d   1     -38.875  25.085  -1.289  0.00  0.00     0.218 C 
BRANCH   7   8
ATOM      8  C25 NON d   1     -39.265  23.794  -0.588  0.00  0.00    -0.034 A 
ATOM      9  C26 NON d   1     -38.551  22.621  -0.887  0.00  0.00     0.009 A 
ATOM     10  C27 NON d   1     -38.896  21.389  -0.319  0.00  0.00     0.001 A 
ATOM     11  C28 NON d   1     -39.967  21.313   0.564  0.00  0.00     0.000 A 
ATOM     12  C29 NON d   1     -40.681  22.469   0.884  0.00  0.00     0.001 A 
ATOM     13  C30 NON d   1     -40.335  23.703   0.312  0.00  0.00     0.009 A 
ENDBRANCH   7   8
ENDBRANCH   6   7
ENDBRANCH   3   6
ENDBRANCH   1   2
BRANCH   1  14
ATOM     14  C3  NON d   1     -40.928  21.272  -3.433  0.00  0.00     0.029 C 
BRANCH  14  15
ATOM     15  C4  NON d   1     -39.912  20.117  -3.033  0.00  0.00     0.002 C 
BRANCH  15  16
ATOM     16  C5  NON d   1     -40.512  18.696  -2.836  0.00  0.00     0.000 C 
BRANCH  16  17
ATOM     17  C6  NON d   1     -40.551  17.760  -4.051  0.00  0.00     0.001 C 
BRANCH  17  18
ATOM     18  C7  NON d   1     -41.106  18.392  -5.334  0.00  0.00     0.011 C 
BRANCH  18  19
ATOM     19  C8  NON d   1     -42.585  18.743  -5.239  0.00  0.00     0.086 C 
BRANCH  19  20
ATOM     20  S1  NON d   1     -43.641  17.261  -5.084  0.00  0.00    -0.091 SA
BRANCH  20  21
ATOM     21  S2  NON d   1     -45.460  17.880  -5.810  0.00  0.00    -0.038 SA
BRANCH  21  22
ATOM     22  C9  NON d   1     -46.729  16.884  -5.048  0.00  0.00     0.103 A 
ATOM     23  C10 NON d   1     -46.993  16.850  -3.682  0.00  0.00     0.040 A 
ATOM     24  C11 NON d   1     -48.030  16.047  -3.207  0.00  0.00     0.004 A 
ATOM     25  C12 NON d   1     -48.759  15.275  -4.100  0.00  0.00     0.019 A 
ATOM     26  C13 NON d   1     -48.422  15.343  -5.437  0.00  0.00     0.118 A 
ATOM     27  N2  NON d   1     -47.440  16.132  -5.922  0.00  0.00    -0.253 NA
ENDBRANCH  21  22
ENDBRANCH  20  21
ENDBRANCH  19  20
ENDBRANCH  18  19
ENDBRANCH  17  18
ENDBRANCH  16  17
ENDBRANCH  15  16
ENDBRANCH  14  15
ENDBRANCH   1  14
BRANCH   1  28
ATOM     28  C14 NON d   1     -39.704  22.362  -5.400  0.00  0.00     0.241 C 
ATOM     29  O2  NON d   1     -38.964  23.265  -5.819  0.00  0.00    -0.271 OA
ATOM     30  N3  NON d   1     -40.146  21.342  -6.207  0.00  0.00    -0.304 N 
ATOM     31  H19 NON d   1     -40.936  20.783  -5.915  0.00  0.00     0.171 HD
BRANCH  30  32
ATOM     32  C15 NON d   1     -39.718  21.172  -7.524  0.00  0.00     0.173 C 
ATOM     33  N4  NON d   1     -39.868  22.055  -8.494  0.00  0.00    -0.223 NA
ATOM     34  C16 NON d   1     -39.277  21.577  -9.684  0.00  0.00     0.076 C 
ATOM     35  C23 NON d   1     -38.722  20.317  -9.566  0.00  0.00     0.085 C 
ATOM     36  S3  NON d   1     -39.004  19.689  -8.019  0.00  0.00    -0.061 SA
BRANCH  34  37
ATOM     37  C17 NON d   1     -39.253  22.326 -10.950  0.00  0.00    -0.007 A 
ATOM     38  C18 NON d   1     -38.620  21.797 -12.083  0.00  0.00     0.014 A 
ATOM     39  C19 NON d   1     -38.576  22.522 -13.283  0.00  0.00     0.001 A 
ATOM     40  C20 NON d   1     -39.163  23.785 -13.372  0.00  0.00     0.000 A 
ATOM     41  C21 NON d   1     -39.802  24.325 -12.262  0.00  0.00     0.001 A 
ATOM     42  C22 NON d   1     -39.845  23.601 -11.067  0.00  0.00     0.014 A 
ENDBRANCH  34  37
ENDBRANCH  30  32
ENDBRANCH   1  28
TORSDOF 16
ENDMDL
MODEL 9
REMARK VINA RESULT:   -34.254      3.337      6.756
REMARK INTER + INTRA:         -42.617
REMARK INTER:                 -39.027
REMARK INTRA:                  -3.591
REMARK CONF_INDEPENDENT:        4.773
REMARK UNBOUND:                -3.591
REMARK  16 active torsions:
REMARK  status: ('A' for Active; 'I' for Inactive)
REMARK       I    between atoms: C1_2  and  N1_3 
REMARK    1  A    between atoms: C1_2  and  O3_33 
REMARK    2  A    between atoms: C2_4  and  N1_3 
REMARK    3  A    between atoms: C2_4  and  C3_5 
REMARK    4  A    between atoms: C2_4  and  C14_19 
REMARK    5  A    between atoms: C3_5  and  C4_6 
REMARK    6  A    between atoms: C4_6  and  C5_7 
REMARK    7  A    between atoms: C5_7  and  C6_8 
REMARK    8  A    between atoms: C6_8  and  C7_9 
REMARK    9  A    between atoms: C7_9  and  C8_10 
REMARK   10  A    between atoms: C8_10  and  S1_11 
REMARK   11  A    between atoms: S1_11  and  S2_12 
REMARK   12  A    between atoms: S2_12  and  C9_13 
REMARK       I    between atoms: C14_19  and  N3_21 
REMARK   13  A    between atoms: N3_21  and  C15_22 
REMARK   14  A    between atoms: C16_24  and  C17_25 
REMARK   15  A    between atoms: O3_33  and  C24_34 
REMARK   16  A    between atoms: C24_34  and  C25_35 
ROOT
ATOM      1  C2  NON d   1     -39.387  21.170  -6.242  0.00  0.00     0.157 C 
ENDROOT
BRANCH   1   2
ATOM      2  N1  NON d   1     -38.645  22.344  -5.657  0.00  0.00    -0.224 NA
ATOM      3  C1  NON d   1     -37.421  22.764  -6.140  0.00  0.00     0.339 C 
ATOM      4  O1  NON d   1     -36.542  22.005  -6.518  0.00  0.00    -0.245 OA
ATOM      5  H1  NON d   1     -39.245  23.153  -5.543  0.00  0.00     0.133 HD
BRANCH   3   6
ATOM      6  O3  NON d   1     -37.456  24.111  -6.377  0.00  0.00    -0.304 OA
BRANCH   6   7
ATOM      7  C24 NON d   1     -37.029  24.479  -7.709  0.00  0.00     0.218 C 
BRANCH   7   8
ATOM      8  C25 NON d   1     -37.996  25.319  -8.525  0.00  0.00    -0.034 A 
ATOM      9  C26 NON d   1     -39.375  25.196  -8.275  0.00  0.00     0.009 A 
ATOM     10  C27 NON d   1     -40.321  25.899  -9.029  0.00  0.00     0.001 A 
ATOM     11  C28 NON d   1     -39.899  26.744 -10.050  0.00  0.00     0.000 A 
ATOM     12  C29 NON d   1     -38.535  26.892 -10.305  0.00  0.00     0.001 A 
ATOM     13  C30 NON d   1     -37.587  26.184  -9.549  0.00  0.00     0.009 A 
ENDBRANCH   7   8
ENDBRANCH   6   7
ENDBRANCH   3   6
ENDBRANCH   1   2
BRANCH   1  14
ATOM     14  C3  NON d   1     -40.482  20.085  -5.861  0.00  0.00     0.029 C 
BRANCH  14  15
ATOM     15  C4  NON d   1     -41.083  20.294  -4.405  0.00  0.00     0.002 C 
BRANCH  15  16
ATOM     16  C5  NON d   1     -40.701  19.234  -3.333  0.00  0.00     0.000 C 
BRANCH  16  17
ATOM     17  C6  NON d   1     -41.804  18.296  -2.827  0.00  0.00     0.001 C 
BRANCH  17  18
ATOM     18  C7  NON d   1     -42.201  17.183  -3.806  0.00  0.00     0.011 C 
BRANCH  18  19
ATOM     19  C8  NON d   1     -43.664  17.246  -4.225  0.00  0.00     0.086 C 
BRANCH  19  20
ATOM     20  S1  NON d   1     -44.011  18.665  -5.320  0.00  0.00    -0.091 SA
BRANCH  20  21
ATOM     21  S2  NON d   1     -45.812  18.186  -6.185  0.00  0.00    -0.038 SA
BRANCH  21  22
ATOM     22  C9  NON d   1     -46.628  16.991  -5.140  0.00  0.00     0.103 A 
ATOM     23  C10 NON d   1     -46.472  16.911  -3.760  0.00  0.00     0.040 A 
ATOM     24  C11 NON d   1     -47.184  15.946  -3.048  0.00  0.00     0.004 A 
ATOM     25  C12 NON d   1     -48.009  15.064  -3.731  0.00  0.00     0.019 A 
ATOM     26  C13 NON d   1     -48.093  15.190  -5.104  0.00  0.00     0.118 A 
ATOM     27  N2  NON d   1     -47.434  16.133  -5.810  0.00  0.00    -0.253 NA
ENDBRANCH  21  22
ENDBRANCH  20  21
ENDBRANCH  19  20
ENDBRANCH  18  19
ENDBRANCH  17  18
ENDBRANCH  16  17
ENDBRANCH  15  16
ENDBRANCH  14  15
ENDBRANCH   1  14
BRANCH   1  28
ATOM     28  C14 NON d   1     -39.477  21.499  -7.743  0.00  0.00     0.241 C 
ATOM     29  O2  NON d   1     -40.562  21.190  -8.262  0.00  0.00    -0.271 OA
ATOM     30  N3  NON d   1     -38.415  21.959  -8.484  0.00  0.00    -0.304 N 
ATOM     31  H19 NON d   1     -37.488  21.953  -8.082  0.00  0.00     0.171 HD
BRANCH  30  32
ATOM     32  C15 NON d   1     -38.496  22.219  -9.853  0.00  0.00     0.173 C 
ATOM     33  N4  NON d   1     -39.368  23.030 -10.424  0.00  0.00    -0.223 NA
ATOM     34  C16 NON d   1     -39.135  23.094 -11.815  0.00  0.00     0.076 C 
ATOM     35  C23 NON d   1     -38.097  22.289 -12.246  0.00  0.00     0.085 C 
ATOM     36  S3  NON d   1     -37.468  21.394 -10.955  0.00  0.00    -0.061 SA
BRANCH  34  37
ATOM     37  C17 NON d   1     -39.921  23.920 -12.744  0.00  0.00    -0.007 A 
ATOM     38  C18 NON d   1     -41.080  24.579 -12.312  0.00  0.00     0.014 A 
ATOM     39  C19 NON d   1     -41.842  25.347 -13.205  0.00  0.00     0.001 A 
ATOM     40  C20 NON d   1     -41.461  25.469 -14.542  0.00  0.00     0.000 A 
ATOM     41  C21 NON d   1     -40.312  24.829 -14.990  0.00  0.00     0.001 A 
ATOM     42  C22 NON d   1     -39.553  24.064 -14.098  0.00  0.00     0.014 A 
ENDBRANCH  34  37
ENDBRANCH  30  32
ENDBRANCH   1  28
TORSDOF 16
ENDMDL
