MODEL 1
REMARK VINA RESULT:   -34.798      0.000      0.000
REMARK INTER + INTRA:         -37.334
REMARK INTER:                 -36.290
REMARK INTRA:                  -1.044
REMARK CONF_INDEPENDENT:        1.492
REMARK UNBOUND:                -1.044
REMARK  5 active torsions:
REMARK  status: ('A' for Active; 'I' for Inactive)
REMARK    1  A    between atoms: N1_1  and  C1_2 
REMARK    2  A    between atoms: C6_7  and  N2_8 
REMARK       I    between atoms: N2_8  and  C7_9 
REMARK    3  A    between atoms: C7_9  and  C8_11 
REMARK    4  A    between atoms: C11_14  and  C12_15 
REMARK    5  A    between atoms: C12_15  and  C13_16 
ROOT
ATOM      1  C8  NON d   1     -43.864  17.983  -4.750  0.00  0.00     0.032 A 
ATOM      2  C9  NON d   1     -43.503  19.133  -5.461  0.00  0.00     0.017 A 
ATOM      3  C10 NON d   1     -42.169  19.526  -5.549  0.00  0.00     0.008 A 
ATOM      4  C11 NON d   1     -41.139  18.790  -4.936  0.00  0.00    -0.057 A 
ATOM      5  C22 NON d   1     -41.493  17.619  -4.262  0.00  0.00     0.008 A 
ATOM      6  C23 NON d   1     -42.847  17.227  -4.150  0.00  0.00     0.017 A 
ENDROOT
BRANCH   1   7
ATOM      7  C7  NON d   1     -45.319  17.624  -4.763  0.00  0.00     0.256 C 
ATOM      8  N2  NON d   1     -45.847  17.041  -3.627  0.00  0.00    -0.321 N 
ATOM      9  H7  NON d   1     -45.268  16.942  -2.805  0.00  0.00     0.169 HD
ATOM     10  O1  NON d   1     -45.951  17.873  -5.785  0.00  0.00    -0.267 OA
BRANCH   8  11
ATOM     11  C6  NON d   1     -47.200  16.664  -3.414  0.00  0.00     0.056 A 
ATOM     12  C5  NON d   1     -47.838  16.719  -2.170  0.00  0.00     0.031 A 
ATOM     13  C4  NON d   1     -49.152  16.265  -2.022  0.00  0.00     0.002 A 
ATOM     14  C3  NON d   1     -49.837  15.738  -3.111  0.00  0.00     0.002 A 
ATOM     15  C2  NON d   1     -49.216  15.681  -4.360  0.00  0.00     0.025 A 
ATOM     16  C1  NON d   1     -47.915  16.175  -4.530  0.00  0.00     0.033 A 
BRANCH  16  17
ATOM     17  N1  NON d   1     -47.307  16.130  -5.810  0.00  0.00    -0.301 NA
ATOM     18  H1  NON d   1     -47.282  17.050  -6.244  0.00  0.00     0.124 HD
ATOM     19  H2  NON d   1     -46.362  15.765  -5.727  0.00  0.00     0.124 HD
ENDBRANCH  16  17
ENDBRANCH   8  11
ENDBRANCH   1   7
BRANCH   4  20
ATOM     20  C12 NON d   1     -39.741  19.317  -5.170  0.00  0.00     0.051 C 
BRANCH  20  21
ATOM     21  C13 NON d   1     -39.286  20.193  -6.335  0.00  0.00     0.069 C 
ATOM     22  C14 NON d   1     -39.322  19.698  -7.791  0.00  0.00     0.052 C 
ATOM     23  C15 NON d   1     -39.403  20.988  -8.564  0.00  0.00    -0.043 A 
ATOM     24  C16 NON d   1     -39.176  21.200  -9.914  0.00  0.00     0.008 A 
ATOM     25  C20 NON d   1     -39.779  22.060  -7.757  0.00  0.00     0.016 A 
ATOM     26  C17 NON d   1     -39.291  22.504 -10.414  0.00  0.00     0.001 A 
ATOM     27  C18 NON d   1     -39.635  23.577  -9.572  0.00  0.00     0.001 A 
ATOM     28  C19 NON d   1     -39.892  23.357  -8.220  0.00  0.00     0.015 A 
ATOM     29  C21 NON d   1     -39.917  21.568  -6.393  0.00  0.00     0.164 C 
ATOM     30  O2  NON d   1     -40.360  22.225  -5.470  0.00  0.00    -0.292 OA
ENDBRANCH  20  21
ENDBRANCH   4  20
TORSDOF 5
ENDMDL
MODEL 2
REMARK VINA RESULT:   -34.795      1.210      1.684
REMARK INTER + INTRA:         -37.446
REMARK INTER:                 -36.286
REMARK INTRA:                  -1.160
REMARK CONF_INDEPENDENT:        1.492
REMARK UNBOUND:                -1.160
REMARK  5 active torsions:
REMARK  status: ('A' for Active; 'I' for Inactive)
REMARK    1  A    between atoms: N1_1  and  C1_2 
REMARK    2  A    between atoms: C6_7  and  N2_8 
REMARK       I    between atoms: N2_8  and  C7_9 
REMARK    3  A    between atoms: C7_9  and  C8_11 
REMARK    4  A    between atoms: C11_14  and  C12_15 
REMARK    5  A    between atoms: C12_15  and  C13_16 
ROOT
ATOM      1  C8  NON d   1     -43.859  17.724  -5.089  0.00  0.00     0.032 A 
ATOM      2  C9  NON d   1     -42.652  17.018  -5.146  0.00  0.00     0.017 A 
ATOM      3  C10 NON d   1     -41.435  17.692  -5.194  0.00  0.00     0.008 A 
ATOM      4  C11 NON d   1     -41.366  19.097  -5.187  0.00  0.00    -0.057 A 
ATOM      5  C22 NON d   1     -42.567  19.803  -5.088  0.00  0.00     0.008 A 
ATOM      6  C23 NON d   1     -43.808  19.125  -5.060  0.00  0.00     0.017 A 
ENDROOT
BRANCH   1   7
ATOM      7  C7  NON d   1     -45.107  16.901  -4.987  0.00  0.00     0.256 C 
ATOM      8  N2  NON d   1     -46.015  17.230  -4.000  0.00  0.00    -0.321 N 
ATOM      9  H7  NON d   1     -45.854  18.049  -3.430  0.00  0.00     0.169 HD
ATOM     10  O1  NON d   1     -45.244  15.984  -5.792  0.00  0.00    -0.267 OA
BRANCH   8  11
ATOM     11  C6  NON d   1     -47.271  16.612  -3.757  0.00  0.00     0.056 A 
ATOM     12  C5  NON d   1     -47.830  16.452  -2.485  0.00  0.00     0.031 A 
ATOM     13  C4  NON d   1     -49.038  15.770  -2.316  0.00  0.00     0.002 A 
ATOM     14  C3  NON d   1     -49.694  15.228  -3.416  0.00  0.00     0.002 A 
ATOM     15  C2  NON d   1     -49.153  15.383  -4.692  0.00  0.00     0.025 A 
ATOM     16  C1  NON d   1     -47.965  16.104  -4.878  0.00  0.00     0.033 A 
BRANCH  16  17
ATOM     17  N1  NON d   1     -47.440  16.272  -6.185  0.00  0.00    -0.301 NA
ATOM     18  H1  NON d   1     -46.898  17.129  -6.262  0.00  0.00     0.124 HD
ATOM     19  H2  NON d   1     -46.857  15.475  -6.424  0.00  0.00     0.124 HD
ENDBRANCH  16  17
ENDBRANCH   8  11
ENDBRANCH   1   7
BRANCH   4  20
ATOM     20  C12 NON d   1     -39.969  19.676  -5.190  0.00  0.00     0.051 C 
BRANCH  20  21
ATOM     21  C13 NON d   1     -39.339  20.518  -6.298  0.00  0.00     0.069 C 
ATOM     22  C14 NON d   1     -37.855  20.386  -6.680  0.00  0.00     0.052 C 
ATOM     23  C15 NON d   1     -37.849  20.877  -8.104  0.00  0.00    -0.043 A 
ATOM     24  C16 NON d   1     -36.767  21.259  -8.880  0.00  0.00     0.008 A 
ATOM     25  C20 NON d   1     -39.129  20.904  -8.655  0.00  0.00     0.016 A 
ATOM     26  C17 NON d   1     -37.007  21.705 -10.187  0.00  0.00     0.001 A 
ATOM     27  C18 NON d   1     -38.312  21.760 -10.708  0.00  0.00     0.001 A 
ATOM     28  C19 NON d   1     -39.397  21.346  -9.936  0.00  0.00     0.015 A 
ATOM     29  C21 NON d   1     -40.071  20.490  -7.623  0.00  0.00     0.164 C 
ATOM     30  O2  NON d   1     -41.253  20.284  -7.818  0.00  0.00    -0.292 OA
ENDBRANCH  20  21
ENDBRANCH   4  20
TORSDOF 5
ENDMDL
MODEL 3
REMARK VINA RESULT:   -34.621      1.134      1.571
REMARK INTER + INTRA:         -37.529
REMARK INTER:                 -36.112
REMARK INTRA:                  -1.416
REMARK CONF_INDEPENDENT:        1.492
REMARK UNBOUND:                -1.416
REMARK  5 active torsions:
REMARK  status: ('A' for Active; 'I' for Inactive)
REMARK    1  A    between atoms: N1_1  and  C1_2 
REMARK    2  A    between atoms: C6_7  and  N2_8 
REMARK       I    between atoms: N2_8  and  C7_9 
REMARK    3  A    between atoms: C7_9  and  C8_11 
REMARK    4  A    between atoms: C11_14  and  C12_15 
REMARK    5  A    between atoms: C12_15  and  C13_16 
ROOT
ATOM      1  C8  NON d   1     -44.034  17.502  -4.832  0.00  0.00     0.032 A 
ATOM      2  C9  NON d   1     -44.091  18.871  -5.115  0.00  0.00     0.017 A 
ATOM      3  C10 NON d   1     -42.925  19.605  -5.315  0.00  0.00     0.008 A 
ATOM      4  C11 NON d   1     -41.653  19.008  -5.243  0.00  0.00    -0.057 A 
ATOM      5  C22 NON d   1     -41.596  17.633  -5.002  0.00  0.00     0.008 A 
ATOM      6  C23 NON d   1     -42.776  16.887  -4.777  0.00  0.00     0.017 A 
ENDROOT
BRANCH   1   7
ATOM      7  C7  NON d   1     -45.350  16.798  -4.687  0.00  0.00     0.256 C 
ATOM      8  N2  NON d   1     -46.188  17.206  -3.669  0.00  0.00    -0.321 N 
ATOM      9  H7  NON d   1     -45.932  18.004  -3.103  0.00  0.00     0.169 HD
ATOM     10  O1  NON d   1     -45.600  15.902  -5.489  0.00  0.00    -0.267 OA
BRANCH   8  11
ATOM     11  C6  NON d   1     -47.487  16.707  -3.383  0.00  0.00     0.056 A 
ATOM     12  C5  NON d   1     -47.993  16.542  -2.089  0.00  0.00     0.031 A 
ATOM     13  C4  NON d   1     -49.255  15.978  -1.883  0.00  0.00     0.002 A 
ATOM     14  C3  NON d   1     -50.020  15.559  -2.967  0.00  0.00     0.002 A 
ATOM     15  C2  NON d   1     -49.532  15.722  -4.264  0.00  0.00     0.025 A 
ATOM     16  C1  NON d   1     -48.287  16.327  -4.484  0.00  0.00     0.033 A 
BRANCH  16  17
ATOM     17  N1  NON d   1     -47.815  16.505  -5.810  0.00  0.00    -0.301 NA
ATOM     18  H1  NON d   1     -47.122  17.249  -5.863  0.00  0.00     0.124 HD
ATOM     19  H2  NON d   1     -47.412  15.637  -6.149  0.00  0.00     0.124 HD
ENDBRANCH  16  17
ENDBRANCH   8  11
ENDBRANCH   1   7
BRANCH   4  20
ATOM     20  C12 NON d   1     -40.489  19.929  -5.537  0.00  0.00     0.051 C 
BRANCH  20  21
ATOM     21  C13 NON d   1     -40.418  20.971  -6.650  0.00  0.00     0.069 C 
ATOM     22  C14 NON d   1     -39.555  22.239  -6.527  0.00  0.00     0.052 C 
ATOM     23  C15 NON d   1     -39.306  22.595  -7.969  0.00  0.00    -0.043 A 
ATOM     24  C16 NON d   1     -38.837  23.787  -8.494  0.00  0.00     0.008 A 
ATOM     25  C20 NON d   1     -39.584  21.532  -8.827  0.00  0.00     0.016 A 
ATOM     26  C17 NON d   1     -38.701  23.897  -9.885  0.00  0.00     0.001 A 
ATOM     27  C18 NON d   1     -39.024  22.823 -10.734  0.00  0.00     0.001 A 
ATOM     28  C19 NON d   1     -39.468  21.614 -10.202  0.00  0.00     0.015 A 
ATOM     29  C21 NON d   1     -40.088  20.426  -8.023  0.00  0.00     0.164 C 
ATOM     30  O2  NON d   1     -40.300  19.309  -8.454  0.00  0.00    -0.292 OA
ENDBRANCH  20  21
ENDBRANCH   4  20
TORSDOF 5
ENDMDL
MODEL 4
REMARK VINA RESULT:   -34.554      1.835      2.479
REMARK INTER + INTRA:         -36.308
REMARK INTER:                 -36.046
REMARK INTRA:                  -0.262
REMARK CONF_INDEPENDENT:        1.492
REMARK UNBOUND:                -0.262
REMARK  5 active torsions:
REMARK  status: ('A' for Active; 'I' for Inactive)
REMARK    1  A    between atoms: N1_1  and  C1_2 
REMARK    2  A    between atoms: C6_7  and  N2_8 
REMARK       I    between atoms: N2_8  and  C7_9 
REMARK    3  A    between atoms: C7_9  and  C8_11 
REMARK    4  A    between atoms: C11_14  and  C12_15 
REMARK    5  A    between atoms: C12_15  and  C13_16 
ROOT
ATOM      1  C8  NON d   1     -44.125  17.703  -4.412  0.00  0.00     0.032 A 
ATOM      2  C9  NON d   1     -43.843  18.615  -5.435  0.00  0.00     0.017 A 
ATOM      3  C10 NON d   1     -42.729  19.447  -5.358  0.00  0.00     0.008 A 
ATOM      4  C11 NON d   1     -41.848  19.406  -4.262  0.00  0.00    -0.057 A 
ATOM      5  C22 NON d   1     -42.104  18.466  -3.261  0.00  0.00     0.008 A 
ATOM      6  C23 NON d   1     -43.246  17.634  -3.322  0.00  0.00     0.017 A 
ENDROOT
BRANCH   1   7
ATOM      7  C7  NON d   1     -45.318  16.819  -4.620  0.00  0.00     0.256 C 
ATOM      8  N2  NON d   1     -46.335  16.883  -3.688  0.00  0.00    -0.321 N 
ATOM      9  H7  NON d   1     -46.285  17.565  -2.944  0.00  0.00     0.169 HD
ATOM     10  O1  NON d   1     -45.316  16.094  -5.611  0.00  0.00    -0.267 OA
BRANCH   8  11
ATOM     11  C6  NON d   1     -47.563  16.169  -3.717  0.00  0.00     0.056 A 
ATOM     12  C5  NON d   1     -48.245  15.743  -2.572  0.00  0.00     0.031 A 
ATOM     13  C4  NON d   1     -49.414  14.983  -2.679  0.00  0.00     0.002 A 
ATOM     14  C3  NON d   1     -49.905  14.628  -3.931  0.00  0.00     0.002 A 
ATOM     15  C2  NON d   1     -49.239  15.050  -5.082  0.00  0.00     0.025 A 
ATOM     16  C1  NON d   1     -48.092  15.851  -4.987  0.00  0.00     0.033 A 
BRANCH  16  17
ATOM     17  N1  NON d   1     -47.440  16.290  -6.168  0.00  0.00    -0.301 NA
ATOM     18  H1  NON d   1     -48.019  16.142  -6.991  0.00  0.00     0.124 HD
ATOM     19  H2  NON d   1     -47.210  17.276  -6.085  0.00  0.00     0.124 HD
ENDBRANCH  16  17
ENDBRANCH   8  11
ENDBRANCH   1   7
BRANCH   4  20
ATOM     20  C12 NON d   1     -40.658  20.334  -4.355  0.00  0.00     0.051 C 
BRANCH  20  21
ATOM     21  C13 NON d   1     -39.466  20.187  -5.298  0.00  0.00     0.069 C 
ATOM     22  C14 NON d   1     -38.326  19.190  -5.025  0.00  0.00     0.052 C 
ATOM     23  C15 NON d   1     -37.776  18.950  -6.407  0.00  0.00    -0.043 A 
ATOM     24  C16 NON d   1     -36.570  18.373  -6.766  0.00  0.00     0.008 A 
ATOM     25  C20 NON d   1     -38.657  19.370  -7.402  0.00  0.00     0.016 A 
ATOM     26  C17 NON d   1     -36.257  18.272  -8.128  0.00  0.00     0.001 A 
ATOM     27  C18 NON d   1     -37.146  18.736  -9.114  0.00  0.00     0.001 A 
ATOM     28  C19 NON d   1     -38.373  19.290  -8.752  0.00  0.00     0.015 A 
ATOM     29  C21 NON d   1     -39.818  19.963  -6.753  0.00  0.00     0.164 C 
ATOM     30  O2  NON d   1     -40.827  20.309  -7.338  0.00  0.00    -0.292 OA
ENDBRANCH  20  21
ENDBRANCH   4  20
TORSDOF 5
ENDMDL
MODEL 5
REMARK VINA RESULT:   -34.520      3.088      4.636
REMARK INTER + INTRA:         -37.101
REMARK INTER:                 -36.012
REMARK INTRA:                  -1.090
REMARK CONF_INDEPENDENT:        1.492
REMARK UNBOUND:                -1.090
REMARK  5 active torsions:
REMARK  status: ('A' for Active; 'I' for Inactive)
REMARK    1  A    between atoms: N1_1  and  C1_2 
REMARK    2  A    between atoms: C6_7  and  N2_8 
REMARK       I    between atoms: N2_8  and  C7_9 
REMARK    3  A    between atoms: C7_9  and  C8_11 
REMARK    4  A    between atoms: C11_14  and  C12_15 
REMARK    5  A    between atoms: C12_15  and  C13_16 
ROOT
ATOM      1  C8  NON d   1     -43.918  17.802  -4.939  0.00  0.00     0.032 A 
ATOM      2  C9  NON d   1     -42.761  17.210  -4.420  0.00  0.00     0.017 A 
ATOM      3  C10 NON d   1     -41.565  17.920  -4.358  0.00  0.00     0.008 A 
ATOM      4  C11 NON d   1     -41.470  19.250  -4.808  0.00  0.00    -0.057 A 
ATOM      5  C22 NON d   1     -42.633  19.856  -5.287  0.00  0.00     0.008 A 
ATOM      6  C23 NON d   1     -43.846  19.133  -5.373  0.00  0.00     0.017 A 
ENDROOT
BRANCH   1   7
ATOM      7  C7  NON d   1     -45.162  16.966  -4.911  0.00  0.00     0.256 C 
ATOM      8  N2  NON d   1     -46.090  17.228  -3.922  0.00  0.00    -0.321 N 
ATOM      9  H7  NON d   1     -45.945  18.011  -3.300  0.00  0.00     0.169 HD
ATOM     10  O1  NON d   1     -45.278  16.100  -5.774  0.00  0.00    -0.267 OA
BRANCH   8  11
ATOM     11  C6  NON d   1     -47.346  16.589  -3.742  0.00  0.00     0.056 A 
ATOM     12  C5  NON d   1     -47.939  16.373  -2.494  0.00  0.00     0.031 A 
ATOM     13  C4  NON d   1     -49.145  15.674  -2.388  0.00  0.00     0.002 A 
ATOM     14  C3  NON d   1     -49.763  15.169  -3.528  0.00  0.00     0.002 A 
ATOM     15  C2  NON d   1     -49.187  15.381  -4.780  0.00  0.00     0.025 A 
ATOM     16  C1  NON d   1     -48.001  16.120  -4.902  0.00  0.00     0.033 A 
BRANCH  16  17
ATOM     17  N1  NON d   1     -47.440  16.344  -6.185  0.00  0.00    -0.301 NA
ATOM     18  H1  NON d   1     -47.040  17.277  -6.259  0.00  0.00     0.124 HD
ATOM     19  H2  NON d   1     -46.724  15.649  -6.372  0.00  0.00     0.124 HD
ENDBRANCH  16  17
ENDBRANCH   8  11
ENDBRANCH   1   7
BRANCH   4  20
ATOM     20  C12 NON d   1     -40.116  19.899  -4.622  0.00  0.00     0.051 C 
BRANCH  20  21
ATOM     21  C13 NON d   1     -39.688  20.783  -3.453  0.00  0.00     0.069 C 
ATOM     22  C14 NON d   1     -40.012  22.286  -3.403  0.00  0.00     0.052 C 
ATOM     23  C15 NON d   1     -39.980  22.569  -1.924  0.00  0.00    -0.043 A 
ATOM     24  C16 NON d   1     -39.913  23.795  -1.283  0.00  0.00     0.008 A 
ATOM     25  C20 NON d   1     -40.052  21.403  -1.165  0.00  0.00     0.016 A 
ATOM     26  C17 NON d   1     -39.874  23.815   0.117  0.00  0.00     0.001 A 
ATOM     27  C18 NON d   1     -39.909  22.622   0.862  0.00  0.00     0.001 A 
ATOM     28  C19 NON d   1     -40.007  21.391   0.216  0.00  0.00     0.015 A 
ATOM     29  C21 NON d   1     -40.078  20.271  -2.082  0.00  0.00     0.164 C 
ATOM     30  O2  NON d   1     -40.269  19.119  -1.742  0.00  0.00    -0.292 OA
ENDBRANCH  20  21
ENDBRANCH   4  20
TORSDOF 5
ENDMDL
MODEL 6
REMARK VINA RESULT:   -33.930      2.581      3.775
REMARK INTER + INTRA:         -36.589
REMARK INTER:                 -35.421
REMARK INTRA:                  -1.168
REMARK CONF_INDEPENDENT:        1.492
REMARK UNBOUND:                -1.168
REMARK  5 active torsions:
REMARK  status: ('A' for Active; 'I' for Inactive)
REMARK    1  A    between atoms: N1_1  and  C1_2 
REMARK    2  A    between atoms: C6_7  and  N2_8 
REMARK       I    between atoms: N2_8  and  C7_9 
REMARK    3  A    between atoms: C7_9  and  C8_11 
REMARK    4  A    between atoms: C11_14  and  C12_15 
REMARK    5  A    between atoms: C12_15  and  C13_16 
ROOT
ATOM      1  C8  NON d   1     -43.889  17.772  -5.062  0.00  0.00     0.032 A 
ATOM      2  C9  NON d   1     -42.675  17.077  -5.055  0.00  0.00     0.017 A 
ATOM      3  C10 NON d   1     -41.463  17.763  -5.085  0.00  0.00     0.008 A 
ATOM      4  C11 NON d   1     -41.409  19.168  -5.121  0.00  0.00    -0.057 A 
ATOM      5  C22 NON d   1     -42.620  19.864  -5.085  0.00  0.00     0.008 A 
ATOM      6  C23 NON d   1     -43.854  19.173  -5.077  0.00  0.00     0.017 A 
ENDROOT
BRANCH   1   7
ATOM      7  C7  NON d   1     -45.132  16.938  -4.974  0.00  0.00     0.256 C 
ATOM      8  N2  NON d   1     -46.045  17.248  -3.986  0.00  0.00    -0.321 N 
ATOM      9  H7  NON d   1     -45.892  18.060  -3.404  0.00  0.00     0.169 HD
ATOM     10  O1  NON d   1     -45.260  16.031  -5.792  0.00  0.00    -0.267 OA
BRANCH   8  11
ATOM     11  C6  NON d   1     -47.297  16.617  -3.756  0.00  0.00     0.056 A 
ATOM     12  C5  NON d   1     -47.867  16.452  -2.488  0.00  0.00     0.031 A 
ATOM     13  C4  NON d   1     -49.070  15.758  -2.332  0.00  0.00     0.002 A 
ATOM     14  C3  NON d   1     -49.711  15.210  -3.438  0.00  0.00     0.002 A 
ATOM     15  C2  NON d   1     -49.159  15.371  -4.709  0.00  0.00     0.025 A 
ATOM     16  C1  NON d   1     -47.976  16.103  -4.883  0.00  0.00     0.033 A 
BRANCH  16  17
ATOM     17  N1  NON d   1     -47.440  16.277  -6.185  0.00  0.00    -0.301 NA
ATOM     18  H1  NON d   1     -46.993  17.185  -6.287  0.00  0.00     0.124 HD
ATOM     19  H2  NON d   1     -46.767  15.540  -6.379  0.00  0.00     0.124 HD
ENDBRANCH  16  17
ENDBRANCH   8  11
ENDBRANCH   1   7
BRANCH   4  20
ATOM     20  C12 NON d   1     -40.018  19.762  -5.096  0.00  0.00     0.051 C 
BRANCH  20  21
ATOM     21  C13 NON d   1     -39.567  20.979  -4.291  0.00  0.00     0.069 C 
ATOM     22  C14 NON d   1     -39.641  22.407  -4.859  0.00  0.00     0.052 C 
ATOM     23  C15 NON d   1     -39.709  23.244  -3.609  0.00  0.00    -0.043 A 
ATOM     24  C16 NON d   1     -39.503  24.606  -3.471  0.00  0.00     0.008 A 
ATOM     25  C20 NON d   1     -40.047  22.487  -2.489  0.00  0.00     0.016 A 
ATOM     26  C17 NON d   1     -39.600  25.171  -2.192  0.00  0.00     0.001 A 
ATOM     27  C18 NON d   1     -39.906  24.379  -1.070  0.00  0.00     0.001 A 
ATOM     28  C19 NON d   1     -40.142  23.013  -1.215  0.00  0.00     0.015 A 
ATOM     29  C21 NON d   1     -40.170  21.097  -2.907  0.00  0.00     0.164 C 
ATOM     30  O2  NON d   1     -40.582  20.201  -2.194  0.00  0.00    -0.292 OA
ENDBRANCH  20  21
ENDBRANCH   4  20
TORSDOF 5
ENDMDL
MODEL 7
REMARK VINA RESULT:   -33.837      1.358      2.024
REMARK INTER + INTRA:         -36.412
REMARK INTER:                 -35.328
REMARK INTRA:                  -1.084
REMARK CONF_INDEPENDENT:        1.492
REMARK UNBOUND:                -1.084
REMARK  5 active torsions:
REMARK  status: ('A' for Active; 'I' for Inactive)
REMARK    1  A    between atoms: N1_1  and  C1_2 
REMARK    2  A    between atoms: C6_7  and  N2_8 
REMARK       I    between atoms: N2_8  and  C7_9 
REMARK    3  A    between atoms: C7_9  and  C8_11 
REMARK    4  A    between atoms: C11_14  and  C12_15 
REMARK    5  A    between atoms: C12_15  and  C13_16 
ROOT
ATOM      1  C8  NON d   1     -43.941  17.753  -4.796  0.00  0.00     0.032 A 
ATOM      2  C9  NON d   1     -42.888  17.282  -4.004  0.00  0.00     0.017 A 
ATOM      3  C10 NON d   1     -41.712  18.017  -3.873  0.00  0.00     0.008 A 
ATOM      4  C11 NON d   1     -41.535  19.252  -4.524  0.00  0.00    -0.057 A 
ATOM      5  C22 NON d   1     -42.601  19.743  -5.280  0.00  0.00     0.008 A 
ATOM      6  C23 NON d   1     -43.789  18.992  -5.435  0.00  0.00     0.017 A 
ENDROOT
BRANCH   1   7
ATOM      7  C7  NON d   1     -45.179  16.910  -4.824  0.00  0.00     0.256 C 
ATOM      8  N2  NON d   1     -46.131  17.131  -3.849  0.00  0.00    -0.321 N 
ATOM      9  H7  NON d   1     -46.005  17.893  -3.196  0.00  0.00     0.169 HD
ATOM     10  O1  NON d   1     -45.270  16.073  -5.719  0.00  0.00    -0.267 OA
BRANCH   8  11
ATOM     11  C6  NON d   1     -47.386  16.479  -3.719  0.00  0.00     0.056 A 
ATOM     12  C5  NON d   1     -47.998  16.201  -2.492  0.00  0.00     0.031 A 
ATOM     13  C4  NON d   1     -49.202  15.492  -2.439  0.00  0.00     0.002 A 
ATOM     14  C3  NON d   1     -49.799  15.039  -3.611  0.00  0.00     0.002 A 
ATOM     15  C2  NON d   1     -49.204  15.312  -4.843  0.00  0.00     0.025 A 
ATOM     16  C1  NON d   1     -48.020  16.061  -4.910  0.00  0.00     0.033 A 
BRANCH  16  17
ATOM     17  N1  NON d   1     -47.440  16.349  -6.172  0.00  0.00    -0.301 NA
ATOM     18  H1  NON d   1     -46.836  17.167  -6.127  0.00  0.00     0.124 HD
ATOM     19  H2  NON d   1     -46.907  15.547  -6.494  0.00  0.00     0.124 HD
ENDBRANCH  16  17
ENDBRANCH   8  11
ENDBRANCH   1   7
BRANCH   4  20
ATOM     20  C12 NON d   1     -40.224  19.951  -4.238  0.00  0.00     0.051 C 
BRANCH  20  21
ATOM     21  C13 NON d   1     -39.678  21.182  -4.958  0.00  0.00     0.069 C 
ATOM     22  C14 NON d   1     -39.724  21.320  -6.489  0.00  0.00     0.052 C 
ATOM     23  C15 NON d   1     -39.686  22.814  -6.675  0.00  0.00    -0.043 A 
ATOM     24  C16 NON d   1     -39.417  23.532  -7.828  0.00  0.00     0.008 A 
ATOM     25  C20 NON d   1     -39.992  23.497  -5.500  0.00  0.00     0.016 A 
ATOM     26  C17 NON d   1     -39.418  24.932  -7.759  0.00  0.00     0.001 A 
ATOM     27  C18 NON d   1     -39.692  25.599  -6.551  0.00  0.00     0.001 A 
ATOM     28  C19 NON d   1     -39.993  24.875  -5.399  0.00  0.00     0.015 A 
ATOM     29  C21 NON d   1     -40.197  22.510  -4.448  0.00  0.00     0.164 C 
ATOM     30  O2  NON d   1     -40.604  22.773  -3.332  0.00  0.00    -0.292 OA
ENDBRANCH  20  21
ENDBRANCH   4  20
TORSDOF 5
ENDMDL
MODEL 8
REMARK VINA RESULT:   -33.780      2.217      2.790
REMARK INTER + INTRA:         -35.233
REMARK INTER:                 -35.272
REMARK INTRA:                   0.039
REMARK CONF_INDEPENDENT:        1.492
REMARK UNBOUND:                 0.039
REMARK  5 active torsions:
REMARK  status: ('A' for Active; 'I' for Inactive)
REMARK    1  A    between atoms: N1_1  and  C1_2 
REMARK    2  A    between atoms: C6_7  and  N2_8 
REMARK       I    between atoms: N2_8  and  C7_9 
REMARK    3  A    between atoms: C7_9  and  C8_11 
REMARK    4  A    between atoms: C11_14  and  C12_15 
REMARK    5  A    between atoms: C12_15  and  C13_16 
ROOT
ATOM      1  C8  NON d   1     -43.948  17.942  -4.710  0.00  0.00     0.032 A 
ATOM      2  C9  NON d   1     -43.587  19.094  -5.417  0.00  0.00     0.017 A 
ATOM      3  C10 NON d   1     -42.256  19.500  -5.485  0.00  0.00     0.008 A 
ATOM      4  C11 NON d   1     -41.229  18.777  -4.852  0.00  0.00    -0.057 A 
ATOM      5  C22 NON d   1     -41.582  17.604  -4.181  0.00  0.00     0.008 A 
ATOM      6  C23 NON d   1     -42.934  17.198  -4.090  0.00  0.00     0.017 A 
ENDROOT
BRANCH   1   7
ATOM      7  C7  NON d   1     -45.398  17.568  -4.746  0.00  0.00     0.256 C 
ATOM      8  N2  NON d   1     -45.949  17.018  -3.605  0.00  0.00    -0.321 N 
ATOM      9  H7  NON d   1     -45.390  16.953  -2.765  0.00  0.00     0.169 HD
ATOM     10  O1  NON d   1     -46.008  17.776  -5.792  0.00  0.00    -0.267 OA
BRANCH   8  11
ATOM     11  C6  NON d   1     -47.303  16.635  -3.412  0.00  0.00     0.056 A 
ATOM     12  C5  NON d   1     -47.957  16.673  -2.175  0.00  0.00     0.031 A 
ATOM     13  C4  NON d   1     -49.271  16.214  -2.048  0.00  0.00     0.002 A 
ATOM     14  C3  NON d   1     -49.941  15.698  -3.152  0.00  0.00     0.002 A 
ATOM     15  C2  NON d   1     -49.305  15.658  -4.393  0.00  0.00     0.025 A 
ATOM     16  C1  NON d   1     -48.004  16.157  -4.542  0.00  0.00     0.033 A 
BRANCH  16  17
ATOM     17  N1  NON d   1     -47.380  16.130  -5.815  0.00  0.00    -0.301 NA
ATOM     18  H1  NON d   1     -47.811  15.441  -6.427  0.00  0.00     0.124 HD
ATOM     19  H2  NON d   1     -47.435  17.049  -6.243  0.00  0.00     0.124 HD
ENDBRANCH  16  17
ENDBRANCH   8  11
ENDBRANCH   1   7
BRANCH   4  20
ATOM     20  C12 NON d   1     -39.833  19.318  -5.064  0.00  0.00     0.051 C 
BRANCH  20  21
ATOM     21  C13 NON d   1     -39.233  20.561  -4.408  0.00  0.00     0.069 C 
ATOM     22  C14 NON d   1     -37.716  20.812  -4.369  0.00  0.00     0.052 C 
ATOM     23  C15 NON d   1     -37.646  22.310  -4.231  0.00  0.00    -0.043 A 
ATOM     24  C16 NON d   1     -36.564  23.092  -3.861  0.00  0.00     0.008 A 
ATOM     25  C20 NON d   1     -38.854  22.924  -4.554  0.00  0.00     0.016 A 
ATOM     26  C17 NON d   1     -36.739  24.480  -3.780  0.00  0.00     0.001 A 
ATOM     27  C18 NON d   1     -37.980  25.074  -4.074  0.00  0.00     0.001 A 
ATOM     28  C19 NON d   1     -39.059  24.288  -4.476  0.00  0.00     0.015 A 
ATOM     29  C21 NON d   1     -39.818  21.879  -4.870  0.00  0.00     0.164 C 
ATOM     30  O2  NON d   1     -40.931  22.086  -5.316  0.00  0.00    -0.292 OA
ENDBRANCH  20  21
ENDBRANCH   4  20
TORSDOF 5
ENDMDL
