MODEL 1
REMARK VINA RESULT:   -38.181      0.000      0.000
REMARK INTER + INTRA:         -43.201
REMARK INTER:                 -42.059
REMARK INTRA:                  -1.142
REMARK CONF_INDEPENDENT:        3.878
REMARK UNBOUND:                -1.142
REMARK  13 active torsions:
REMARK  status: ('A' for Active; 'I' for Inactive)
REMARK    1  A    between atoms: N1_1  and  S1_2 
REMARK    2  A    between atoms: S1_2  and  N2_5 
REMARK    3  A    between atoms: N2_5  and  C1_6 
REMARK    4  A    between atoms: C1_6  and  C2_7 
REMARK    5  A    between atoms: C2_7  and  C3_8 
REMARK    6  A    between atoms: C3_8  and  C4_9 
REMARK    7  A    between atoms: C5_10  and  C4_9 
REMARK    8  A    between atoms: C5_10  and  N3_11 
REMARK    9  A    between atoms: C5_10  and  C14_22 
REMARK       I    between atoms: N3_11  and  C6_12 
REMARK   10  A    between atoms: C6_12  and  O4_14 
REMARK   11  A    between atoms: O4_14  and  C7_15 
REMARK   12  A    between atoms: C7_15  and  C8_16 
REMARK   13  A    between atoms: C16_25  and  C17_26 
ROOT
ATOM      1  C5  NON d   1     -41.151  20.101  -5.499  0.00  0.00     0.140 C 
ENDROOT
BRANCH   1   2
ATOM      2  C4  NON d   1     -42.344  19.032  -5.474  0.00  0.00     0.032 C 
BRANCH   2   3
ATOM      3  C3  NON d   1     -42.090  17.674  -4.725  0.00  0.00     0.004 C 
BRANCH   3   4
ATOM      4  C2  NON d   1     -42.960  17.402  -3.463  0.00  0.00     0.020 C 
BRANCH   4   5
ATOM      5  C1  NON d   1     -44.477  17.239  -3.676  0.00  0.00     0.133 C 
BRANCH   5   6
ATOM      6  N2  NON d   1     -44.842  16.875  -5.062  0.00  0.00    -0.307 N 
ATOM      7  H3  NON d   1     -44.239  16.197  -5.519  0.00  0.00     0.173 HD
BRANCH   6   8
ATOM      8  S1  NON d   1     -46.325  16.690  -5.436  0.00  0.00     0.294 S 
ATOM      9  O1  NON d   1     -46.316  17.949  -6.185  0.00  0.00    -0.189 OA
ATOM     10  O2  NON d   1     -46.043  15.450  -6.166  0.00  0.00    -0.189 OA
BRANCH   8  11
ATOM     11  N1  NON d   1     -47.806  16.504  -5.810  0.00  0.00    -0.212 NA
ATOM     12  H1  NON d   1     -48.256  15.974  -5.062  0.00  0.00     0.137 HD
ATOM     13  H2  NON d   1     -47.852  15.964  -6.676  0.00  0.00     0.137 HD
ENDBRANCH   8  11
ENDBRANCH   6   8
ENDBRANCH   5   6
ENDBRANCH   4   5
ENDBRANCH   3   4
ENDBRANCH   2   3
ENDBRANCH   1   2
BRANCH   1  14
ATOM     14  N3  NON d   1     -40.337  20.907  -6.404  0.00  0.00    -0.327 N 
ATOM     15  C6  NON d   1     -40.185  20.638  -7.739  0.00  0.00     0.361 C 
ATOM     16  O3  NON d   1     -40.833  19.819  -8.374  0.00  0.00    -0.238 OA
ATOM     17  H13 NON d   1     -39.616  21.492  -6.014  0.00  0.00     0.165 HD
BRANCH  15  18
ATOM     18  O4  NON d   1     -39.186  21.418  -8.249  0.00  0.00    -0.299 OA
BRANCH  18  19
ATOM     19  C7  NON d   1     -39.531  22.796  -8.485  0.00  0.00     0.219 C 
BRANCH  19  20
ATOM     20  C8  NON d   1     -39.368  23.267  -9.922  0.00  0.00    -0.034 A 
ATOM     21  C9  NON d   1     -39.053  22.310 -10.912  0.00  0.00     0.009 A 
ATOM     22  C10 NON d   1     -38.974  22.665 -12.261  0.00  0.00     0.001 A 
ATOM     23  C11 NON d   1     -39.215  23.982 -12.649  0.00  0.00     0.000 A 
ATOM     24  C12 NON d   1     -39.536  24.938 -11.684  0.00  0.00     0.001 A 
ATOM     25  C13 NON d   1     -39.616  24.580 -10.329  0.00  0.00     0.009 A 
ENDBRANCH  19  20
ENDBRANCH  18  19
ENDBRANCH  15  18
ENDBRANCH   1  14
BRANCH   1  26
ATOM     26  C14 NON d   1     -40.666  20.448  -4.078  0.00  0.00     0.075 A 
ATOM     27  C15 NON d   1     -39.810  19.709  -3.280  0.00  0.00     0.119 A 
ATOM     28  N4  NON d   1     -39.651  20.414  -2.128  0.00  0.00    -0.348 N 
ATOM     29  C16 NON d   1     -40.382  21.570  -2.218  0.00  0.00     0.138 A 
ATOM     30  H22 NON d   1     -39.042  20.160  -1.365  0.00  0.00     0.167 HD
ATOM     31  N5  NON d   1     -41.047  21.585  -3.365  0.00  0.00    -0.231 NA
BRANCH  29  32
ATOM     32  C17 NON d   1     -40.318  22.616  -1.189  0.00  0.00     0.010 A 
ATOM     33  C18 NON d   1     -39.969  23.945  -1.498  0.00  0.00     0.015 A 
ATOM     34  C19 NON d   1     -39.998  24.944  -0.522  0.00  0.00     0.001 A 
ATOM     35  C20 NON d   1     -40.368  24.628   0.782  0.00  0.00     0.000 A 
ATOM     36  C21 NON d   1     -40.695  23.314   1.110  0.00  0.00     0.001 A 
ATOM     37  C22 NON d   1     -40.669  22.315   0.131  0.00  0.00     0.015 A 
ENDBRANCH  29  32
ENDBRANCH   1  26
TORSDOF 13
ENDMDL
MODEL 2
REMARK VINA RESULT:   -37.678      1.845      2.202
REMARK INTER + INTRA:         -42.760
REMARK INTER:                 -41.556
REMARK INTRA:                  -1.204
REMARK CONF_INDEPENDENT:        3.878
REMARK UNBOUND:                -1.204
REMARK  13 active torsions:
REMARK  status: ('A' for Active; 'I' for Inactive)
REMARK    1  A    between atoms: N1_1  and  S1_2 
REMARK    2  A    between atoms: S1_2  and  N2_5 
REMARK    3  A    between atoms: N2_5  and  C1_6 
REMARK    4  A    between atoms: C1_6  and  C2_7 
REMARK    5  A    between atoms: C2_7  and  C3_8 
REMARK    6  A    between atoms: C3_8  and  C4_9 
REMARK    7  A    between atoms: C5_10  and  C4_9 
REMARK    8  A    between atoms: C5_10  and  N3_11 
REMARK    9  A    between atoms: C5_10  and  C14_22 
REMARK       I    between atoms: N3_11  and  C6_12 
REMARK   10  A    between atoms: C6_12  and  O4_14 
REMARK   11  A    between atoms: O4_14  and  C7_15 
REMARK   12  A    between atoms: C7_15  and  C8_16 
REMARK   13  A    between atoms: C16_25  and  C17_26 
ROOT
ATOM      1  C5  NON d   1     -40.336  19.540  -5.957  0.00  0.00     0.140 C 
ENDROOT
BRANCH   1   2
ATOM      2  C4  NON d   1     -41.920  19.618  -6.181  0.00  0.00     0.032 C 
BRANCH   2   3
ATOM      3  C3  NON d   1     -42.844  19.411  -4.926  0.00  0.00     0.004 C 
BRANCH   3   4
ATOM      4  C2  NON d   1     -42.765  18.023  -4.226  0.00  0.00     0.020 C 
BRANCH   4   5
ATOM      5  C1  NON d   1     -43.850  16.990  -4.585  0.00  0.00     0.133 C 
BRANCH   5   6
ATOM      6  N2  NON d   1     -45.219  17.550  -4.589  0.00  0.00    -0.307 N 
ATOM      7  H3  NON d   1     -45.287  18.562  -4.645  0.00  0.00     0.173 HD
BRANCH   6   8
ATOM      8  S1  NON d   1     -46.330  16.841  -5.386  0.00  0.00     0.294 S 
ATOM      9  O1  NON d   1     -46.479  18.007  -6.260  0.00  0.00    -0.189 OA
ATOM     10  O2  NON d   1     -45.420  15.772  -5.811  0.00  0.00    -0.189 OA
BRANCH   8  11
ATOM     11  N1  NON d   1     -47.440  16.131  -6.183  0.00  0.00    -0.212 NA
ATOM     12  H1  NON d   1     -47.010  15.694  -7.000  0.00  0.00     0.137 HD
ATOM     13  H2  NON d   1     -48.110  16.836  -6.495  0.00  0.00     0.137 HD
ENDBRANCH   8  11
ENDBRANCH   6   8
ENDBRANCH   5   6
ENDBRANCH   4   5
ENDBRANCH   3   4
ENDBRANCH   2   3
ENDBRANCH   1   2
BRANCH   1  14
ATOM     14  N3  NON d   1     -39.065  19.507  -6.676  0.00  0.00    -0.327 N 
ATOM     15  C6  NON d   1     -38.956  19.303  -8.027  0.00  0.00     0.361 C 
ATOM     16  O3  NON d   1     -39.887  19.302  -8.819  0.00  0.00    -0.238 OA
ATOM     17  H13 NON d   1     -38.222  19.317  -6.158  0.00  0.00     0.165 HD
BRANCH  15  18
ATOM     18  O4  NON d   1     -37.646  19.087  -8.349  0.00  0.00    -0.299 OA
BRANCH  18  19
ATOM     19  C7  NON d   1     -36.778  20.229  -8.221  0.00  0.00     0.219 C 
BRANCH  19  20
ATOM     20  C8  NON d   1     -36.854  21.232  -9.362  0.00  0.00    -0.034 A 
ATOM     21  C9  NON d   1     -36.846  20.744 -10.688  0.00  0.00     0.009 A 
ATOM     22  C10 NON d   1     -37.000  21.607 -11.776  0.00  0.00     0.001 A 
ATOM     23  C11 NON d   1     -37.172  22.973 -11.562  0.00  0.00     0.000 A 
ATOM     24  C12 NON d   1     -37.190  23.470 -10.258  0.00  0.00     0.001 A 
ATOM     25  C13 NON d   1     -37.037  22.603  -9.165  0.00  0.00     0.009 A 
ENDBRANCH  19  20
ENDBRANCH  18  19
ENDBRANCH  15  18
ENDBRANCH   1  14
BRANCH   1  26
ATOM     26  C14 NON d   1     -39.972  19.502  -4.461  0.00  0.00     0.075 A 
ATOM     27  C15 NON d   1     -39.627  18.392  -3.709  0.00  0.00     0.119 A 
ATOM     28  N4  NON d   1     -39.369  18.842  -2.453  0.00  0.00    -0.348 N 
ATOM     29  C16 NON d   1     -39.536  20.202  -2.431  0.00  0.00     0.138 A 
ATOM     30  H22 NON d   1     -39.041  18.277  -1.684  0.00  0.00     0.167 HD
ATOM     31  N5  NON d   1     -39.955  20.615  -3.620  0.00  0.00    -0.231 NA
BRANCH  29  32
ATOM     32  C17 NON d   1     -39.204  21.011  -1.252  0.00  0.00     0.010 A 
ATOM     33  C18 NON d   1     -40.188  21.439  -0.340  0.00  0.00     0.015 A 
ATOM     34  C19 NON d   1     -39.843  22.133   0.822  0.00  0.00     0.001 A 
ATOM     35  C20 NON d   1     -38.507  22.420   1.086  0.00  0.00     0.000 A 
ATOM     36  C21 NON d   1     -37.522  22.024   0.183  0.00  0.00     0.001 A 
ATOM     37  C22 NON d   1     -37.868  21.326  -0.978  0.00  0.00     0.015 A 
ENDBRANCH  29  32
ENDBRANCH   1  26
TORSDOF 13
ENDMDL
MODEL 3
REMARK VINA RESULT:   -37.483      1.775      7.422
REMARK INTER + INTRA:         -42.704
REMARK INTER:                 -41.360
REMARK INTRA:                  -1.343
REMARK CONF_INDEPENDENT:        3.878
REMARK UNBOUND:                -1.343
REMARK  13 active torsions:
REMARK  status: ('A' for Active; 'I' for Inactive)
REMARK    1  A    between atoms: N1_1  and  S1_2 
REMARK    2  A    between atoms: S1_2  and  N2_5 
REMARK    3  A    between atoms: N2_5  and  C1_6 
REMARK    4  A    between atoms: C1_6  and  C2_7 
REMARK    5  A    between atoms: C2_7  and  C3_8 
REMARK    6  A    between atoms: C3_8  and  C4_9 
REMARK    7  A    between atoms: C5_10  and  C4_9 
REMARK    8  A    between atoms: C5_10  and  N3_11 
REMARK    9  A    between atoms: C5_10  and  C14_22 
REMARK       I    between atoms: N3_11  and  C6_12 
REMARK   10  A    between atoms: C6_12  and  O4_14 
REMARK   11  A    between atoms: O4_14  and  C7_15 
REMARK   12  A    between atoms: C7_15  and  C8_16 
REMARK   13  A    between atoms: C16_25  and  C17_26 
ROOT
ATOM      1  C5  NON d   1     -40.576  20.117  -5.295  0.00  0.00     0.140 C 
ENDROOT
BRANCH   1   2
ATOM      2  C4  NON d   1     -41.429  18.772  -5.120  0.00  0.00     0.032 C 
BRANCH   2   3
ATOM      3  C3  NON d   1     -41.709  18.272  -3.657  0.00  0.00     0.004 C 
BRANCH   3   4
ATOM      4  C2  NON d   1     -42.969  17.379  -3.456  0.00  0.00     0.020 C 
BRANCH   4   5
ATOM      5  C1  NON d   1     -43.799  17.042  -4.708  0.00  0.00     0.133 C 
BRANCH   5   6
ATOM      6  N2  NON d   1     -45.168  17.600  -4.676  0.00  0.00    -0.307 N 
ATOM      7  H3  NON d   1     -45.240  18.611  -4.746  0.00  0.00     0.173 HD
BRANCH   6   8
ATOM      8  S1  NON d   1     -46.304  16.876  -5.423  0.00  0.00     0.294 S 
ATOM      9  O1  NON d   1     -46.444  18.003  -6.349  0.00  0.00    -0.189 OA
ATOM     10  O2  NON d   1     -45.421  15.771  -5.810  0.00  0.00    -0.189 OA
BRANCH   8  11
ATOM     11  N1  NON d   1     -47.439  16.152  -6.171  0.00  0.00    -0.212 NA
ATOM     12  H1  NON d   1     -47.106  15.932  -7.110  0.00  0.00     0.137 HD
ATOM     13  H2  NON d   1     -48.234  16.790  -6.239  0.00  0.00     0.137 HD
ENDBRANCH   8  11
ENDBRANCH   6   8
ENDBRANCH   5   6
ENDBRANCH   4   5
ENDBRANCH   3   4
ENDBRANCH   2   3
ENDBRANCH   1   2
BRANCH   1  14
ATOM     14  N3  NON d   1     -39.825  21.117  -4.543  0.00  0.00    -0.327 N 
ATOM     15  C6  NON d   1     -40.407  22.089  -3.771  0.00  0.00     0.361 C 
ATOM     16  O3  NON d   1     -41.591  22.138  -3.470  0.00  0.00    -0.238 OA
ATOM     17  H13 NON d   1     -38.877  21.320  -4.820  0.00  0.00     0.165 HD
BRANCH  15  18
ATOM     18  O4  NON d   1     -39.461  23.002  -3.401  0.00  0.00    -0.299 OA
BRANCH  18  19
ATOM     19  C7  NON d   1     -39.958  24.177  -2.732  0.00  0.00     0.219 C 
BRANCH  19  20
ATOM     20  C8  NON d   1     -40.399  23.963  -1.291  0.00  0.00    -0.034 A 
ATOM     21  C9  NON d   1     -40.135  22.715  -0.685  0.00  0.00     0.009 A 
ATOM     22  C10 NON d   1     -40.437  22.487   0.660  0.00  0.00     0.001 A 
ATOM     23  C11 NON d   1     -41.003  23.503   1.428  0.00  0.00     0.000 A 
ATOM     24  C12 NON d   1     -41.263  24.745   0.846  0.00  0.00     0.001 A 
ATOM     25  C13 NON d   1     -40.958  24.973  -0.504  0.00  0.00     0.009 A 
ENDBRANCH  19  20
ENDBRANCH  18  19
ENDBRANCH  15  18
ENDBRANCH   1  14
BRANCH   1  26
ATOM     26  C14 NON d   1     -40.465  20.533  -6.774  0.00  0.00     0.075 A 
ATOM     27  C15 NON d   1     -41.375  20.282  -7.787  0.00  0.00     0.119 A 
ATOM     28  N4  NON d   1     -40.870  20.857  -8.911  0.00  0.00    -0.348 N 
ATOM     29  C16 NON d   1     -39.681  21.462  -8.597  0.00  0.00     0.138 A 
ATOM     30  H22 NON d   1     -41.329  20.890  -9.808  0.00  0.00     0.167 HD
ATOM     31  N5  NON d   1     -39.390  21.232  -7.324  0.00  0.00    -0.231 NA
BRANCH  29  32
ATOM     32  C17 NON d   1     -38.946  22.288  -9.564  0.00  0.00     0.010 A 
ATOM     33  C18 NON d   1     -38.054  21.726 -10.498  0.00  0.00     0.015 A 
ATOM     34  C19 NON d   1     -37.431  22.517 -11.466  0.00  0.00     0.001 A 
ATOM     35  C20 NON d   1     -37.682  23.884 -11.510  0.00  0.00     0.000 A 
ATOM     36  C21 NON d   1     -38.544  24.461 -10.579  0.00  0.00     0.001 A 
ATOM     37  C22 NON d   1     -39.171  23.668  -9.612  0.00  0.00     0.015 A 
ENDBRANCH  29  32
ENDBRANCH   1  26
TORSDOF 13
ENDMDL
MODEL 4
REMARK VINA RESULT:   -37.290      2.056      3.426
REMARK INTER + INTRA:         -42.917
REMARK INTER:                 -41.168
REMARK INTRA:                  -1.749
REMARK CONF_INDEPENDENT:        3.878
REMARK UNBOUND:                -1.749
REMARK  13 active torsions:
REMARK  status: ('A' for Active; 'I' for Inactive)
REMARK    1  A    between atoms: N1_1  and  S1_2 
REMARK    2  A    between atoms: S1_2  and  N2_5 
REMARK    3  A    between atoms: N2_5  and  C1_6 
REMARK    4  A    between atoms: C1_6  and  C2_7 
REMARK    5  A    between atoms: C2_7  and  C3_8 
REMARK    6  A    between atoms: C3_8  and  C4_9 
REMARK    7  A    between atoms: C5_10  and  C4_9 
REMARK    8  A    between atoms: C5_10  and  N3_11 
REMARK    9  A    between atoms: C5_10  and  C14_22 
REMARK       I    between atoms: N3_11  and  C6_12 
REMARK   10  A    between atoms: C6_12  and  O4_14 
REMARK   11  A    between atoms: O4_14  and  C7_15 
REMARK   12  A    between atoms: C7_15  and  C8_16 
REMARK   13  A    between atoms: C16_25  and  C17_26 
ROOT
ATOM      1  C5  NON d   1     -41.353  20.302  -6.101  0.00  0.00     0.140 C 
ENDROOT
BRANCH   1   2
ATOM      2  C4  NON d   1     -42.382  19.248  -5.473  0.00  0.00     0.032 C 
BRANCH   2   3
ATOM      3  C3  NON d   1     -41.785  17.975  -4.769  0.00  0.00     0.004 C 
BRANCH   3   4
ATOM      4  C2  NON d   1     -42.555  17.442  -3.526  0.00  0.00     0.020 C 
BRANCH   4   5
ATOM      5  C1  NON d   1     -44.073  17.229  -3.676  0.00  0.00     0.133 C 
BRANCH   5   6
ATOM      6  N2  NON d   1     -44.577  17.516  -5.037  0.00  0.00    -0.307 N 
ATOM      7  H3  NON d   1     -43.915  17.379  -5.796  0.00  0.00     0.173 HD
BRANCH   6   8
ATOM      8  S1  NON d   1     -46.009  17.101  -5.423  0.00  0.00     0.294 S 
ATOM      9  O1  NON d   1     -46.053  18.135  -6.460  0.00  0.00    -0.189 OA
ATOM     10  O2  NON d   1     -45.574  15.755  -5.810  0.00  0.00    -0.189 OA
BRANCH   8  11
ATOM     11  N1  NON d   1     -47.440  16.685  -5.810  0.00  0.00    -0.212 NA
ATOM     12  H1  NON d   1     -47.475  16.587  -6.826  0.00  0.00     0.137 HD
ATOM     13  H2  NON d   1     -48.078  17.430  -5.524  0.00  0.00     0.137 HD
ENDBRANCH   8  11
ENDBRANCH   6   8
ENDBRANCH   5   6
ENDBRANCH   4   5
ENDBRANCH   3   4
ENDBRANCH   2   3
ENDBRANCH   1   2
BRANCH   1  14
ATOM     14  N3  NON d   1     -40.771  20.738  -7.367  0.00  0.00    -0.327 N 
ATOM     15  C6  NON d   1     -40.210  19.888  -8.284  0.00  0.00     0.361 C 
ATOM     16  O3  NON d   1     -40.280  18.668  -8.253  0.00  0.00    -0.238 OA
ATOM     17  H13 NON d   1     -40.480  21.699  -7.459  0.00  0.00     0.165 HD
BRANCH  15  18
ATOM     18  O4  NON d   1     -39.548  20.615  -9.231  0.00  0.00    -0.299 OA
BRANCH  18  19
ATOM     19  C7  NON d   1     -38.148  20.839  -8.978  0.00  0.00     0.219 C 
BRANCH  19  20
ATOM     20  C8  NON d   1     -37.540  19.970  -7.887  0.00  0.00    -0.034 A 
ATOM     21  C9  NON d   1     -37.676  20.383  -6.544  0.00  0.00     0.009 A 
ATOM     22  C10 NON d   1     -37.216  19.586  -5.492  0.00  0.00     0.001 A 
ATOM     23  C11 NON d   1     -36.617  18.357  -5.762  0.00  0.00     0.000 A 
ATOM     24  C12 NON d   1     -36.482  17.930  -7.084  0.00  0.00     0.001 A 
ATOM     25  C13 NON d   1     -36.945  18.731  -8.139  0.00  0.00     0.009 A 
ENDBRANCH  19  20
ENDBRANCH  18  19
ENDBRANCH  15  18
ENDBRANCH   1  14
BRANCH   1  26
ATOM     26  C14 NON d   1     -40.746  21.218  -5.022  0.00  0.00     0.075 A 
ATOM     27  C15 NON d   1     -40.189  22.473  -5.203  0.00  0.00     0.119 A 
ATOM     28  N4  NON d   1     -39.809  22.908  -3.972  0.00  0.00    -0.348 N 
ATOM     29  C16 NON d   1     -40.136  21.949  -3.048  0.00  0.00     0.138 A 
ATOM     30  H22 NON d   1     -39.416  23.814  -3.766  0.00  0.00     0.167 HD
ATOM     31  N5  NON d   1     -40.652  20.896  -3.668  0.00  0.00    -0.231 NA
BRANCH  29  32
ATOM     32  C17 NON d   1     -39.978  22.169  -1.605  0.00  0.00     0.010 A 
ATOM     33  C18 NON d   1     -40.868  22.977  -0.872  0.00  0.00     0.015 A 
ATOM     34  C19 NON d   1     -40.752  23.104   0.515  0.00  0.00     0.001 A 
ATOM     35  C20 NON d   1     -39.738  22.432   1.189  0.00  0.00     0.000 A 
ATOM     36  C21 NON d   1     -38.834  21.646   0.477  0.00  0.00     0.001 A 
ATOM     37  C22 NON d   1     -38.953  21.516  -0.911  0.00  0.00     0.015 A 
ENDBRANCH  29  32
ENDBRANCH   1  26
TORSDOF 13
ENDMDL
MODEL 5
REMARK VINA RESULT:   -37.256      1.652      2.390
REMARK INTER + INTRA:         -42.798
REMARK INTER:                 -41.134
REMARK INTRA:                  -1.664
REMARK CONF_INDEPENDENT:        3.878
REMARK UNBOUND:                -1.664
REMARK  13 active torsions:
REMARK  status: ('A' for Active; 'I' for Inactive)
REMARK    1  A    between atoms: N1_1  and  S1_2 
REMARK    2  A    between atoms: S1_2  and  N2_5 
REMARK    3  A    between atoms: N2_5  and  C1_6 
REMARK    4  A    between atoms: C1_6  and  C2_7 
REMARK    5  A    between atoms: C2_7  and  C3_8 
REMARK    6  A    between atoms: C3_8  and  C4_9 
REMARK    7  A    between atoms: C5_10  and  C4_9 
REMARK    8  A    between atoms: C5_10  and  N3_11 
REMARK    9  A    between atoms: C5_10  and  C14_22 
REMARK       I    between atoms: N3_11  and  C6_12 
REMARK   10  A    between atoms: C6_12  and  O4_14 
REMARK   11  A    between atoms: O4_14  and  C7_15 
REMARK   12  A    between atoms: C7_15  and  C8_16 
REMARK   13  A    between atoms: C16_25  and  C17_26 
ROOT
ATOM      1  C5  NON d   1     -39.793  18.685  -5.887  0.00  0.00     0.140 C 
ENDROOT
BRANCH   1   2
ATOM      2  C4  NON d   1     -41.233  17.986  -5.816  0.00  0.00     0.032 C 
BRANCH   2   3
ATOM      3  C3  NON d   1     -41.761  17.547  -4.402  0.00  0.00     0.004 C 
BRANCH   3   4
ATOM      4  C2  NON d   1     -43.028  18.281  -3.874  0.00  0.00     0.020 C 
BRANCH   4   5
ATOM      5  C1  NON d   1     -44.276  18.271  -4.778  0.00  0.00     0.133 C 
BRANCH   5   6
ATOM      6  N2  NON d   1     -44.777  16.912  -5.076  0.00  0.00    -0.307 N 
ATOM      7  H3  NON d   1     -44.416  16.164  -4.490  0.00  0.00     0.173 HD
BRANCH   6   8
ATOM      8  S1  NON d   1     -46.259  16.709  -5.443  0.00  0.00     0.294 S 
ATOM      9  O1  NON d   1     -46.270  17.968  -6.190  0.00  0.00    -0.189 OA
ATOM     10  O2  NON d   1     -45.966  15.473  -6.177  0.00  0.00    -0.189 OA
BRANCH   8  11
ATOM     11  N1  NON d   1     -47.740  16.505  -5.810  0.00  0.00    -0.212 NA
ATOM     12  H1  NON d   1     -47.909  15.501  -5.890  0.00  0.00     0.137 HD
ATOM     13  H2  NON d   1     -47.909  16.945  -6.716  0.00  0.00     0.137 HD
ENDBRANCH   8  11
ENDBRANCH   6   8
ENDBRANCH   5   6
ENDBRANCH   4   5
ENDBRANCH   3   4
ENDBRANCH   2   3
ENDBRANCH   1   2
BRANCH   1  14
ATOM     14  N3  NON d   1     -38.680  18.954  -6.793  0.00  0.00    -0.327 N 
ATOM     15  C6  NON d   1     -38.793  18.972  -8.158  0.00  0.00     0.361 C 
ATOM     16  O3  NON d   1     -39.844  18.947  -8.782  0.00  0.00    -0.238 OA
ATOM     17  H13 NON d   1     -37.740  18.819  -6.455  0.00  0.00     0.165 HD
BRANCH  15  18
ATOM     18  O4  NON d   1     -37.547  19.009  -8.716  0.00  0.00    -0.299 OA
BRANCH  18  19
ATOM     19  C7  NON d   1     -36.944  20.314  -8.807  0.00  0.00     0.219 C 
BRANCH  19  20
ATOM     20  C8  NON d   1     -37.857  21.475  -8.445  0.00  0.00    -0.034 A 
ATOM     21  C9  NON d   1     -38.708  21.999  -9.443  0.00  0.00     0.009 A 
ATOM     22  C10 NON d   1     -39.631  23.007  -9.151  0.00  0.00     0.001 A 
ATOM     23  C11 NON d   1     -39.725  23.508  -7.854  0.00  0.00     0.000 A 
ATOM     24  C12 NON d   1     -38.897  22.996  -6.854  0.00  0.00     0.001 A 
ATOM     25  C13 NON d   1     -37.972  21.983  -7.148  0.00  0.00     0.009 A 
ENDBRANCH  19  20
ENDBRANCH  18  19
ENDBRANCH  15  18
ENDBRANCH   1  14
BRANCH   1  26
ATOM     26  C14 NON d   1     -39.410  19.337  -4.545  0.00  0.00     0.075 A 
ATOM     27  C15 NON d   1     -38.166  19.333  -3.936  0.00  0.00     0.119 A 
ATOM     28  N4  NON d   1     -38.297  20.049  -2.787  0.00  0.00    -0.348 N 
ATOM     29  C16 NON d   1     -39.589  20.498  -2.695  0.00  0.00     0.138 A 
ATOM     30  H22 NON d   1     -37.550  20.270  -2.146  0.00  0.00     0.167 HD
ATOM     31  N5  NON d   1     -40.293  20.033  -3.719  0.00  0.00    -0.231 NA
BRANCH  29  32
ATOM     32  C17 NON d   1     -40.024  21.415  -1.635  0.00  0.00     0.010 A 
ATOM     33  C18 NON d   1     -39.959  21.064  -0.272  0.00  0.00     0.015 A 
ATOM     34  C19 NON d   1     -40.294  21.982   0.726  0.00  0.00     0.001 A 
ATOM     35  C20 NON d   1     -40.710  23.263   0.378  0.00  0.00     0.000 A 
ATOM     36  C21 NON d   1     -40.802  23.620  -0.966  0.00  0.00     0.001 A 
ATOM     37  C22 NON d   1     -40.463  22.702  -1.965  0.00  0.00     0.015 A 
ENDBRANCH  29  32
ENDBRANCH   1  26
TORSDOF 13
ENDMDL
MODEL 6
REMARK VINA RESULT:   -37.166      1.904      2.683
REMARK INTER + INTRA:         -42.912
REMARK INTER:                 -41.044
REMARK INTRA:                  -1.868
REMARK CONF_INDEPENDENT:        3.878
REMARK UNBOUND:                -1.868
REMARK  13 active torsions:
REMARK  status: ('A' for Active; 'I' for Inactive)
REMARK    1  A    between atoms: N1_1  and  S1_2 
REMARK    2  A    between atoms: S1_2  and  N2_5 
REMARK    3  A    between atoms: N2_5  and  C1_6 
REMARK    4  A    between atoms: C1_6  and  C2_7 
REMARK    5  A    between atoms: C2_7  and  C3_8 
REMARK    6  A    between atoms: C3_8  and  C4_9 
REMARK    7  A    between atoms: C5_10  and  C4_9 
REMARK    8  A    between atoms: C5_10  and  N3_11 
REMARK    9  A    between atoms: C5_10  and  C14_22 
REMARK       I    between atoms: N3_11  and  C6_12 
REMARK   10  A    between atoms: C6_12  and  O4_14 
REMARK   11  A    between atoms: O4_14  and  C7_15 
REMARK   12  A    between atoms: C7_15  and  C8_16 
REMARK   13  A    between atoms: C16_25  and  C17_26 
ROOT
ATOM      1  C5  NON d   1     -39.882  19.051  -5.955  0.00  0.00     0.140 C 
ENDROOT
BRANCH   1   2
ATOM      2  C4  NON d   1     -41.098  18.077  -5.585  0.00  0.00     0.032 C 
BRANCH   2   3
ATOM      3  C3  NON d   1     -42.050  18.513  -4.412  0.00  0.00     0.004 C 
BRANCH   3   4
ATOM      4  C2  NON d   1     -42.750  17.368  -3.622  0.00  0.00     0.020 C 
BRANCH   4   5
ATOM      5  C1  NON d   1     -44.276  17.230  -3.786  0.00  0.00     0.133 C 
BRANCH   5   6
ATOM      6  N2  NON d   1     -44.684  16.750  -5.124  0.00  0.00    -0.307 N 
ATOM      7  H3  NON d   1     -44.133  15.988  -5.512  0.00  0.00     0.173 HD
BRANCH   6   8
ATOM      8  S1  NON d   1     -46.180  16.627  -5.466  0.00  0.00     0.294 S 
ATOM      9  O1  NON d   1     -46.133  17.880  -6.223  0.00  0.00    -0.189 OA
ATOM     10  O2  NON d   1     -45.968  15.372  -6.195  0.00  0.00    -0.189 OA
BRANCH   8  11
ATOM     11  N1  NON d   1     -47.676  16.503  -5.809  0.00  0.00    -0.212 NA
ATOM     12  H1  NON d   1     -47.872  15.522  -6.013  0.00  0.00     0.137 HD
ATOM     13  H2  NON d   1     -47.860  17.061  -6.645  0.00  0.00     0.137 HD
ENDBRANCH   8  11
ENDBRANCH   6   8
ENDBRANCH   5   6
ENDBRANCH   4   5
ENDBRANCH   3   4
ENDBRANCH   2   3
ENDBRANCH   1   2
BRANCH   1  14
ATOM     14  N3  NON d   1     -38.821  19.255  -6.937  0.00  0.00    -0.327 N 
ATOM     15  C6  NON d   1     -38.916  18.889  -8.254  0.00  0.00     0.361 C 
ATOM     16  O3  NON d   1     -39.938  18.518  -8.813  0.00  0.00    -0.238 OA
ATOM     17  H13 NON d   1     -37.876  19.379  -6.608  0.00  0.00     0.165 HD
BRANCH  15  18
ATOM     18  O4  NON d   1     -37.688  18.989  -8.844  0.00  0.00    -0.299 OA
BRANCH  18  19
ATOM     19  C7  NON d   1     -37.011  20.247  -8.659  0.00  0.00     0.219 C 
BRANCH  19  20
ATOM     20  C8  NON d   1     -37.921  21.455  -8.500  0.00  0.00    -0.034 A 
ATOM     21  C9  NON d   1     -38.895  21.700  -9.493  0.00  0.00     0.009 A 
ATOM     22  C10 NON d   1     -39.816  22.742  -9.360  0.00  0.00     0.001 A 
ATOM     23  C11 NON d   1     -39.786  23.557  -8.231  0.00  0.00     0.000 A 
ATOM     24  C12 NON d   1     -38.834  23.325  -7.236  0.00  0.00     0.001 A 
ATOM     25  C13 NON d   1     -37.911  22.276  -7.369  0.00  0.00     0.009 A 
ENDBRANCH  19  20
ENDBRANCH  18  19
ENDBRANCH  15  18
ENDBRANCH   1  14
BRANCH   1  26
ATOM     26  C14 NON d   1     -39.758  20.214  -4.955  0.00  0.00     0.075 A 
ATOM     27  C15 NON d   1     -38.897  20.304  -3.874  0.00  0.00     0.119 A 
ATOM     28  N4  NON d   1     -39.126  21.514  -3.297  0.00  0.00    -0.348 N 
ATOM     29  C16 NON d   1     -40.097  22.164  -4.013  0.00  0.00     0.138 A 
ATOM     30  H22 NON d   1     -38.617  21.896  -2.515  0.00  0.00     0.167 HD
ATOM     31  N5  NON d   1     -40.532  21.374  -4.986  0.00  0.00    -0.231 NA
BRANCH  29  32
ATOM     32  C17 NON d   1     -40.481  23.552  -3.727  0.00  0.00     0.010 A 
ATOM     33  C18 NON d   1     -40.629  24.029  -2.411  0.00  0.00     0.015 A 
ATOM     34  C19 NON d   1     -40.909  25.374  -2.157  0.00  0.00     0.001 A 
ATOM     35  C20 NON d   1     -41.056  26.262  -3.217  0.00  0.00     0.000 A 
ATOM     36  C21 NON d   1     -40.935  25.803  -4.528  0.00  0.00     0.001 A 
ATOM     37  C22 NON d   1     -40.651  24.457  -4.781  0.00  0.00     0.015 A 
ENDBRANCH  29  32
ENDBRANCH   1  26
TORSDOF 13
ENDMDL
MODEL 7
REMARK VINA RESULT:   -36.789      2.155      2.830
REMARK INTER + INTRA:         -43.007
REMARK INTER:                 -40.667
REMARK INTRA:                  -2.341
REMARK CONF_INDEPENDENT:        3.878
REMARK UNBOUND:                -2.341
REMARK  13 active torsions:
REMARK  status: ('A' for Active; 'I' for Inactive)
REMARK    1  A    between atoms: N1_1  and  S1_2 
REMARK    2  A    between atoms: S1_2  and  N2_5 
REMARK    3  A    between atoms: N2_5  and  C1_6 
REMARK    4  A    between atoms: C1_6  and  C2_7 
REMARK    5  A    between atoms: C2_7  and  C3_8 
REMARK    6  A    between atoms: C3_8  and  C4_9 
REMARK    7  A    between atoms: C5_10  and  C4_9 
REMARK    8  A    between atoms: C5_10  and  N3_11 
REMARK    9  A    between atoms: C5_10  and  C14_22 
REMARK       I    between atoms: N3_11  and  C6_12 
REMARK   10  A    between atoms: C6_12  and  O4_14 
REMARK   11  A    between atoms: O4_14  and  C7_15 
REMARK   12  A    between atoms: C7_15  and  C8_16 
REMARK   13  A    between atoms: C16_25  and  C17_26 
ROOT
ATOM      1  C5  NON d   1     -39.848  18.815  -4.295  0.00  0.00     0.140 C 
ENDROOT
BRANCH   1   2
ATOM      2  C4  NON d   1     -40.304  17.688  -3.253  0.00  0.00     0.032 C 
BRANCH   2   3
ATOM      3  C3  NON d   1     -41.846  17.500  -3.011  0.00  0.00     0.004 C 
BRANCH   3   4
ATOM      4  C2  NON d   1     -42.795  18.061  -4.109  0.00  0.00     0.020 C 
BRANCH   4   5
ATOM      5  C1  NON d   1     -43.814  17.083  -4.725  0.00  0.00     0.133 C 
BRANCH   5   6
ATOM      6  N2  NON d   1     -45.220  17.511  -4.555  0.00  0.00    -0.307 N 
ATOM      7  H3  NON d   1     -45.373  18.510  -4.457  0.00  0.00     0.173 HD
BRANCH   6   8
ATOM      8  S1  NON d   1     -46.330  16.822  -5.370  0.00  0.00     0.294 S 
ATOM      9  O1  NON d   1     -46.468  18.005  -6.223  0.00  0.00    -0.189 OA
ATOM     10  O2  NON d   1     -45.424  15.756  -5.809  0.00  0.00    -0.189 OA
BRANCH   8  11
ATOM     11  N1  NON d   1     -47.440  16.134  -6.185  0.00  0.00    -0.212 NA
ATOM     12  H1  NON d   1     -47.388  15.130  -6.002  0.00  0.00     0.137 HD
ATOM     13  H2  NON d   1     -47.260  16.302  -7.176  0.00  0.00     0.137 HD
ENDBRANCH   8  11
ENDBRANCH   6   8
ENDBRANCH   5   6
ENDBRANCH   4   5
ENDBRANCH   3   4
ENDBRANCH   2   3
ENDBRANCH   1   2
BRANCH   1  14
ATOM     14  N3  NON d   1     -39.702  19.080  -5.724  0.00  0.00    -0.327 N 
ATOM     15  C6  NON d   1     -40.716  19.536  -6.525  0.00  0.00     0.361 C 
ATOM     16  O3  NON d   1     -41.798  19.945  -6.131  0.00  0.00    -0.238 OA
ATOM     17  H13 NON d   1     -38.947  18.635  -6.222  0.00  0.00     0.165 HD
BRANCH  15  18
ATOM     18  O4  NON d   1     -40.335  19.450  -7.833  0.00  0.00    -0.299 OA
BRANCH  18  19
ATOM     19  C7  NON d   1     -39.847  20.671  -8.421  0.00  0.00     0.219 C 
BRANCH  19  20
ATOM     20  C8  NON d   1     -39.183  21.636  -7.451  0.00  0.00    -0.034 A 
ATOM     21  C9  NON d   1     -39.985  22.610  -6.815  0.00  0.00     0.009 A 
ATOM     22  C10 NON d   1     -39.451  23.468  -5.850  0.00  0.00     0.001 A 
ATOM     23  C11 NON d   1     -38.107  23.366  -5.496  0.00  0.00     0.000 A 
ATOM     24  C12 NON d   1     -37.302  22.404  -6.110  0.00  0.00     0.001 A 
ATOM     25  C13 NON d   1     -37.840  21.542  -7.077  0.00  0.00     0.009 A 
ENDBRANCH  19  20
ENDBRANCH  18  19
ENDBRANCH  15  18
ENDBRANCH   1  14
BRANCH   1  26
ATOM     26  C14 NON d   1     -39.415  20.110  -3.582  0.00  0.00     0.075 A 
ATOM     27  C15 NON d   1     -38.137  20.636  -3.501  0.00  0.00     0.119 A 
ATOM     28  N4  NON d   1     -38.241  21.796  -2.798  0.00  0.00    -0.348 N 
ATOM     29  C16 NON d   1     -39.557  21.990  -2.465  0.00  0.00     0.138 A 
ATOM     30  H22 NON d   1     -37.486  22.439  -2.614  0.00  0.00     0.167 HD
ATOM     31  N5  NON d   1     -40.275  20.955  -2.881  0.00  0.00    -0.231 NA
BRANCH  29  32
ATOM     32  C17 NON d   1     -40.025  23.221  -1.816  0.00  0.00     0.010 A 
ATOM     33  C18 NON d   1     -40.072  24.452  -2.499  0.00  0.00     0.015 A 
ATOM     34  C19 NON d   1     -40.602  25.593  -1.893  0.00  0.00     0.001 A 
ATOM     35  C20 NON d   1     -41.085  25.525  -0.590  0.00  0.00     0.000 A 
ATOM     36  C21 NON d   1     -41.025  24.320   0.109  0.00  0.00     0.001 A 
ATOM     37  C22 NON d   1     -40.498  23.177  -0.500  0.00  0.00     0.015 A 
ENDBRANCH  29  32
ENDBRANCH   1  26
TORSDOF 13
ENDMDL
MODEL 8
REMARK VINA RESULT:   -36.717      2.163      3.468
REMARK INTER + INTRA:         -42.455
REMARK INTER:                 -40.595
REMARK INTRA:                  -1.860
REMARK CONF_INDEPENDENT:        3.878
REMARK UNBOUND:                -1.860
REMARK  13 active torsions:
REMARK  status: ('A' for Active; 'I' for Inactive)
REMARK    1  A    between atoms: N1_1  and  S1_2 
REMARK    2  A    between atoms: S1_2  and  N2_5 
REMARK    3  A    between atoms: N2_5  and  C1_6 
REMARK    4  A    between atoms: C1_6  and  C2_7 
REMARK    5  A    between atoms: C2_7  and  C3_8 
REMARK    6  A    between atoms: C3_8  and  C4_9 
REMARK    7  A    between atoms: C5_10  and  C4_9 
REMARK    8  A    between atoms: C5_10  and  N3_11 
REMARK    9  A    between atoms: C5_10  and  C14_22 
REMARK       I    between atoms: N3_11  and  C6_12 
REMARK   10  A    between atoms: C6_12  and  O4_14 
REMARK   11  A    between atoms: O4_14  and  C7_15 
REMARK   12  A    between atoms: C7_15  and  C8_16 
REMARK   13  A    between atoms: C16_25  and  C17_26 
ROOT
ATOM      1  C5  NON d   1     -40.051  19.080  -3.964  0.00  0.00     0.140 C 
ENDROOT
BRANCH   1   2
ATOM      2  C4  NON d   1     -40.586  18.414  -2.608  0.00  0.00     0.032 C 
BRANCH   2   3
ATOM      3  C3  NON d   1     -42.102  18.005  -2.545  0.00  0.00     0.004 C 
BRANCH   3   4
ATOM      4  C2  NON d   1     -42.807  17.734  -3.907  0.00  0.00     0.020 C 
BRANCH   4   5
ATOM      5  C1  NON d   1     -44.270  17.255  -3.859  0.00  0.00     0.133 C 
BRANCH   5   6
ATOM      6  N2  NON d   1     -44.711  16.585  -5.102  0.00  0.00    -0.307 N 
ATOM      7  H3  NON d   1     -44.234  15.718  -5.335  0.00  0.00     0.173 HD
BRANCH   6   8
ATOM      8  S1  NON d   1     -46.210  16.545  -5.455  0.00  0.00     0.294 S 
ATOM      9  O1  NON d   1     -46.087  17.793  -6.213  0.00  0.00    -0.189 OA
ATOM     10  O2  NON d   1     -46.062  15.279  -6.181  0.00  0.00    -0.189 OA
BRANCH   8  11
ATOM     11  N1  NON d   1     -47.708  16.505  -5.810  0.00  0.00    -0.212 NA
ATOM     12  H1  NON d   1     -47.788  16.389  -6.821  0.00  0.00     0.137 HD
ATOM     13  H2  NON d   1     -48.124  17.398  -5.542  0.00  0.00     0.137 HD
ENDBRANCH   8  11
ENDBRANCH   6   8
ENDBRANCH   5   6
ENDBRANCH   4   5
ENDBRANCH   3   4
ENDBRANCH   2   3
ENDBRANCH   1   2
BRANCH   1  14
ATOM     14  N3  NON d   1     -39.557  18.752  -5.298  0.00  0.00    -0.327 N 
ATOM     15  C6  NON d   1     -40.331  18.776  -6.428  0.00  0.00     0.361 C 
ATOM     16  O3  NON d   1     -41.461  19.237  -6.502  0.00  0.00    -0.238 OA
ATOM     17  H13 NON d   1     -38.721  18.194  -5.379  0.00  0.00     0.165 HD
BRANCH  15  18
ATOM     18  O4  NON d   1     -39.650  18.193  -7.458  0.00  0.00    -0.299 OA
BRANCH  18  19
ATOM     19  C7  NON d   1     -38.511  18.927  -7.946  0.00  0.00     0.219 C 
BRANCH  19  20
ATOM     20  C8  NON d   1     -38.823  20.303  -8.514  0.00  0.00    -0.034 A 
ATOM     21  C9  NON d   1     -37.925  20.866  -9.447  0.00  0.00     0.009 A 
ATOM     22  C10 NON d   1     -38.199  22.087 -10.069  0.00  0.00     0.001 A 
ATOM     23  C11 NON d   1     -39.379  22.767  -9.775  0.00  0.00     0.000 A 
ATOM     24  C12 NON d   1     -40.281  22.221  -8.861  0.00  0.00     0.001 A 
ATOM     25  C13 NON d   1     -40.006  20.994  -8.238  0.00  0.00     0.009 A 
ENDBRANCH  19  20
ENDBRANCH  18  19
ENDBRANCH  15  18
ENDBRANCH   1  14
BRANCH   1  26
ATOM     26  C14 NON d   1     -40.062  20.618  -3.887  0.00  0.00     0.075 A 
ATOM     27  C15 NON d   1     -40.347  21.400  -2.781  0.00  0.00     0.119 A 
ATOM     28  N4  NON d   1     -40.209  22.694  -3.177  0.00  0.00    -0.348 N 
ATOM     29  C16 NON d   1     -39.834  22.711  -4.495  0.00  0.00     0.138 A 
ATOM     30  H22 NON d   1     -40.301  23.502  -2.581  0.00  0.00     0.167 HD
ATOM     31  N5  NON d   1     -39.793  21.469  -4.959  0.00  0.00    -0.231 NA
BRANCH  29  32
ATOM     32  C17 NON d   1     -39.474  23.954  -5.189  0.00  0.00     0.010 A 
ATOM     33  C18 NON d   1     -38.750  23.951  -6.397  0.00  0.00     0.015 A 
ATOM     34  C19 NON d   1     -38.492  25.137  -7.087  0.00  0.00     0.001 A 
ATOM     35  C20 NON d   1     -38.946  26.349  -6.575  0.00  0.00     0.000 A 
ATOM     36  C21 NON d   1     -39.646  26.373  -5.370  0.00  0.00     0.001 A 
ATOM     37  C22 NON d   1     -39.906  25.184  -4.681  0.00  0.00     0.015 A 
ENDBRANCH  29  32
ENDBRANCH   1  26
TORSDOF 13
ENDMDL
MODEL 9
REMARK VINA RESULT:   -36.324      2.190      3.595
REMARK INTER + INTRA:         -43.075
REMARK INTER:                 -40.202
REMARK INTRA:                  -2.873
REMARK CONF_INDEPENDENT:        3.878
REMARK UNBOUND:                -2.873
REMARK  13 active torsions:
REMARK  status: ('A' for Active; 'I' for Inactive)
REMARK    1  A    between atoms: N1_1  and  S1_2 
REMARK    2  A    between atoms: S1_2  and  N2_5 
REMARK    3  A    between atoms: N2_5  and  C1_6 
REMARK    4  A    between atoms: C1_6  and  C2_7 
REMARK    5  A    between atoms: C2_7  and  C3_8 
REMARK    6  A    between atoms: C3_8  and  C4_9 
REMARK    7  A    between atoms: C5_10  and  C4_9 
REMARK    8  A    between atoms: C5_10  and  N3_11 
REMARK    9  A    between atoms: C5_10  and  C14_22 
REMARK       I    between atoms: N3_11  and  C6_12 
REMARK   10  A    between atoms: C6_12  and  O4_14 
REMARK   11  A    between atoms: O4_14  and  C7_15 
REMARK   12  A    between atoms: C7_15  and  C8_16 
REMARK   13  A    between atoms: C16_25  and  C17_26 
ROOT
ATOM      1  C5  NON d   1     -40.495  20.102  -5.459  0.00  0.00     0.140 C 
ENDROOT
BRANCH   1   2
ATOM      2  C4  NON d   1     -40.649  18.573  -5.913  0.00  0.00     0.032 C 
BRANCH   2   3
ATOM      3  C3  NON d   1     -41.955  17.812  -5.481  0.00  0.00     0.004 C 
BRANCH   3   4
ATOM      4  C2  NON d   1     -43.064  18.666  -4.800  0.00  0.00     0.020 C 
BRANCH   4   5
ATOM      5  C1  NON d   1     -44.273  17.913  -4.215  0.00  0.00     0.133 C 
BRANCH   5   6
ATOM      6  N2  NON d   1     -44.716  16.773  -5.046  0.00  0.00    -0.307 N 
ATOM      7  H3  NON d   1     -44.286  15.875  -4.839  0.00  0.00     0.173 HD
BRANCH   6   8
ATOM      8  S1  NON d   1     -46.202  16.639  -5.426  0.00  0.00     0.294 S 
ATOM      9  O1  NON d   1     -46.146  17.893  -6.181  0.00  0.00    -0.189 OA
ATOM     10  O2  NON d   1     -45.962  15.387  -6.151  0.00  0.00    -0.189 OA
BRANCH   8  11
ATOM     11  N1  NON d   1     -47.688  16.504  -5.807  0.00  0.00    -0.212 NA
ATOM     12  H1  NON d   1     -48.023  15.606  -5.454  0.00  0.00     0.137 HD
ATOM     13  H2  NON d   1     -47.759  16.510  -6.826  0.00  0.00     0.137 HD
ENDBRANCH   8  11
ENDBRANCH   6   8
ENDBRANCH   5   6
ENDBRANCH   4   5
ENDBRANCH   3   4
ENDBRANCH   2   3
ENDBRANCH   1   2
BRANCH   1  14
ATOM     14  N3  NON d   1     -40.479  21.467  -5.976  0.00  0.00    -0.327 N 
ATOM     15  C6  NON d   1     -39.974  21.815  -7.201  0.00  0.00     0.361 C 
ATOM     16  O3  NON d   1     -39.642  21.032  -8.078  0.00  0.00    -0.238 OA
ATOM     17  H13 NON d   1     -40.548  22.231  -5.322  0.00  0.00     0.165 HD
BRANCH  15  18
ATOM     18  O4  NON d   1     -39.885  23.176  -7.285  0.00  0.00    -0.299 OA
BRANCH  18  19
ATOM     19  C7  NON d   1     -38.720  23.763  -6.674  0.00  0.00     0.219 C 
BRANCH  19  20
ATOM     20  C8  NON d   1     -38.905  24.221  -5.235  0.00  0.00    -0.034 A 
ATOM     21  C9  NON d   1     -40.212  24.509  -4.784  0.00  0.00     0.009 A 
ATOM     22  C10 NON d   1     -40.458  24.852  -3.452  0.00  0.00     0.001 A 
ATOM     23  C11 NON d   1     -39.403  24.907  -2.542  0.00  0.00     0.000 A 
ATOM     24  C12 NON d   1     -38.106  24.617  -2.970  0.00  0.00     0.001 A 
ATOM     25  C13 NON d   1     -37.861  24.272  -4.308  0.00  0.00     0.009 A 
ENDBRANCH  19  20
ENDBRANCH  18  19
ENDBRANCH  15  18
ENDBRANCH   1  14
BRANCH   1  26
ATOM     26  C14 NON d   1     -40.312  20.227  -3.935  0.00  0.00     0.075 A 
ATOM     27  C15 NON d   1     -40.020  19.213  -3.038  0.00  0.00     0.119 A 
ATOM     28  N4  NON d   1     -39.929  19.796  -1.813  0.00  0.00    -0.348 N 
ATOM     29  C16 NON d   1     -40.146  21.143  -1.951  0.00  0.00     0.138 A 
ATOM     30  H22 NON d   1     -39.676  19.325  -0.958  0.00  0.00     0.167 HD
ATOM     31  N5  NON d   1     -40.434  21.417  -3.216  0.00  0.00    -0.231 NA
BRANCH  29  32
ATOM     32  C17 NON d   1     -39.986  22.078  -0.830  0.00  0.00     0.010 A 
ATOM     33  C18 NON d   1     -41.006  22.973  -0.454  0.00  0.00     0.015 A 
ATOM     34  C19 NON d   1     -40.869  23.794   0.668  0.00  0.00     0.001 A 
ATOM     35  C20 NON d   1     -39.704  23.740   1.426  0.00  0.00     0.000 A 
ATOM     36  C21 NON d   1     -38.675  22.876   1.056  0.00  0.00     0.001 A 
ATOM     37  C22 NON d   1     -38.815  22.052  -0.065  0.00  0.00     0.015 A 
ENDBRANCH  29  32
ENDBRANCH   1  26
TORSDOF 13
ENDMDL
