MODEL 1
REMARK VINA RESULT:   -16.227      0.000      0.000
REMARK INTER + INTRA:         -22.046
REMARK INTER:                 -19.508
REMARK INTRA:                  -2.538
REMARK CONF_INDEPENDENT:        3.281
REMARK UNBOUND:                -2.538
REMARK  11 active torsions:
REMARK  status: ('A' for Active; 'I' for Inactive)
REMARK    1  A    between atoms: C2_2  and  N1_4 
REMARK    2  A    between atoms: N1_4  and  C4_5 
REMARK    3  A    between atoms: N1_4  and  C17_20 
REMARK    4  A    between atoms: C4_5  and  C5_6 
REMARK    5  A    between atoms: C5_6  and  C6_7 
REMARK    6  A    between atoms: C7_8  and  C8_9 
REMARK    7  A    between atoms: C8_9  and  O1_12 
REMARK    8  A    between atoms: C17_20  and  C18_21 
REMARK    9  A    between atoms: C21_24  and  C22_25 
REMARK   10  A    between atoms: C23_26  and  C24_27 
REMARK       I    between atoms: C24_27  and  N3_29 
REMARK   11  A    between atoms: N3_29  and  O3_30 
ROOT
ATOM      1  N1  NON d   1     -38.639  20.188  -1.825  0.00  0.00    -0.063 N 
ATOM      2  H8  NON d   1     -37.692  19.825  -0.666  0.00  0.00     0.280 HD
ENDROOT
BRANCH   1   3
ATOM      3  C2  NON d   1     -37.444  19.249  -2.072  0.00  0.00     0.180 C 
ATOM      4  C1  NON d   1     -36.199  19.766  -2.817  0.00  0.00     0.039 C 
ATOM      5  C3  NON d   1     -38.158  17.862  -2.062  0.00  0.00     0.039 C 
ENDBRANCH   1   3
BRANCH   1   6
ATOM      6  C4  NON d   1     -38.913  21.127  -0.542  0.00  0.00     0.240 C 
BRANCH   6   7
ATOM      7  C5  NON d   1     -40.341  21.730  -0.672  0.00  0.00     0.069 C 
BRANCH   7   8
ATOM      8  C6  NON d   1     -40.579  23.200  -0.516  0.00  0.00    -0.018 A 
ATOM      9  C7  NON d   1     -40.650  24.083  -1.608  0.00  0.00     0.051 A 
ATOM     10  N2  NON d   1     -40.976  25.318  -1.100  0.00  0.00    -0.356 N 
ATOM     11  C11 NON d   1     -41.006  25.291   0.270  0.00  0.00     0.043 A 
ATOM     12  H20 NON d   1     -41.133  26.152  -1.648  0.00  0.00     0.166 HD
ATOM     13  C12 NON d   1     -41.233  26.338   1.163  0.00  0.00     0.030 A 
ATOM     14  C16 NON d   1     -40.749  23.982   0.674  0.00  0.00    -0.001 A 
ATOM     15  C13 NON d   1     -41.182  26.061   2.521  0.00  0.00     0.002 A 
ATOM     16  C14 NON d   1     -40.923  24.771   2.969  0.00  0.00     0.001 A 
ATOM     17  C15 NON d   1     -40.711  23.726   2.059  0.00  0.00     0.014 A 
BRANCH   9  18
ATOM     18  C8  NON d   1     -40.445  23.906  -3.107  0.00  0.00     0.093 C 
ATOM     19  C9  NON d   1     -41.501  22.989  -3.724  0.00  0.00     0.052 C 
ATOM     20  C10 NON d   1     -40.413  25.256  -3.838  0.00  0.00     0.052 C 
BRANCH  18  21
ATOM     21  O1  NON d   1     -39.170  23.281  -3.276  0.00  0.00    -0.384 OA
ATOM     22  H19 NON d   1     -38.502  23.988  -3.233  0.00  0.00     0.211 HD
ENDBRANCH  18  21
ENDBRANCH   9  18
ENDBRANCH   7   8
ENDBRANCH   6   7
ENDBRANCH   1   6
BRANCH   1  23
ATOM     23  C17 NON d   1     -39.586  20.551  -2.983  0.00  0.00     0.273 C 
BRANCH  23  24
ATOM     24  C18 NON d   1     -40.650  19.592  -3.509  0.00  0.00    -0.033 C 
ATOM     25  C19 NON d   1     -40.961  19.583  -4.880  0.00  0.00     0.009 C 
ATOM     26  C20 NON d   1     -42.028  18.815  -5.389  0.00  0.00     0.012 C 
ATOM     27  C21 NON d   1     -42.841  18.065  -4.537  0.00  0.00    -0.036 C 
ATOM     28  C25 NON d   1     -42.454  17.963  -3.200  0.00  0.00     0.012 C 
ATOM     29  C26 NON d   1     -41.334  18.660  -2.720  0.00  0.00     0.009 C 
BRANCH  27  30
ATOM     30  C22 NON d   1     -44.020  17.349  -5.054  0.00  0.00     0.017 C 
ATOM     31  C23 NON d   1     -45.209  17.948  -5.250  0.00  0.00     0.077 C 
BRANCH  31  32
ATOM     32  C24 NON d   1     -46.388  17.184  -5.750  0.00  0.00     0.264 C 
ATOM     33  O2  NON d   1     -47.386  17.724  -6.209  0.00  0.00    -0.266 OA
ATOM     34  N3  NON d   1     -46.207  15.824  -5.649  0.00  0.00    -0.234 N 
ATOM     35  H31 NON d   1     -45.466  15.401  -5.104  0.00  0.00     0.197 HD
BRANCH  34  36
ATOM     36  O3  NON d   1     -47.324  15.005  -5.905  0.00  0.00    -0.287 OA
ATOM     37  H32 NON d   1     -47.907  15.603  -6.410  0.00  0.00     0.244 HD
ENDBRANCH  34  36
ENDBRANCH  31  32
ENDBRANCH  27  30
ENDBRANCH  23  24
ENDBRANCH   1  23
TORSDOF 11
ENDMDL
MODEL 2
REMARK VINA RESULT:   -16.193      1.522      3.197
REMARK INTER + INTRA:         -22.220
REMARK INTER:                 -19.475
REMARK INTRA:                  -2.745
REMARK CONF_INDEPENDENT:        3.281
REMARK UNBOUND:                -2.745
REMARK  11 active torsions:
REMARK  status: ('A' for Active; 'I' for Inactive)
REMARK    1  A    between atoms: C2_2  and  N1_4 
REMARK    2  A    between atoms: N1_4  and  C4_5 
REMARK    3  A    between atoms: N1_4  and  C17_20 
REMARK    4  A    between atoms: C4_5  and  C5_6 
REMARK    5  A    between atoms: C5_6  and  C6_7 
REMARK    6  A    between atoms: C7_8  and  C8_9 
REMARK    7  A    between atoms: C8_9  and  O1_12 
REMARK    8  A    between atoms: C17_20  and  C18_21 
REMARK    9  A    between atoms: C21_24  and  C22_25 
REMARK   10  A    between atoms: C23_26  and  C24_27 
REMARK       I    between atoms: C24_27  and  N3_29 
REMARK   11  A    between atoms: N3_29  and  O3_30 
ROOT
ATOM      1  N1  NON d   1     -39.138  20.362  -1.526  0.00  0.00    -0.063 N 
ATOM      2  H8  NON d   1     -38.359  20.185  -0.208  0.00  0.00     0.280 HD
ENDROOT
BRANCH   1   3
ATOM      3  C2  NON d   1     -37.669  19.901  -1.556  0.00  0.00     0.180 C 
ATOM      4  C1  NON d   1     -36.537  20.940  -1.653  0.00  0.00     0.039 C 
ATOM      5  C3  NON d   1     -37.828  18.466  -2.146  0.00  0.00     0.039 C 
ENDBRANCH   1   3
BRANCH   1   6
ATOM      6  C4  NON d   1     -39.953  20.993  -0.285  0.00  0.00     0.240 C 
BRANCH   6   7
ATOM      7  C5  NON d   1     -39.370  22.404   0.016  0.00  0.00     0.069 C 
BRANCH   7   8
ATOM      8  C6  NON d   1     -40.060  23.645  -0.461  0.00  0.00    -0.018 A 
ATOM      9  C7  NON d   1     -40.648  24.576   0.412  0.00  0.00     0.051 A 
ATOM     10  N2  NON d   1     -41.090  25.623  -0.362  0.00  0.00    -0.356 N 
ATOM     11  C11 NON d   1     -40.913  25.355  -1.694  0.00  0.00     0.043 A 
ATOM     12  H20 NON d   1     -41.528  26.464  -0.012  0.00  0.00     0.166 HD
ATOM     13  C12 NON d   1     -41.281  26.122  -2.800  0.00  0.00     0.030 A 
ATOM     14  C16 NON d   1     -40.281  24.117  -1.797  0.00  0.00    -0.001 A 
ATOM     15  C13 NON d   1     -41.016  25.615  -4.063  0.00  0.00     0.002 A 
ATOM     16  C14 NON d   1     -40.392  24.383  -4.213  0.00  0.00     0.001 A 
ATOM     17  C15 NON d   1     -40.016  23.630  -3.093  0.00  0.00     0.014 A 
BRANCH   9  18
ATOM     18  C8  NON d   1     -40.853  24.605   1.921  0.00  0.00     0.093 C 
ATOM     19  C9  NON d   1     -41.435  23.292   2.445  0.00  0.00     0.052 C 
ATOM     20  C10 NON d   1     -39.553  24.950   2.664  0.00  0.00     0.052 C 
BRANCH  18  21
ATOM     21  O1  NON d   1     -41.802  25.641   2.187  0.00  0.00    -0.384 OA
ATOM     22  H19 NON d   1     -41.460  26.451   1.769  0.00  0.00     0.211 HD
ENDBRANCH  18  21
ENDBRANCH   9  18
ENDBRANCH   7   8
ENDBRANCH   6   7
ENDBRANCH   1   6
BRANCH   1  23
ATOM     23  C17 NON d   1     -39.916  20.539  -2.842  0.00  0.00     0.273 C 
BRANCH  23  24
ATOM     24  C18 NON d   1     -40.833  19.459  -3.409  0.00  0.00    -0.033 C 
ATOM     25  C19 NON d   1     -41.138  19.457  -4.782  0.00  0.00     0.009 C 
ATOM     26  C20 NON d   1     -42.084  18.565  -5.326  0.00  0.00     0.012 C 
ATOM     27  C21 NON d   1     -42.782  17.675  -4.506  0.00  0.00    -0.036 C 
ATOM     28  C25 NON d   1     -42.386  17.580  -3.172  0.00  0.00     0.012 C 
ATOM     29  C26 NON d   1     -41.377  18.410  -2.659  0.00  0.00     0.009 C 
BRANCH  27  30
ATOM     30  C22 NON d   1     -43.847  16.818  -5.057  0.00  0.00     0.017 C 
ATOM     31  C23 NON d   1     -45.137  17.198  -5.106  0.00  0.00     0.077 C 
BRANCH  31  32
ATOM     32  C24 NON d   1     -46.192  16.294  -5.646  0.00  0.00     0.264 C 
ATOM     33  O2  NON d   1     -45.940  15.225  -6.185  0.00  0.00    -0.266 OA
ATOM     34  N3  NON d   1     -47.457  16.796  -5.449  0.00  0.00    -0.234 N 
ATOM     35  H31 NON d   1     -47.639  17.754  -5.175  0.00  0.00     0.197 HD
BRANCH  34  36
ATOM     36  O3  NON d   1     -48.521  16.130  -6.089  0.00  0.00    -0.287 OA
ATOM     37  H32 NON d   1     -48.094  15.308  -6.397  0.00  0.00     0.244 HD
ENDBRANCH  34  36
ENDBRANCH  31  32
ENDBRANCH  27  30
ENDBRANCH  23  24
ENDBRANCH   1  23
TORSDOF 11
ENDMDL
MODEL 3
REMARK VINA RESULT:   -16.042      1.385      1.884
REMARK INTER + INTRA:         -21.829
REMARK INTER:                 -19.323
REMARK INTRA:                  -2.506
REMARK CONF_INDEPENDENT:        3.281
REMARK UNBOUND:                -2.506
REMARK  11 active torsions:
REMARK  status: ('A' for Active; 'I' for Inactive)
REMARK    1  A    between atoms: C2_2  and  N1_4 
REMARK    2  A    between atoms: N1_4  and  C4_5 
REMARK    3  A    between atoms: N1_4  and  C17_20 
REMARK    4  A    between atoms: C4_5  and  C5_6 
REMARK    5  A    between atoms: C5_6  and  C6_7 
REMARK    6  A    between atoms: C7_8  and  C8_9 
REMARK    7  A    between atoms: C8_9  and  O1_12 
REMARK    8  A    between atoms: C17_20  and  C18_21 
REMARK    9  A    between atoms: C21_24  and  C22_25 
REMARK   10  A    between atoms: C23_26  and  C24_27 
REMARK       I    between atoms: C24_27  and  N3_29 
REMARK   11  A    between atoms: N3_29  and  O3_30 
ROOT
ATOM      1  N1  NON d   1     -39.084  21.158  -2.602  0.00  0.00    -0.063 N 
ATOM      2  H8  NON d   1     -38.798  22.631  -2.951  0.00  0.00     0.280 HD
ENDROOT
BRANCH   1   3
ATOM      3  C2  NON d   1     -38.853  21.571  -4.068  0.00  0.00     0.180 C 
ATOM      4  C1  NON d   1     -40.038  22.039  -4.932  0.00  0.00     0.039 C 
ATOM      5  C3  NON d   1     -37.571  20.748  -4.403  0.00  0.00     0.039 C 
ENDBRANCH   1   3
BRANCH   1   6
ATOM      6  C4  NON d   1     -39.368  22.115  -1.335  0.00  0.00     0.240 C 
BRANCH   6   7
ATOM      7  C5  NON d   1     -40.589  23.020  -1.670  0.00  0.00     0.069 C 
BRANCH   7   8
ATOM      8  C6  NON d   1     -40.862  24.270  -0.892  0.00  0.00    -0.018 A 
ATOM      9  C7  NON d   1     -41.067  25.520  -1.501  0.00  0.00     0.051 A 
ATOM     10  N2  NON d   1     -41.387  26.403  -0.497  0.00  0.00    -0.356 N 
ATOM     11  C11 NON d   1     -41.287  25.805   0.731  0.00  0.00     0.043 A 
ATOM     12  H20 NON d   1     -41.623  27.377  -0.630  0.00  0.00     0.166 HD
ATOM     13  C12 NON d   1     -41.465  26.365   1.997  0.00  0.00     0.030 A 
ATOM     14  C16 NON d   1     -40.946  24.470   0.526  0.00  0.00    -0.001 A 
ATOM     15  C13 NON d   1     -41.277  25.550   3.103  0.00  0.00     0.002 A 
ATOM     16  C14 NON d   1     -40.932  24.214   2.946  0.00  0.00     0.001 A 
ATOM     17  C15 NON d   1     -40.770  23.662   1.667  0.00  0.00     0.014 A 
BRANCH   9  18
ATOM     18  C8  NON d   1     -40.997  26.000  -2.945  0.00  0.00     0.093 C 
ATOM     19  C9  NON d   1     -39.571  26.366  -3.358  0.00  0.00     0.052 C 
ATOM     20  C10 NON d   1     -41.588  24.967  -3.916  0.00  0.00     0.052 C 
BRANCH  18  21
ATOM     21  O1  NON d   1     -41.793  27.186  -3.022  0.00  0.00    -0.384 OA
ATOM     22  H19 NON d   1     -42.113  27.369  -2.121  0.00  0.00     0.211 HD
ENDBRANCH  18  21
ENDBRANCH   9  18
ENDBRANCH   7   8
ENDBRANCH   6   7
ENDBRANCH   1   6
BRANCH   1  23
ATOM     23  C17 NON d   1     -39.370  19.686  -2.254  0.00  0.00     0.273 C 
BRANCH  23  24
ATOM     24  C18 NON d   1     -40.497  18.889  -2.903  0.00  0.00    -0.033 C 
ATOM     25  C19 NON d   1     -40.510  18.712  -4.298  0.00  0.00     0.009 C 
ATOM     26  C20 NON d   1     -41.597  18.103  -4.955  0.00  0.00     0.012 C 
ATOM     27  C21 NON d   1     -42.724  17.689  -4.240  0.00  0.00    -0.036 C 
ATOM     28  C25 NON d   1     -42.659  17.738  -2.848  0.00  0.00     0.012 C 
ATOM     29  C26 NON d   1     -41.531  18.262  -2.198  0.00  0.00     0.009 C 
BRANCH  27  30
ATOM     30  C22 NON d   1     -43.906  17.151  -4.939  0.00  0.00     0.017 C 
ATOM     31  C23 NON d   1     -45.056  17.839  -5.062  0.00  0.00     0.077 C 
BRANCH  31  32
ATOM     32  C24 NON d   1     -46.239  17.251  -5.752  0.00  0.00     0.264 C 
ATOM     33  O2  NON d   1     -47.033  17.921  -6.400  0.00  0.00    -0.266 OA
ATOM     34  N3  NON d   1     -46.313  15.888  -5.586  0.00  0.00    -0.234 N 
ATOM     35  H31 NON d   1     -45.765  15.380  -4.903  0.00  0.00     0.197 HD
BRANCH  34  36
ATOM     36  O3  NON d   1     -47.491  15.248  -6.023  0.00  0.00    -0.287 OA
ATOM     37  H32 NON d   1     -47.979  15.982  -6.442  0.00  0.00     0.244 HD
ENDBRANCH  34  36
ENDBRANCH  31  32
ENDBRANCH  27  30
ENDBRANCH  23  24
ENDBRANCH   1  23
TORSDOF 11
ENDMDL
MODEL 4
REMARK VINA RESULT:   -16.037      2.947      5.346
REMARK INTER + INTRA:         -22.095
REMARK INTER:                 -19.318
REMARK INTRA:                  -2.776
REMARK CONF_INDEPENDENT:        3.281
REMARK UNBOUND:                -2.776
REMARK  11 active torsions:
REMARK  status: ('A' for Active; 'I' for Inactive)
REMARK    1  A    between atoms: C2_2  and  N1_4 
REMARK    2  A    between atoms: N1_4  and  C4_5 
REMARK    3  A    between atoms: N1_4  and  C17_20 
REMARK    4  A    between atoms: C4_5  and  C5_6 
REMARK    5  A    between atoms: C5_6  and  C6_7 
REMARK    6  A    between atoms: C7_8  and  C8_9 
REMARK    7  A    between atoms: C8_9  and  O1_12 
REMARK    8  A    between atoms: C17_20  and  C18_21 
REMARK    9  A    between atoms: C21_24  and  C22_25 
REMARK   10  A    between atoms: C23_26  and  C24_27 
REMARK       I    between atoms: C24_27  and  N3_29 
REMARK   11  A    between atoms: N3_29  and  O3_30 
ROOT
ATOM      1  N1  NON d   1     -38.801  20.842  -2.893  0.00  0.00    -0.063 N 
ATOM      2  H8  NON d   1     -38.570  22.350  -3.106  0.00  0.00     0.280 HD
ENDROOT
BRANCH   1   3
ATOM      3  C2  NON d   1     -38.568  21.764  -1.681  0.00  0.00     0.180 C 
ATOM      4  C1  NON d   1     -37.146  22.254  -1.349  0.00  0.00     0.039 C 
ATOM      5  C3  NON d   1     -39.778  21.369  -0.780  0.00  0.00     0.039 C 
ENDBRANCH   1   3
BRANCH   1   6
ATOM      6  C4  NON d   1     -38.550  21.172  -4.452  0.00  0.00     0.240 C 
BRANCH   6   7
ATOM      7  C5  NON d   1     -39.864  21.755  -5.046  0.00  0.00     0.069 C 
BRANCH   7   8
ATOM      8  C6  NON d   1     -39.888  22.385  -6.405  0.00  0.00    -0.018 A 
ATOM      9  C7  NON d   1     -40.322  21.704  -7.555  0.00  0.00     0.051 A 
ATOM     10  N2  NON d   1     -40.302  22.613  -8.586  0.00  0.00    -0.356 N 
ATOM     11  C11 NON d   1     -39.771  23.807  -8.176  0.00  0.00     0.043 A 
ATOM     12  H20 NON d   1     -40.596  22.426  -9.535  0.00  0.00     0.166 HD
ATOM     13  C12 NON d   1     -39.519  24.958  -8.922  0.00  0.00     0.030 A 
ATOM     14  C16 NON d   1     -39.486  23.699  -6.816  0.00  0.00    -0.001 A 
ATOM     15  C13 NON d   1     -38.941  26.041  -8.277  0.00  0.00     0.002 A 
ATOM     16  C14 NON d   1     -38.635  25.976  -6.923  0.00  0.00     0.001 A 
ATOM     17  C15 NON d   1     -38.907  24.817  -6.183  0.00  0.00     0.014 A 
BRANCH   9  18
ATOM     18  C8  NON d   1     -40.765  20.269  -7.812  0.00  0.00     0.093 C 
ATOM     19  C9  NON d   1     -39.620  19.274  -7.620  0.00  0.00     0.052 C 
ATOM     20  C10 NON d   1     -41.966  19.880  -6.937  0.00  0.00     0.052 C 
BRANCH  18  21
ATOM     21  O1  NON d   1     -41.175  20.205  -9.181  0.00  0.00    -0.384 OA
ATOM     22  H19 NON d   1     -42.058  20.613  -9.229  0.00  0.00     0.211 HD
ENDBRANCH  18  21
ENDBRANCH   9  18
ENDBRANCH   7   8
ENDBRANCH   6   7
ENDBRANCH   1   6
BRANCH   1  23
ATOM     23  C17 NON d   1     -39.032  19.335  -2.681  0.00  0.00     0.273 C 
BRANCH  23  24
ATOM     24  C18 NON d   1     -40.262  18.607  -3.214  0.00  0.00    -0.033 C 
ATOM     25  C19 NON d   1     -40.293  18.183  -4.554  0.00  0.00     0.009 C 
ATOM     26  C20 NON d   1     -41.456  17.631  -5.126  0.00  0.00     0.012 C 
ATOM     27  C21 NON d   1     -42.636  17.522  -4.386  0.00  0.00    -0.036 C 
ATOM     28  C25 NON d   1     -42.572  17.813  -3.024  0.00  0.00     0.012 C 
ATOM     29  C26 NON d   1     -41.382  18.277  -2.441  0.00  0.00     0.009 C 
BRANCH  27  30
ATOM     30  C22 NON d   1     -43.881  17.045  -5.015  0.00  0.00     0.017 C 
ATOM     31  C23 NON d   1     -45.006  17.782  -5.057  0.00  0.00     0.077 C 
BRANCH  31  32
ATOM     32  C24 NON d   1     -46.254  17.255  -5.679  0.00  0.00     0.264 C 
ATOM     33  O2  NON d   1     -47.018  17.952  -6.332  0.00  0.00    -0.266 OA
ATOM     34  N3  NON d   1     -46.424  15.910  -5.444  0.00  0.00    -0.234 N 
ATOM     35  H31 NON d   1     -45.890  15.395  -4.754  0.00  0.00     0.197 HD
BRANCH  34  36
ATOM     36  O3  NON d   1     -47.661  15.343  -5.810  0.00  0.00    -0.287 OA
ATOM     37  H32 NON d   1     -47.848  15.789  -6.658  0.00  0.00     0.244 HD
ENDBRANCH  34  36
ENDBRANCH  31  32
ENDBRANCH  27  30
ENDBRANCH  23  24
ENDBRANCH   1  23
TORSDOF 11
ENDMDL
MODEL 5
REMARK VINA RESULT:   -15.867      3.038      5.680
REMARK INTER + INTRA:         -22.558
REMARK INTER:                 -19.148
REMARK INTRA:                  -3.410
REMARK CONF_INDEPENDENT:        3.281
REMARK UNBOUND:                -3.410
REMARK  11 active torsions:
REMARK  status: ('A' for Active; 'I' for Inactive)
REMARK    1  A    between atoms: C2_2  and  N1_4 
REMARK    2  A    between atoms: N1_4  and  C4_5 
REMARK    3  A    between atoms: N1_4  and  C17_20 
REMARK    4  A    between atoms: C4_5  and  C5_6 
REMARK    5  A    between atoms: C5_6  and  C6_7 
REMARK    6  A    between atoms: C7_8  and  C8_9 
REMARK    7  A    between atoms: C8_9  and  O1_12 
REMARK    8  A    between atoms: C17_20  and  C18_21 
REMARK    9  A    between atoms: C21_24  and  C22_25 
REMARK   10  A    between atoms: C23_26  and  C24_27 
REMARK       I    between atoms: C24_27  and  N3_29 
REMARK   11  A    between atoms: N3_29  and  O3_30 
ROOT
ATOM      1  N1  NON d   1     -38.917  21.674  -3.431  0.00  0.00    -0.063 N 
ATOM      2  H8  NON d   1     -38.575  23.150  -3.710  0.00  0.00     0.280 HD
ENDROOT
BRANCH   1   3
ATOM      3  C2  NON d   1     -39.564  22.787  -2.586  0.00  0.00     0.180 C 
ATOM      4  C1  NON d   1     -39.528  22.706  -1.048  0.00  0.00     0.039 C 
ATOM      5  C3  NON d   1     -40.638  23.321  -3.582  0.00  0.00     0.039 C 
ENDBRANCH   1   3
BRANCH   1   6
ATOM      6  C4  NON d   1     -37.657  21.795  -4.431  0.00  0.00     0.240 C 
BRANCH   6   7
ATOM      7  C5  NON d   1     -38.034  21.111  -5.777  0.00  0.00     0.069 C 
BRANCH   7   8
ATOM      8  C6  NON d   1     -38.874  21.818  -6.797  0.00  0.00    -0.018 A 
ATOM      9  C7  NON d   1     -39.639  21.139  -7.760  0.00  0.00     0.051 A 
ATOM     10  N2  NON d   1     -40.348  22.094  -8.449  0.00  0.00    -0.356 N 
ATOM     11  C11 NON d   1     -39.989  23.354  -8.049  0.00  0.00     0.043 A 
ATOM     12  H20 NON d   1     -41.016  21.908  -9.185  0.00  0.00     0.166 HD
ATOM     13  C12 NON d   1     -40.422  24.587  -8.538  0.00  0.00     0.030 A 
ATOM     14  C16 NON d   1     -39.056  23.223  -7.023  0.00  0.00    -0.001 A 
ATOM     15  C13 NON d   1     -39.882  25.736  -7.981  0.00  0.00     0.002 A 
ATOM     16  C14 NON d   1     -38.945  25.652  -6.959  0.00  0.00     0.001 A 
ATOM     17  C15 NON d   1     -38.529  24.407  -6.469  0.00  0.00     0.014 A 
BRANCH   9  18
ATOM     18  C8  NON d   1     -39.791  19.667  -8.123  0.00  0.00     0.093 C 
ATOM     19  C9  NON d   1     -38.488  19.073  -8.659  0.00  0.00     0.052 C 
ATOM     20  C10 NON d   1     -40.308  18.841  -6.936  0.00  0.00     0.052 C 
BRANCH  18  21
ATOM     21  O1  NON d   1     -40.765  19.600  -9.167  0.00  0.00    -0.384 OA
ATOM     22  H19 NON d   1     -40.533  20.291  -9.813  0.00  0.00     0.211 HD
ENDBRANCH  18  21
ENDBRANCH   9  18
ENDBRANCH   7   8
ENDBRANCH   6   7
ENDBRANCH   1   6
BRANCH   1  23
ATOM     23  C17 NON d   1     -39.258  20.199  -3.152  0.00  0.00     0.273 C 
BRANCH  23  24
ATOM     24  C18 NON d   1     -40.618  19.592  -3.482  0.00  0.00    -0.033 C 
ATOM     25  C19 NON d   1     -41.032  18.418  -2.827  0.00  0.00     0.009 C 
ATOM     26  C20 NON d   1     -42.215  17.747  -3.194  0.00  0.00     0.012 C 
ATOM     27  C21 NON d   1     -42.999  18.207  -4.255  0.00  0.00    -0.036 C 
ATOM     28  C25 NON d   1     -42.667  19.440  -4.815  0.00  0.00     0.012 C 
ATOM     29  C26 NON d   1     -41.537  20.148  -4.379  0.00  0.00     0.009 C 
BRANCH  27  30
ATOM     30  C22 NON d   1     -44.177  17.446  -4.709  0.00  0.00     0.017 C 
ATOM     31  C23 NON d   1     -45.191  18.009  -5.390  0.00  0.00     0.077 C 
BRANCH  31  32
ATOM     32  C24 NON d   1     -46.380  17.213  -5.810  0.00  0.00     0.264 C 
ATOM     33  O2  NON d   1     -47.426  17.724  -6.185  0.00  0.00    -0.266 OA
ATOM     34  N3  NON d   1     -46.148  15.859  -5.740  0.00  0.00    -0.234 N 
ATOM     35  H31 NON d   1     -45.355  15.454  -5.257  0.00  0.00     0.197 HD
BRANCH  34  36
ATOM     36  O3  NON d   1     -47.255  15.005  -5.921  0.00  0.00    -0.287 OA
ATOM     37  H32 NON d   1     -47.911  15.603  -6.327  0.00  0.00     0.244 HD
ENDBRANCH  34  36
ENDBRANCH  31  32
ENDBRANCH  27  30
ENDBRANCH  23  24
ENDBRANCH   1  23
TORSDOF 11
ENDMDL
MODEL 6
REMARK VINA RESULT:   -15.738      1.442      3.124
REMARK INTER + INTRA:         -21.839
REMARK INTER:                 -19.019
REMARK INTRA:                  -2.820
REMARK CONF_INDEPENDENT:        3.281
REMARK UNBOUND:                -2.820
REMARK  11 active torsions:
REMARK  status: ('A' for Active; 'I' for Inactive)
REMARK    1  A    between atoms: C2_2  and  N1_4 
REMARK    2  A    between atoms: N1_4  and  C4_5 
REMARK    3  A    between atoms: N1_4  and  C17_20 
REMARK    4  A    between atoms: C4_5  and  C5_6 
REMARK    5  A    between atoms: C5_6  and  C6_7 
REMARK    6  A    between atoms: C7_8  and  C8_9 
REMARK    7  A    between atoms: C8_9  and  O1_12 
REMARK    8  A    between atoms: C17_20  and  C18_21 
REMARK    9  A    between atoms: C21_24  and  C22_25 
REMARK   10  A    between atoms: C23_26  and  C24_27 
REMARK       I    between atoms: C24_27  and  N3_29 
REMARK   11  A    between atoms: N3_29  and  O3_30 
ROOT
ATOM      1  N1  NON d   1     -38.643  20.139  -1.667  0.00  0.00    -0.063 N 
ATOM      2  H8  NON d   1     -37.596  19.679  -0.635  0.00  0.00     0.280 HD
ENDROOT
BRANCH   1   3
ATOM      3  C2  NON d   1     -37.514  19.181  -2.090  0.00  0.00     0.180 C 
ATOM      4  C1  NON d   1     -36.228  19.741  -2.727  0.00  0.00     0.039 C 
ATOM      5  C3  NON d   1     -38.323  17.872  -2.339  0.00  0.00     0.039 C 
ENDBRANCH   1   3
BRANCH   1   6
ATOM      6  C4  NON d   1     -38.750  21.007  -0.311  0.00  0.00     0.240 C 
BRANCH   6   7
ATOM      7  C5  NON d   1     -38.341  22.473  -0.635  0.00  0.00     0.069 C 
BRANCH   7   8
ATOM      8  C6  NON d   1     -39.362  23.491  -1.040  0.00  0.00    -0.018 A 
ATOM      9  C7  NON d   1     -40.238  24.101  -0.126  0.00  0.00     0.051 A 
ATOM     10  N2  NON d   1     -40.954  25.041  -0.828  0.00  0.00    -0.356 N 
ATOM     11  C11 NON d   1     -40.659  24.984  -2.165  0.00  0.00     0.043 A 
ATOM     12  H20 NON d   1     -41.641  25.668  -0.432  0.00  0.00     0.166 HD
ATOM     13  C12 NON d   1     -41.208  25.717  -3.217  0.00  0.00     0.030 A 
ATOM     14  C16 NON d   1     -39.674  24.013  -2.340  0.00  0.00    -0.001 A 
ATOM     15  C13 NON d   1     -40.757  25.451  -4.502  0.00  0.00     0.002 A 
ATOM     16  C14 NON d   1     -39.780  24.489  -4.723  0.00  0.00     0.001 A 
ATOM     17  C15 NON d   1     -39.228  23.770  -3.654  0.00  0.00     0.014 A 
BRANCH   9  18
ATOM     18  C8  NON d   1     -40.492  23.905   1.363  0.00  0.00     0.093 C 
ATOM     19  C9  NON d   1     -41.047  22.514   1.671  0.00  0.00     0.052 C 
ATOM     20  C10 NON d   1     -39.229  24.175   2.195  0.00  0.00     0.052 C 
BRANCH  18  21
ATOM     21  O1  NON d   1     -41.483  24.865   1.740  0.00  0.00    -0.384 OA
ATOM     22  H19 NON d   1     -41.543  25.509   1.012  0.00  0.00     0.211 HD
ENDBRANCH  18  21
ENDBRANCH   9  18
ENDBRANCH   7   8
ENDBRANCH   6   7
ENDBRANCH   1   6
BRANCH   1  23
ATOM     23  C17 NON d   1     -39.689  20.599  -2.697  0.00  0.00     0.273 C 
BRANCH  23  24
ATOM     24  C18 NON d   1     -40.710  19.648  -3.317  0.00  0.00    -0.033 C 
ATOM     25  C19 NON d   1     -41.067  19.796  -4.668  0.00  0.00     0.009 C 
ATOM     26  C20 NON d   1     -42.100  19.032  -5.246  0.00  0.00     0.012 C 
ATOM     27  C21 NON d   1     -42.835  18.126  -4.478  0.00  0.00    -0.036 C 
ATOM     28  C25 NON d   1     -42.398  17.878  -3.178  0.00  0.00     0.012 C 
ATOM     29  C26 NON d   1     -41.306  18.579  -2.639  0.00  0.00     0.009 C 
BRANCH  27  30
ATOM     30  C22 NON d   1     -43.985  17.407  -5.055  0.00  0.00     0.017 C 
ATOM     31  C23 NON d   1     -45.200  17.968  -5.197  0.00  0.00     0.077 C 
BRANCH  31  32
ATOM     32  C24 NON d   1     -46.347  17.201  -5.760  0.00  0.00     0.264 C 
ATOM     33  O2  NON d   1     -47.362  17.735  -6.186  0.00  0.00    -0.266 OA
ATOM     34  N3  NON d   1     -46.116  15.845  -5.757  0.00  0.00    -0.234 N 
ATOM     35  H31 NON d   1     -45.363  15.410  -5.238  0.00  0.00     0.197 HD
BRANCH  34  36
ATOM     36  O3  NON d   1     -47.201  15.005  -6.080  0.00  0.00    -0.287 OA
ATOM     37  H32 NON d   1     -47.847  15.637  -6.447  0.00  0.00     0.244 HD
ENDBRANCH  34  36
ENDBRANCH  31  32
ENDBRANCH  27  30
ENDBRANCH  23  24
ENDBRANCH   1  23
TORSDOF 11
ENDMDL
MODEL 7
REMARK VINA RESULT:   -15.684      2.747      5.176
REMARK INTER + INTRA:         -22.393
REMARK INTER:                 -18.965
REMARK INTRA:                  -3.427
REMARK CONF_INDEPENDENT:        3.281
REMARK UNBOUND:                -3.427
REMARK  11 active torsions:
REMARK  status: ('A' for Active; 'I' for Inactive)
REMARK    1  A    between atoms: C2_2  and  N1_4 
REMARK    2  A    between atoms: N1_4  and  C4_5 
REMARK    3  A    between atoms: N1_4  and  C17_20 
REMARK    4  A    between atoms: C4_5  and  C5_6 
REMARK    5  A    between atoms: C5_6  and  C6_7 
REMARK    6  A    between atoms: C7_8  and  C8_9 
REMARK    7  A    between atoms: C8_9  and  O1_12 
REMARK    8  A    between atoms: C17_20  and  C18_21 
REMARK    9  A    between atoms: C21_24  and  C22_25 
REMARK   10  A    between atoms: C23_26  and  C24_27 
REMARK       I    between atoms: C24_27  and  N3_29 
REMARK   11  A    between atoms: N3_29  and  O3_30 
ROOT
ATOM      1  N1  NON d   1     -38.542  20.772  -2.584  0.00  0.00    -0.063 N 
ATOM      2  H8  NON d   1     -37.921  22.163  -2.815  0.00  0.00     0.280 HD
ENDROOT
BRANCH   1   3
ATOM      3  C2  NON d   1     -38.782  21.902  -1.565  0.00  0.00     0.180 C 
ATOM      4  C1  NON d   1     -38.379  21.708  -0.091  0.00  0.00     0.039 C 
ATOM      5  C3  NON d   1     -39.975  22.649  -2.236  0.00  0.00     0.039 C 
ENDBRANCH   1   3
BRANCH   1   6
ATOM      6  C4  NON d   1     -37.456  20.728  -3.776  0.00  0.00     0.240 C 
BRANCH   6   7
ATOM      7  C5  NON d   1     -38.165  20.221  -5.065  0.00  0.00     0.069 C 
BRANCH   7   8
ATOM      8  C6  NON d   1     -38.821  21.176  -6.014  0.00  0.00    -0.018 A 
ATOM      9  C7  NON d   1     -39.513  20.756  -7.164  0.00  0.00     0.051 A 
ATOM     10  N2  NON d   1     -40.062  21.882  -7.730  0.00  0.00    -0.356 N 
ATOM     11  C11 NON d   1     -39.661  23.010  -7.064  0.00  0.00     0.043 A 
ATOM     12  H20 NON d   1     -40.647  21.896  -8.553  0.00  0.00     0.166 HD
ATOM     13  C12 NON d   1     -39.940  24.347  -7.353  0.00  0.00     0.030 A 
ATOM     14  C16 NON d   1     -38.871  22.609  -5.988  0.00  0.00    -0.001 A 
ATOM     15  C13 NON d   1     -39.388  25.321  -6.535  0.00  0.00     0.002 A 
ATOM     16  C14 NON d   1     -38.589  24.966  -5.454  0.00  0.00     0.001 A 
ATOM     17  C15 NON d   1     -38.329  23.619  -5.168  0.00  0.00     0.014 A 
BRANCH   9  18
ATOM     18  C8  NON d   1     -39.729  19.395  -7.812  0.00  0.00     0.093 C 
ATOM     19  C9  NON d   1     -38.444  18.850  -8.437  0.00  0.00     0.052 C 
ATOM     20  C10 NON d   1     -40.315  18.380  -6.820  0.00  0.00     0.052 C 
BRANCH  18  21
ATOM     21  O1  NON d   1     -40.679  19.587  -8.864  0.00  0.00    -0.384 OA
ATOM     22  H19 NON d   1     -40.483  20.452  -9.266  0.00  0.00     0.211 HD
ENDBRANCH  18  21
ENDBRANCH   9  18
ENDBRANCH   7   8
ENDBRANCH   6   7
ENDBRANCH   1   6
BRANCH   1  23
ATOM     23  C17 NON d   1     -39.162  19.382  -2.353  0.00  0.00     0.273 C 
BRANCH  23  24
ATOM     24  C18 NON d   1     -40.486  18.956  -2.980  0.00  0.00    -0.033 C 
ATOM     25  C19 NON d   1     -41.092  17.754  -2.575  0.00  0.00     0.009 C 
ATOM     26  C20 NON d   1     -42.240  17.252  -3.220  0.00  0.00     0.012 C 
ATOM     27  C21 NON d   1     -42.793  17.918  -4.316  0.00  0.00    -0.036 C 
ATOM     28  C25 NON d   1     -42.279  19.175  -4.635  0.00  0.00     0.012 C 
ATOM     29  C26 NON d   1     -41.192  19.709  -3.926  0.00  0.00     0.009 C 
BRANCH  27  30
ATOM     30  C22 NON d   1     -43.928  17.339  -5.058  0.00  0.00     0.017 C 
ATOM     31  C23 NON d   1     -45.190  17.784  -4.923  0.00  0.00     0.077 C 
BRANCH  31  32
ATOM     32  C24 NON d   1     -46.317  17.155  -5.670  0.00  0.00     0.264 C 
ATOM     33  O2  NON d   1     -47.131  17.801  -6.315  0.00  0.00    -0.266 OA
ATOM     34  N3  NON d   1     -46.314  15.784  -5.557  0.00  0.00    -0.234 N 
ATOM     35  H31 NON d   1     -45.755  15.284  -4.877  0.00  0.00     0.197 HD
BRANCH  34  36
ATOM     36  O3  NON d   1     -47.438  15.094  -6.052  0.00  0.00    -0.287 OA
ATOM     37  H32 NON d   1     -47.844  15.759  -6.641  0.00  0.00     0.244 HD
ENDBRANCH  34  36
ENDBRANCH  31  32
ENDBRANCH  27  30
ENDBRANCH  23  24
ENDBRANCH   1  23
TORSDOF 11
ENDMDL
MODEL 8
REMARK VINA RESULT:   -15.204      2.689      5.423
REMARK INTER + INTRA:         -22.317
REMARK INTER:                 -18.485
REMARK INTRA:                  -3.831
REMARK CONF_INDEPENDENT:        3.281
REMARK UNBOUND:                -3.831
REMARK  11 active torsions:
REMARK  status: ('A' for Active; 'I' for Inactive)
REMARK    1  A    between atoms: C2_2  and  N1_4 
REMARK    2  A    between atoms: N1_4  and  C4_5 
REMARK    3  A    between atoms: N1_4  and  C17_20 
REMARK    4  A    between atoms: C4_5  and  C5_6 
REMARK    5  A    between atoms: C5_6  and  C6_7 
REMARK    6  A    between atoms: C7_8  and  C8_9 
REMARK    7  A    between atoms: C8_9  and  O1_12 
REMARK    8  A    between atoms: C17_20  and  C18_21 
REMARK    9  A    between atoms: C21_24  and  C22_25 
REMARK   10  A    between atoms: C23_26  and  C24_27 
REMARK       I    between atoms: C24_27  and  N3_29 
REMARK   11  A    between atoms: N3_29  and  O3_30 
ROOT
ATOM      1  N1  NON d   1     -38.270  20.057  -2.334  0.00  0.00    -0.063 N 
ATOM      2  H8  NON d   1     -37.640  21.459  -2.234  0.00  0.00     0.280 HD
ENDROOT
BRANCH   1   3
ATOM      3  C2  NON d   1     -38.737  21.036  -1.240  0.00  0.00     0.180 C 
ATOM      4  C1  NON d   1     -37.844  21.304  -0.014  0.00  0.00     0.039 C 
ATOM      5  C3  NON d   1     -40.285  20.943  -1.409  0.00  0.00     0.039 C 
ENDBRANCH   1   3
BRANCH   1   6
ATOM      6  C4  NON d   1     -36.960  20.166  -3.267  0.00  0.00     0.240 C 
BRANCH   6   7
ATOM      7  C5  NON d   1     -37.219  21.252  -4.351  0.00  0.00     0.069 C 
BRANCH   7   8
ATOM      8  C6  NON d   1     -38.361  21.130  -5.312  0.00  0.00    -0.018 A 
ATOM      9  C7  NON d   1     -39.489  21.967  -5.270  0.00  0.00     0.051 A 
ATOM     10  N2  NON d   1     -40.271  21.635  -6.350  0.00  0.00    -0.356 N 
ATOM     11  C11 NON d   1     -39.754  20.554  -7.015  0.00  0.00     0.043 A 
ATOM     12  H20 NON d   1     -41.136  22.090  -6.607  0.00  0.00     0.166 HD
ATOM     13  C12 NON d   1     -40.272  19.871  -8.116  0.00  0.00     0.030 A 
ATOM     14  C16 NON d   1     -38.563  20.199  -6.385  0.00  0.00    -0.001 A 
ATOM     15  C13 NON d   1     -39.569  18.775  -8.594  0.00  0.00     0.002 A 
ATOM     16  C14 NON d   1     -38.378  18.383  -7.994  0.00  0.00     0.001 A 
ATOM     17  C15 NON d   1     -37.864  19.088  -6.897  0.00  0.00     0.014 A 
BRANCH   9  18
ATOM     18  C8  NON d   1     -39.935  23.068  -4.316  0.00  0.00     0.093 C 
ATOM     19  C9  NON d   1     -39.869  24.450  -4.967  0.00  0.00     0.052 C 
ATOM     20  C10 NON d   1     -41.343  22.803  -3.763  0.00  0.00     0.052 C 
BRANCH  18  21
ATOM     21  O1  NON d   1     -39.018  23.057  -3.219  0.00  0.00    -0.384 OA
ATOM     22  H19 NON d   1     -39.165  23.881  -2.721  0.00  0.00     0.211 HD
ENDBRANCH  18  21
ENDBRANCH   9  18
ENDBRANCH   7   8
ENDBRANCH   6   7
ENDBRANCH   1   6
BRANCH   1  23
ATOM     23  C17 NON d   1     -38.901  18.656  -2.433  0.00  0.00     0.273 C 
BRANCH  23  24
ATOM     24  C18 NON d   1     -40.231  18.399  -3.135  0.00  0.00    -0.033 C 
ATOM     25  C19 NON d   1     -41.351  18.011  -2.380  0.00  0.00     0.009 C 
ATOM     26  C20 NON d   1     -42.561  17.632  -2.997  0.00  0.00     0.012 C 
ATOM     27  C21 NON d   1     -42.673  17.591  -4.389  0.00  0.00    -0.036 C 
ATOM     28  C25 NON d   1     -41.613  18.103  -5.136  0.00  0.00     0.012 C 
ATOM     29  C26 NON d   1     -40.446  18.566  -4.509  0.00  0.00     0.009 C 
BRANCH  27  30
ATOM     30  C22 NON d   1     -43.901  17.092  -5.033  0.00  0.00     0.017 C 
ATOM     31  C23 NON d   1     -45.026  17.824  -5.123  0.00  0.00     0.077 C 
BRANCH  31  32
ATOM     32  C24 NON d   1     -46.258  17.275  -5.759  0.00  0.00     0.264 C 
ATOM     33  O2  NON d   1     -46.983  17.939  -6.488  0.00  0.00    -0.266 OA
ATOM     34  N3  NON d   1     -46.460  15.952  -5.443  0.00  0.00    -0.234 N 
ATOM     35  H31 NON d   1     -45.963  15.476  -4.700  0.00  0.00     0.197 HD
BRANCH  34  36
ATOM     36  O3  NON d   1     -47.691  15.380  -5.821  0.00  0.00    -0.287 OA
ATOM     37  H32 NON d   1     -48.004  16.000  -6.507  0.00  0.00     0.244 HD
ENDBRANCH  34  36
ENDBRANCH  31  32
ENDBRANCH  27  30
ENDBRANCH  23  24
ENDBRANCH   1  23
TORSDOF 11
ENDMDL
MODEL 9
REMARK VINA RESULT:   -14.941      2.758      5.148
REMARK INTER + INTRA:         -22.045
REMARK INTER:                 -18.222
REMARK INTRA:                  -3.822
REMARK CONF_INDEPENDENT:        3.281
REMARK UNBOUND:                -3.822
REMARK  11 active torsions:
REMARK  status: ('A' for Active; 'I' for Inactive)
REMARK    1  A    between atoms: C2_2  and  N1_4 
REMARK    2  A    between atoms: N1_4  and  C4_5 
REMARK    3  A    between atoms: N1_4  and  C17_20 
REMARK    4  A    between atoms: C4_5  and  C5_6 
REMARK    5  A    between atoms: C5_6  and  C6_7 
REMARK    6  A    between atoms: C7_8  and  C8_9 
REMARK    7  A    between atoms: C8_9  and  O1_12 
REMARK    8  A    between atoms: C17_20  and  C18_21 
REMARK    9  A    between atoms: C21_24  and  C22_25 
REMARK   10  A    between atoms: C23_26  and  C24_27 
REMARK       I    between atoms: C24_27  and  N3_29 
REMARK   11  A    between atoms: N3_29  and  O3_30 
ROOT
ATOM      1  N1  NON d   1     -37.788  19.496  -2.531  0.00  0.00    -0.063 N 
ATOM      2  H8  NON d   1     -36.322  19.467  -3.003  0.00  0.00     0.280 HD
ENDROOT
BRANCH   1   3
ATOM      3  C2  NON d   1     -37.141  18.163  -2.953  0.00  0.00     0.180 C 
ATOM      4  C1  NON d   1     -36.791  17.911  -4.431  0.00  0.00     0.039 C 
ATOM      5  C3  NON d   1     -37.656  17.221  -1.822  0.00  0.00     0.039 C 
ENDBRANCH   1   3
BRANCH   1   6
ATOM      6  C4  NON d   1     -37.235  20.990  -2.784  0.00  0.00     0.240 C 
BRANCH   6   7
ATOM      7  C5  NON d   1     -37.146  21.226  -4.319  0.00  0.00     0.069 C 
BRANCH   7   8
ATOM      8  C6  NON d   1     -38.371  21.202  -5.179  0.00  0.00    -0.018 A 
ATOM      9  C7  NON d   1     -39.464  22.062  -4.976  0.00  0.00     0.051 A 
ATOM     10  N2  NON d   1     -40.349  21.829  -6.001  0.00  0.00    -0.356 N 
ATOM     11  C11 NON d   1     -39.928  20.787  -6.785  0.00  0.00     0.043 A 
ATOM     12  H20 NON d   1     -41.219  22.323  -6.146  0.00  0.00     0.166 HD
ATOM     13  C12 NON d   1     -40.562  20.199  -7.879  0.00  0.00     0.030 A 
ATOM     14  C16 NON d   1     -38.697  20.358  -6.292  0.00  0.00    -0.001 A 
ATOM     15  C13 NON d   1     -39.939  19.124  -8.495  0.00  0.00     0.002 A 
ATOM     16  C14 NON d   1     -38.713  18.660  -8.034  0.00  0.00     0.001 A 
ATOM     17  C15 NON d   1     -38.081  19.269  -6.942  0.00  0.00     0.014 A 
BRANCH   9  18
ATOM     18  C8  NON d   1     -39.789  23.102  -3.910  0.00  0.00     0.093 C 
ATOM     19  C9  NON d   1     -40.101  22.457  -2.559  0.00  0.00     0.052 C 
ATOM     20  C10 NON d   1     -38.663  24.135  -3.764  0.00  0.00     0.052 C 
BRANCH  18  21
ATOM     21  O1  NON d   1     -40.965  23.787  -4.350  0.00  0.00    -0.384 OA
ATOM     22  H19 NON d   1     -41.337  24.235  -3.570  0.00  0.00     0.211 HD
ENDBRANCH  18  21
ENDBRANCH   9  18
ENDBRANCH   7   8
ENDBRANCH   6   7
ENDBRANCH   1   6
BRANCH   1  23
ATOM     23  C17 NON d   1     -39.253  19.525  -2.060  0.00  0.00     0.273 C 
BRANCH  23  24
ATOM     24  C18 NON d   1     -40.371  18.794  -2.797  0.00  0.00    -0.033 C 
ATOM     25  C19 NON d   1     -40.343  18.716  -4.201  0.00  0.00     0.009 C 
ATOM     26  C20 NON d   1     -41.418  18.171  -4.931  0.00  0.00     0.012 C 
ATOM     27  C21 NON d   1     -42.572  17.725  -4.281  0.00  0.00    -0.036 C 
ATOM     28  C25 NON d   1     -42.549  17.675  -2.887  0.00  0.00     0.012 C 
ATOM     29  C26 NON d   1     -41.434  18.135  -2.168  0.00  0.00     0.009 C 
BRANCH  27  30
ATOM     30  C22 NON d   1     -43.738  17.256  -5.050  0.00  0.00     0.017 C 
ATOM     31  C23 NON d   1     -44.969  17.780  -4.901  0.00  0.00     0.077 C 
BRANCH  31  32
ATOM     32  C24 NON d   1     -46.131  17.262  -5.678  0.00  0.00     0.264 C 
ATOM     33  O2  NON d   1     -46.777  17.955  -6.452  0.00  0.00    -0.266 OA
ATOM     34  N3  NON d   1     -46.367  15.929  -5.431  0.00  0.00    -0.234 N 
ATOM     35  H31 NON d   1     -45.949  15.424  -4.659  0.00  0.00     0.197 HD
BRANCH  34  36
ATOM     36  O3  NON d   1     -47.554  15.378  -5.952  0.00  0.00    -0.287 OA
ATOM     37  H32 NON d   1     -47.931  16.131  -6.446  0.00  0.00     0.244 HD
ENDBRANCH  34  36
ENDBRANCH  31  32
ENDBRANCH  27  30
ENDBRANCH  23  24
ENDBRANCH   1  23
TORSDOF 11
ENDMDL
