MODEL 1
REMARK VINA RESULT:   -14.899      0.000      0.000
REMARK INTER + INTRA:         -18.275
REMARK INTER:                 -16.689
REMARK INTRA:                  -1.586
REMARK CONF_INDEPENDENT:        1.790
REMARK UNBOUND:                -1.586
REMARK  6 active torsions:
REMARK  status: ('A' for Active; 'I' for Inactive)
REMARK    1  A    between atoms: C1_2  and  C2_3 
REMARK       I    between atoms: C1_2  and  N4_25 
REMARK    2  A    between atoms: C3_4  and  C4_5 
REMARK    3  A    between atoms: N1_7  and  C6_8 
REMARK    4  A    between atoms: C12_15  and  C13_16 
REMARK    5  A    between atoms: C16_19  and  N3_20 
REMARK    6  A    between atoms: N4_25  and  C19_26 
ROOT
ATOM      1  C4  NON d   1     -40.191  19.219  -5.090  0.00  0.00     0.013 C 
ATOM      2  C5  NON d   1     -39.457  20.191  -4.451  0.00  0.00     0.132 C 
ATOM      3  N1  NON d   1     -40.169  20.592  -3.355  0.00  0.00    -0.244 N 
ATOM      4  N2  NON d   1     -41.422  20.093  -3.384  0.00  0.00    -0.166 NA
ATOM      5  C12 NON d   1     -41.460  19.224  -4.415  0.00  0.00     0.099 C 
ENDROOT
BRANCH   1   6
ATOM      6  C3  NON d   1     -39.714  18.490  -6.227  0.00  0.00     0.021 C 
ATOM      7  C2  NON d   1     -39.769  18.813  -7.535  0.00  0.00     0.075 C 
BRANCH   7   8
ATOM      8  C1  NON d   1     -40.339  20.061  -8.128  0.00  0.00     0.245 C 
ATOM      9  O1  NON d   1     -41.544  20.266  -8.182  0.00  0.00    -0.268 OA
ATOM     10  N4  NON d   1     -39.350  20.918  -8.568  0.00  0.00    -0.324 N 
ATOM     11  H13 NON d   1     -38.403  20.755  -8.249  0.00  0.00     0.169 HD
BRANCH  10  12
ATOM     12  C19 NON d   1     -39.523  22.008  -9.447  0.00  0.00     0.035 A 
ATOM     13  C20 NON d   1     -39.183  21.822 -10.793  0.00  0.00     0.031 A 
ATOM     14  C21 NON d   1     -39.382  22.848 -11.724  0.00  0.00     0.021 A 
ATOM     15  C22 NON d   1     -39.951  24.050 -11.314  0.00  0.00     0.011 A 
ATOM     16 Br1  NON d   1     -40.252  25.427 -12.574  0.00  0.00    -0.051 Br
ATOM     17  C23 NON d   1     -40.306  24.243  -9.982  0.00  0.00     0.021 A 
ATOM     18  C24 NON d   1     -40.081  23.225  -9.048  0.00  0.00     0.031 A 
ENDBRANCH  10  12
ENDBRANCH   7   8
ENDBRANCH   1   6
BRANCH   5  19
ATOM     19  C13 NON d   1     -42.733  18.507  -4.667  0.00  0.00    -0.005 A 
ATOM     20  C14 NON d   1     -43.833  19.226  -5.184  0.00  0.00     0.016 A 
ATOM     21  C15 NON d   1     -45.047  18.604  -5.498  0.00  0.00     0.037 A 
ATOM     22  C16 NON d   1     -45.178  17.230  -5.302  0.00  0.00     0.102 A 
ATOM     23  C17 NON d   1     -44.117  16.493  -4.765  0.00  0.00     0.037 A 
ATOM     24  C18 NON d   1     -42.911  17.136  -4.436  0.00  0.00     0.016 A 
BRANCH  22  25
ATOM     25  N3  NON d   1     -46.432  16.557  -5.664  0.00  0.00    -0.116 N 
ATOM     26  O2  NON d   1     -46.400  15.327  -5.810  0.00  0.00    -0.532 OA
ATOM     27  O3  NON d   1     -47.443  17.257  -5.810  0.00  0.00    -0.532 OA
ENDBRANCH  22  25
ENDBRANCH   5  19
BRANCH   3  28
ATOM     28  C6  NON d   1     -39.729  21.438  -2.300  0.00  0.00     0.058 A 
ATOM     29  C7  NON d   1     -39.154  22.689  -2.571  0.00  0.00     0.031 A 
ATOM     30  C8  NON d   1     -38.720  23.503  -1.523  0.00  0.00     0.002 A 
ATOM     31  C9  NON d   1     -38.857  23.077  -0.204  0.00  0.00     0.000 A 
ATOM     32  C10 NON d   1     -39.420  21.833   0.072  0.00  0.00     0.002 A 
ATOM     33  C11 NON d   1     -39.851  21.011  -0.970  0.00  0.00     0.031 A 
ENDBRANCH   3  28
TORSDOF 6
ENDMDL
MODEL 2
REMARK VINA RESULT:   -14.802      1.433      2.011
REMARK INTER + INTRA:         -18.348
REMARK INTER:                 -16.592
REMARK INTRA:                  -1.756
REMARK CONF_INDEPENDENT:        1.790
REMARK UNBOUND:                -1.756
REMARK  6 active torsions:
REMARK  status: ('A' for Active; 'I' for Inactive)
REMARK    1  A    between atoms: C1_2  and  C2_3 
REMARK       I    between atoms: C1_2  and  N4_25 
REMARK    2  A    between atoms: C3_4  and  C4_5 
REMARK    3  A    between atoms: N1_7  and  C6_8 
REMARK    4  A    between atoms: C12_15  and  C13_16 
REMARK    5  A    between atoms: C16_19  and  N3_20 
REMARK    6  A    between atoms: N4_25  and  C19_26 
ROOT
ATOM      1  C4  NON d   1     -40.008  18.929  -4.845  0.00  0.00     0.013 C 
ATOM      2  C5  NON d   1     -39.182  19.710  -4.071  0.00  0.00     0.132 C 
ATOM      3  N1  NON d   1     -39.830  19.956  -2.893  0.00  0.00    -0.244 N 
ATOM      4  N2  NON d   1     -41.120  19.564  -2.960  0.00  0.00    -0.166 NA
ATOM      5  C12 NON d   1     -41.255  18.904  -4.129  0.00  0.00     0.099 C 
ENDROOT
BRANCH   1   6
ATOM      6  C3  NON d   1     -39.622  18.388  -6.113  0.00  0.00     0.021 C 
ATOM      7  C2  NON d   1     -39.804  18.892  -7.350  0.00  0.00     0.075 C 
BRANCH   7   8
ATOM      8  C1  NON d   1     -40.453  20.191  -7.703  0.00  0.00     0.245 C 
ATOM      9  O1  NON d   1     -41.446  20.252  -8.416  0.00  0.00    -0.268 OA
ATOM     10  N4  NON d   1     -39.810  21.262  -7.115  0.00  0.00    -0.324 N 
ATOM     11  H13 NON d   1     -39.164  21.072  -6.359  0.00  0.00     0.169 HD
BRANCH  10  12
ATOM     12  C19 NON d   1     -39.948  22.619  -7.479  0.00  0.00     0.035 A 
ATOM     13  C20 NON d   1     -39.758  23.585  -6.483  0.00  0.00     0.031 A 
ATOM     14  C21 NON d   1     -39.828  24.948  -6.793  0.00  0.00     0.021 A 
ATOM     15  C22 NON d   1     -40.057  25.345  -8.107  0.00  0.00     0.011 A 
ATOM     16 Br1  NON d   1     -40.120  27.185  -8.536  0.00  0.00    -0.051 Br
ATOM     17  C23 NON d   1     -40.233  24.395  -9.109  0.00  0.00     0.021 A 
ATOM     18  C24 NON d   1     -40.190  23.033  -8.791  0.00  0.00     0.031 A 
ENDBRANCH  10  12
ENDBRANCH   7   8
ENDBRANCH   1   6
BRANCH   5  19
ATOM     19  C13 NON d   1     -42.587  18.341  -4.454  0.00  0.00    -0.005 A 
ATOM     20  C14 NON d   1     -43.556  19.177  -5.052  0.00  0.00     0.016 A 
ATOM     21  C15 NON d   1     -44.815  18.700  -5.436  0.00  0.00     0.037 A 
ATOM     22  C16 NON d   1     -45.125  17.357  -5.230  0.00  0.00     0.102 A 
ATOM     23  C17 NON d   1     -44.198  16.508  -4.614  0.00  0.00     0.037 A 
ATOM     24  C18 NON d   1     -42.946  17.007  -4.216  0.00  0.00     0.016 A 
BRANCH  22  25
ATOM     25  N3  NON d   1     -46.426  16.832  -5.664  0.00  0.00    -0.116 N 
ATOM     26  O2  NON d   1     -47.221  17.629  -6.181  0.00  0.00    -0.532 OA
ATOM     27  O3  NON d   1     -46.654  15.629  -5.482  0.00  0.00    -0.532 OA
ENDBRANCH  22  25
ENDBRANCH   5  19
BRANCH   3  28
ATOM     28  C6  NON d   1     -39.296  20.559  -1.721  0.00  0.00     0.058 A 
ATOM     29  C7  NON d   1     -40.136  21.178  -0.783  0.00  0.00     0.031 A 
ATOM     30  C8  NON d   1     -39.594  21.773   0.358  0.00  0.00     0.002 A 
ATOM     31  C9  NON d   1     -38.217  21.753   0.570  0.00  0.00     0.000 A 
ATOM     32  C10 NON d   1     -37.377  21.146  -0.361  0.00  0.00     0.002 A 
ATOM     33  C11 NON d   1     -37.910  20.555  -1.507  0.00  0.00     0.031 A 
ENDBRANCH   3  28
TORSDOF 6
ENDMDL
MODEL 3
REMARK VINA RESULT:   -13.969      3.571      7.136
REMARK INTER + INTRA:         -17.067
REMARK INTER:                 -15.758
REMARK INTRA:                  -1.308
REMARK CONF_INDEPENDENT:        1.790
REMARK UNBOUND:                -1.308
REMARK  6 active torsions:
REMARK  status: ('A' for Active; 'I' for Inactive)
REMARK    1  A    between atoms: C1_2  and  C2_3 
REMARK       I    between atoms: C1_2  and  N4_25 
REMARK    2  A    between atoms: C3_4  and  C4_5 
REMARK    3  A    between atoms: N1_7  and  C6_8 
REMARK    4  A    between atoms: C12_15  and  C13_16 
REMARK    5  A    between atoms: C16_19  and  N3_20 
REMARK    6  A    between atoms: N4_25  and  C19_26 
ROOT
ATOM      1  C4  NON d   1     -41.023  19.539  -3.783  0.00  0.00     0.013 C 
ATOM      2  C5  NON d   1     -40.068  20.386  -4.295  0.00  0.00     0.132 C 
ATOM      3  N1  NON d   1     -40.543  20.877  -5.480  0.00  0.00    -0.244 N 
ATOM      4  N2  NON d   1     -41.653  20.214  -5.867  0.00  0.00    -0.166 NA
ATOM      5  C12 NON d   1     -41.993  19.410  -4.837  0.00  0.00     0.099 C 
ENDROOT
BRANCH   1   6
ATOM      6  C3  NON d   1     -40.917  18.916  -2.499  0.00  0.00     0.021 C 
ATOM      7  C2  NON d   1     -40.580  19.456  -1.310  0.00  0.00     0.075 C 
BRANCH   7   8
ATOM      8  C1  NON d   1     -40.248  20.888  -1.038  0.00  0.00     0.245 C 
ATOM      9  O1  NON d   1     -39.760  21.618  -1.890  0.00  0.00    -0.268 OA
ATOM     10  N4  NON d   1     -40.578  21.255   0.252  0.00  0.00    -0.324 N 
ATOM     11  H13 NON d   1     -41.194  20.647   0.776  0.00  0.00     0.169 HD
BRANCH  10  12
ATOM     12  C19 NON d   1     -40.121  22.402   0.934  0.00  0.00     0.035 A 
ATOM     13  C20 NON d   1     -41.053  23.408   1.220  0.00  0.00     0.031 A 
ATOM     14  C21 NON d   1     -40.673  24.544   1.942  0.00  0.00     0.021 A 
ATOM     15  C22 NON d   1     -39.366  24.662   2.406  0.00  0.00     0.011 A 
ATOM     16 Br1  NON d   1     -38.857  26.181   3.408  0.00  0.00    -0.051 Br
ATOM     17  C23 NON d   1     -38.433  23.664   2.141  0.00  0.00     0.021 A 
ATOM     18  C24 NON d   1     -38.809  22.541   1.395  0.00  0.00     0.031 A 
ENDBRANCH  10  12
ENDBRANCH   7   8
ENDBRANCH   1   6
BRANCH   5  19
ATOM     19  C13 NON d   1     -43.205  18.571  -4.987  0.00  0.00    -0.005 A 
ATOM     20  C14 NON d   1     -44.355  19.131  -5.586  0.00  0.00     0.016 A 
ATOM     21  C15 NON d   1     -45.517  18.382  -5.810  0.00  0.00     0.037 A 
ATOM     22  C16 NON d   1     -45.542  17.039  -5.438  0.00  0.00     0.102 A 
ATOM     23  C17 NON d   1     -44.429  16.461  -4.817  0.00  0.00     0.037 A 
ATOM     24  C18 NON d   1     -43.278  17.231  -4.581  0.00  0.00     0.016 A 
BRANCH  22  25
ATOM     25  N3  NON d   1     -46.738  16.230  -5.703  0.00  0.00    -0.116 N 
ATOM     26  O2  NON d   1     -46.589  15.005  -5.812  0.00  0.00    -0.532 OA
ATOM     27  O3  NON d   1     -47.822  16.819  -5.810  0.00  0.00    -0.532 OA
ENDBRANCH  22  25
ENDBRANCH   5  19
BRANCH   3  28
ATOM     28  C6  NON d   1     -39.988  21.921  -6.269  0.00  0.00     0.058 A 
ATOM     29  C7  NON d   1     -39.901  21.802  -7.664  0.00  0.00     0.031 A 
ATOM     30  C8  NON d   1     -39.345  22.833  -8.423  0.00  0.00     0.002 A 
ATOM     31  C9  NON d   1     -38.876  23.986  -7.798  0.00  0.00     0.000 A 
ATOM     32  C10 NON d   1     -38.951  24.108  -6.412  0.00  0.00     0.002 A 
ATOM     33  C11 NON d   1     -39.500  23.079  -5.646  0.00  0.00     0.031 A 
ENDBRANCH   3  28
TORSDOF 6
ENDMDL
MODEL 4
REMARK VINA RESULT:   -13.539      2.358      3.013
REMARK INTER + INTRA:         -17.377
REMARK INTER:                 -15.329
REMARK INTRA:                  -2.048
REMARK CONF_INDEPENDENT:        1.790
REMARK UNBOUND:                -2.048
REMARK  6 active torsions:
REMARK  status: ('A' for Active; 'I' for Inactive)
REMARK    1  A    between atoms: C1_2  and  C2_3 
REMARK       I    between atoms: C1_2  and  N4_25 
REMARK    2  A    between atoms: C3_4  and  C4_5 
REMARK    3  A    between atoms: N1_7  and  C6_8 
REMARK    4  A    between atoms: C12_15  and  C13_16 
REMARK    5  A    between atoms: C16_19  and  N3_20 
REMARK    6  A    between atoms: N4_25  and  C19_26 
ROOT
ATOM      1  C4  NON d   1     -40.007  19.167  -4.996  0.00  0.00     0.013 C 
ATOM      2  C5  NON d   1     -39.193  19.919  -4.183  0.00  0.00     0.132 C 
ATOM      3  N1  NON d   1     -39.806  20.021  -2.965  0.00  0.00    -0.244 N 
ATOM      4  N2  NON d   1     -41.075  19.567  -3.024  0.00  0.00    -0.166 NA
ATOM      5  C12 NON d   1     -41.222  19.008  -4.243  0.00  0.00     0.099 C 
ENDROOT
BRANCH   1   6
ATOM      6  C3  NON d   1     -39.644  18.764  -6.321  0.00  0.00     0.021 C 
ATOM      7  C2  NON d   1     -39.336  19.523  -7.392  0.00  0.00     0.075 C 
BRANCH   7   8
ATOM      8  C1  NON d   1     -39.275  21.016  -7.447  0.00  0.00     0.245 C 
ATOM      9  O1  NON d   1     -38.493  21.610  -8.175  0.00  0.00    -0.268 OA
ATOM     10  N4  NON d   1     -40.204  21.597  -6.607  0.00  0.00    -0.324 N 
ATOM     11  H13 NON d   1     -40.952  21.016  -6.249  0.00  0.00     0.169 HD
BRANCH  10  12
ATOM     12  C19 NON d   1     -40.209  22.940  -6.173  0.00  0.00     0.035 A 
ATOM     13  C20 NON d   1     -40.420  23.186  -4.810  0.00  0.00     0.031 A 
ATOM     14  C21 NON d   1     -40.382  24.493  -4.311  0.00  0.00     0.021 A 
ATOM     15  C22 NON d   1     -40.103  25.552  -5.169  0.00  0.00     0.011 A 
ATOM     16 Br1  NON d   1     -40.020  27.315  -4.492  0.00  0.00    -0.051 Br
ATOM     17  C23 NON d   1     -39.878  25.320  -6.523  0.00  0.00     0.021 A 
ATOM     18  C24 NON d   1     -39.943  24.016  -7.025  0.00  0.00     0.031 A 
ENDBRANCH  10  12
ENDBRANCH   7   8
ENDBRANCH   1   6
BRANCH   5  19
ATOM     19  C13 NON d   1     -42.535  18.404  -4.572  0.00  0.00    -0.005 A 
ATOM     20  C14 NON d   1     -43.569  19.236  -5.055  0.00  0.00     0.016 A 
ATOM     21  C15 NON d   1     -44.816  18.727  -5.437  0.00  0.00     0.037 A 
ATOM     22  C16 NON d   1     -45.047  17.355  -5.348  0.00  0.00     0.102 A 
ATOM     23  C17 NON d   1     -44.053  16.507  -4.847  0.00  0.00     0.037 A 
ATOM     24  C18 NON d   1     -42.814  17.036  -4.448  0.00  0.00     0.016 A 
BRANCH  22  25
ATOM     25  N3  NON d   1     -46.335  16.802  -5.784  0.00  0.00    -0.116 N 
ATOM     26  O2  NON d   1     -47.219  17.602  -6.118  0.00  0.00    -0.532 OA
ATOM     27  O3  NON d   1     -46.464  15.570  -5.783  0.00  0.00    -0.532 OA
ENDBRANCH  22  25
ENDBRANCH   5  19
BRANCH   3  28
ATOM     28  C6  NON d   1     -39.258  20.545  -1.762  0.00  0.00     0.058 A 
ATOM     29  C7  NON d   1     -37.883  20.452  -1.496  0.00  0.00     0.031 A 
ATOM     30  C8  NON d   1     -37.363  20.963  -0.306  0.00  0.00     0.002 A 
ATOM     31  C9  NON d   1     -38.207  21.570   0.622  0.00  0.00     0.000 A 
ATOM     32  C10 NON d   1     -39.574  21.659   0.369  0.00  0.00     0.002 A 
ATOM     33  C11 NON d   1     -40.103  21.144  -0.816  0.00  0.00     0.031 A 
ENDBRANCH   3  28
TORSDOF 6
ENDMDL
MODEL 5
REMARK VINA RESULT:   -12.733      3.848      5.841
REMARK INTER + INTRA:         -16.585
REMARK INTER:                 -14.523
REMARK INTRA:                  -2.062
REMARK CONF_INDEPENDENT:        1.790
REMARK UNBOUND:                -2.062
REMARK  6 active torsions:
REMARK  status: ('A' for Active; 'I' for Inactive)
REMARK    1  A    between atoms: C1_2  and  C2_3 
REMARK       I    between atoms: C1_2  and  N4_25 
REMARK    2  A    between atoms: C3_4  and  C4_5 
REMARK    3  A    between atoms: N1_7  and  C6_8 
REMARK    4  A    between atoms: C12_15  and  C13_16 
REMARK    5  A    between atoms: C16_19  and  N3_20 
REMARK    6  A    between atoms: N4_25  and  C19_26 
ROOT
ATOM      1  C4  NON d   1     -40.325  20.138  -4.843  0.00  0.00     0.013 C 
ATOM      2  C5  NON d   1     -39.237  20.162  -4.003  0.00  0.00     0.132 C 
ATOM      3  N1  NON d   1     -39.281  19.029  -3.238  0.00  0.00    -0.244 N 
ATOM      4  N2  NON d   1     -40.463  18.394  -3.384  0.00  0.00    -0.166 NA
ATOM      5  C12 NON d   1     -41.113  19.027  -4.382  0.00  0.00     0.099 C 
ENDROOT
BRANCH   1   6
ATOM      6  C3  NON d   1     -40.554  21.116  -5.863  0.00  0.00     0.021 C 
ATOM      7  C2  NON d   1     -40.561  22.462  -5.773  0.00  0.00     0.075 C 
BRANCH   7   8
ATOM      8  C1  NON d   1     -40.298  23.280  -4.550  0.00  0.00     0.245 C 
ATOM      9  O1  NON d   1     -39.584  24.273  -4.572  0.00  0.00    -0.268 OA
ATOM     10  N4  NON d   1     -40.965  22.784  -3.448  0.00  0.00    -0.324 N 
ATOM     11  H13 NON d   1     -41.711  22.117  -3.604  0.00  0.00     0.169 HD
BRANCH  10  12
ATOM     12  C19 NON d   1     -40.699  23.103  -2.100  0.00  0.00     0.035 A 
ATOM     13  C20 NON d   1     -39.969  22.180  -1.341  0.00  0.00     0.031 A 
ATOM     14  C21 NON d   1     -39.626  22.464  -0.014  0.00  0.00     0.021 A 
ATOM     15  C22 NON d   1     -39.987  23.686   0.546  0.00  0.00     0.011 A 
ATOM     16 Br1  NON d   1     -39.499  24.086   2.327  0.00  0.00    -0.051 Br
ATOM     17  C23 NON d   1     -40.702  24.618  -0.202  0.00  0.00     0.021 A 
ATOM     18  C24 NON d   1     -41.066  24.321  -1.520  0.00  0.00     0.031 A 
ENDBRANCH  10  12
ENDBRANCH   7   8
ENDBRANCH   1   6
BRANCH   5  19
ATOM     19  C13 NON d   1     -42.449  18.516  -4.771  0.00  0.00    -0.005 A 
ATOM     20  C14 NON d   1     -42.681  17.122  -4.748  0.00  0.00     0.016 A 
ATOM     21  C15 NON d   1     -43.933  16.572  -5.049  0.00  0.00     0.037 A 
ATOM     22  C16 NON d   1     -44.988  17.422  -5.375  0.00  0.00     0.102 A 
ATOM     23  C17 NON d   1     -44.784  18.805  -5.435  0.00  0.00     0.037 A 
ATOM     24  C18 NON d   1     -43.517  19.340  -5.150  0.00  0.00     0.016 A 
BRANCH  22  25
ATOM     25  N3  NON d   1     -46.317  16.862  -5.654  0.00  0.00    -0.116 N 
ATOM     26  O2  NON d   1     -46.486  15.654  -5.441  0.00  0.00    -0.532 OA
ATOM     27  O3  NON d   1     -47.186  17.628  -6.093  0.00  0.00    -0.532 OA
ENDBRANCH  22  25
ENDBRANCH   5  19
BRANCH   3  28
ATOM     28  C6  NON d   1     -38.275  18.535  -2.364  0.00  0.00     0.058 A 
ATOM     29  C7  NON d   1     -37.311  19.395  -1.816  0.00  0.00     0.031 A 
ATOM     30  C8  NON d   1     -36.324  18.892  -0.966  0.00  0.00     0.002 A 
ATOM     31  C9  NON d   1     -36.292  17.534  -0.659  0.00  0.00     0.000 A 
ATOM     32  C10 NON d   1     -37.241  16.672  -1.206  0.00  0.00     0.002 A 
ATOM     33  C11 NON d   1     -38.228  17.166  -2.061  0.00  0.00     0.031 A 
ENDBRANCH   3  28
TORSDOF 6
ENDMDL
MODEL 6
REMARK VINA RESULT:   -12.472      3.010      6.770
REMARK INTER + INTRA:         -15.814
REMARK INTER:                 -14.262
REMARK INTRA:                  -1.553
REMARK CONF_INDEPENDENT:        1.790
REMARK UNBOUND:                -1.553
REMARK  6 active torsions:
REMARK  status: ('A' for Active; 'I' for Inactive)
REMARK    1  A    between atoms: C1_2  and  C2_3 
REMARK       I    between atoms: C1_2  and  N4_25 
REMARK    2  A    between atoms: C3_4  and  C4_5 
REMARK    3  A    between atoms: N1_7  and  C6_8 
REMARK    4  A    between atoms: C12_15  and  C13_16 
REMARK    5  A    between atoms: C16_19  and  N3_20 
REMARK    6  A    between atoms: N4_25  and  C19_26 
ROOT
ATOM      1  C4  NON d   1     -39.807  19.066  -5.181  0.00  0.00     0.013 C 
ATOM      2  C5  NON d   1     -38.994  19.674  -6.109  0.00  0.00     0.132 C 
ATOM      3  N1  NON d   1     -39.791  20.128  -7.123  0.00  0.00    -0.244 N 
ATOM      4  N2  NON d   1     -41.044  19.643  -7.005  0.00  0.00    -0.166 NA
ATOM      5  C12 NON d   1     -41.098  19.015  -5.812  0.00  0.00     0.099 C 
ENDROOT
BRANCH   1   6
ATOM      6  C3  NON d   1     -39.333  18.558  -3.929  0.00  0.00     0.021 C 
ATOM      7  C2  NON d   1     -39.494  19.058  -2.687  0.00  0.00     0.075 C 
BRANCH   7   8
ATOM      8  C1  NON d   1     -40.252  20.289  -2.307  0.00  0.00     0.245 C 
ATOM      9  O1  NON d   1     -41.026  20.842  -3.076  0.00  0.00    -0.268 OA
ATOM     10  N4  NON d   1     -39.976  20.681  -1.012  0.00  0.00    -0.324 N 
ATOM     11  H13 NON d   1     -39.520  20.016  -0.400  0.00  0.00     0.169 HD
BRANCH  10  12
ATOM     12  C19 NON d   1     -40.254  21.944  -0.447  0.00  0.00     0.035 A 
ATOM     13  C20 NON d   1     -40.248  23.057  -1.297  0.00  0.00     0.031 A 
ATOM     14  C21 NON d   1     -40.570  24.327  -0.807  0.00  0.00     0.021 A 
ATOM     15  C22 NON d   1     -40.928  24.481   0.529  0.00  0.00     0.011 A 
ATOM     16 Br1  NON d   1     -41.393  26.190   1.188  0.00  0.00    -0.051 Br
ATOM     17  C23 NON d   1     -40.951  23.381   1.382  0.00  0.00     0.021 A 
ATOM     18  C24 NON d   1     -40.603  22.116   0.895  0.00  0.00     0.031 A 
ENDBRANCH  10  12
ENDBRANCH   7   8
ENDBRANCH   1   6
BRANCH   5  19
ATOM     19  C13 NON d   1     -42.385  18.398  -5.413  0.00  0.00    -0.005 A 
ATOM     20  C14 NON d   1     -43.556  19.189  -5.426  0.00  0.00     0.016 A 
ATOM     21  C15 NON d   1     -44.814  18.660  -5.114  0.00  0.00     0.037 A 
ATOM     22  C16 NON d   1     -44.922  17.309  -4.788  0.00  0.00     0.102 A 
ATOM     23  C17 NON d   1     -43.778  16.505  -4.739  0.00  0.00     0.037 A 
ATOM     24  C18 NON d   1     -42.520  17.056  -5.034  0.00  0.00     0.016 A 
BRANCH  22  25
ATOM     25  N3  NON d   1     -46.240  16.731  -4.498  0.00  0.00    -0.116 N 
ATOM     26  O2  NON d   1     -46.649  16.791  -3.330  0.00  0.00    -0.532 OA
ATOM     27  O3  NON d   1     -46.862  16.211  -5.435  0.00  0.00    -0.532 OA
ENDBRANCH  22  25
ENDBRANCH   5  19
BRANCH   3  28
ATOM     28  C6  NON d   1     -39.419  20.975  -8.202  0.00  0.00     0.058 A 
ATOM     29  C7  NON d   1     -38.556  20.520  -9.211  0.00  0.00     0.031 A 
ATOM     30  C8  NON d   1     -38.195  21.368 -10.260  0.00  0.00     0.002 A 
ATOM     31  C9  NON d   1     -38.690  22.669 -10.309  0.00  0.00     0.000 A 
ATOM     32  C10 NON d   1     -39.541  23.130  -9.307  0.00  0.00     0.002 A 
ATOM     33  C11 NON d   1     -39.903  22.291  -8.252  0.00  0.00     0.031 A 
ENDBRANCH   3  28
TORSDOF 6
ENDMDL
MODEL 7
REMARK VINA RESULT:   -11.996      3.708      6.366
REMARK INTER + INTRA:         -15.415
REMARK INTER:                 -13.786
REMARK INTRA:                  -1.629
REMARK CONF_INDEPENDENT:        1.790
REMARK UNBOUND:                -1.629
REMARK  6 active torsions:
REMARK  status: ('A' for Active; 'I' for Inactive)
REMARK    1  A    between atoms: C1_2  and  C2_3 
REMARK       I    between atoms: C1_2  and  N4_25 
REMARK    2  A    between atoms: C3_4  and  C4_5 
REMARK    3  A    between atoms: N1_7  and  C6_8 
REMARK    4  A    between atoms: C12_15  and  C13_16 
REMARK    5  A    between atoms: C16_19  and  N3_20 
REMARK    6  A    between atoms: N4_25  and  C19_26 
ROOT
ATOM      1  C4  NON d   1     -40.214  19.206  -4.460  0.00  0.00     0.013 C 
ATOM      2  C5  NON d   1     -39.444  20.301  -4.776  0.00  0.00     0.132 C 
ATOM      3  N1  NON d   1     -40.278  21.263  -5.273  0.00  0.00    -0.244 N 
ATOM      4  N2  NON d   1     -41.510  20.762  -5.505  0.00  0.00    -0.166 NA
ATOM      5  C12 NON d   1     -41.515  19.515  -4.990  0.00  0.00     0.099 C 
ENDROOT
BRANCH   1   6
ATOM      6  C3  NON d   1     -39.696  18.036  -3.818  0.00  0.00     0.021 C 
ATOM      7  C2  NON d   1     -38.816  17.937  -2.801  0.00  0.00     0.075 C 
BRANCH   7   8
ATOM      8  C1  NON d   1     -38.168  19.063  -2.062  0.00  0.00     0.245 C 
ATOM      9  O1  NON d   1     -36.963  19.098  -1.853  0.00  0.00    -0.268 OA
ATOM     10  N4  NON d   1     -39.085  20.023  -1.684  0.00  0.00    -0.324 N 
ATOM     11  H13 NON d   1     -39.998  20.008  -2.122  0.00  0.00     0.169 HD
BRANCH  10  12
ATOM     12  C19 NON d   1     -38.885  21.033  -0.718  0.00  0.00     0.035 A 
ATOM     13  C20 NON d   1     -37.707  20.989   0.038  0.00  0.00     0.031 A 
ATOM     14  C21 NON d   1     -37.425  21.993   0.972  0.00  0.00     0.021 A 
ATOM     15  C22 NON d   1     -38.308  23.057   1.129  0.00  0.00     0.011 A 
ATOM     16 Br1  NON d   1     -37.916  24.430   2.366  0.00  0.00    -0.051 Br
ATOM     17  C23 NON d   1     -39.476  23.119   0.373  0.00  0.00     0.021 A 
ATOM     18  C24 NON d   1     -39.768  22.101  -0.541  0.00  0.00     0.031 A 
ENDBRANCH  10  12
ENDBRANCH   7   8
ENDBRANCH   1   6
BRANCH   5  19
ATOM     19  C13 NON d   1     -42.768  18.731  -5.091  0.00  0.00    -0.005 A 
ATOM     20  C14 NON d   1     -43.966  19.397  -5.436  0.00  0.00     0.016 A 
ATOM     21  C15 NON d   1     -45.176  18.713  -5.603  0.00  0.00     0.037 A 
ATOM     22  C16 NON d   1     -45.204  17.330  -5.431  0.00  0.00     0.102 A 
ATOM     23  C17 NON d   1     -44.042  16.644  -5.061  0.00  0.00     0.037 A 
ATOM     24  C18 NON d   1     -42.840  17.348  -4.878  0.00  0.00     0.016 A 
BRANCH  22  25
ATOM     25  N3  NON d   1     -46.457  16.593  -5.642  0.00  0.00    -0.116 N 
ATOM     26  O2  NON d   1     -46.400  15.355  -5.648  0.00  0.00    -0.532 OA
ATOM     27  O3  NON d   1     -47.493  17.251  -5.809  0.00  0.00    -0.532 OA
ENDBRANCH  22  25
ENDBRANCH   5  19
BRANCH   3  28
ATOM     28  C6  NON d   1     -39.962  22.620  -5.557  0.00  0.00     0.058 A 
ATOM     29  C7  NON d   1     -40.618  23.667  -4.892  0.00  0.00     0.031 A 
ATOM     30  C8  NON d   1     -40.301  24.994  -5.189  0.00  0.00     0.002 A 
ATOM     31  C9  NON d   1     -39.331  25.284  -6.145  0.00  0.00     0.000 A 
ATOM     32  C10 NON d   1     -38.681  24.249  -6.816  0.00  0.00     0.002 A 
ATOM     33  C11 NON d   1     -38.996  22.920  -6.529  0.00  0.00     0.031 A 
ENDBRANCH   3  28
TORSDOF 6
ENDMDL
