MODEL 1
REMARK VINA RESULT:   -14.227      0.000      0.000
REMARK INTER + INTRA:         -19.013
REMARK INTER:                 -17.509
REMARK INTRA:                  -1.505
REMARK CONF_INDEPENDENT:        3.281
REMARK UNBOUND:                -1.505
REMARK  11 active torsions:
REMARK  status: ('A' for Active; 'I' for Inactive)
REMARK    1  A    between atoms: C2_2  and  C3_3 
REMARK    2  A    between atoms: C3_3  and  C4_5 
REMARK    3  A    between atoms: C4_5  and  C5_6 
REMARK    4  A    between atoms: C5_6  and  C6_7 
REMARK    5  A    between atoms: C6_7  and  C7_8 
REMARK    6  A    between atoms: C7_8  and  C8_9 
REMARK    7  A    between atoms: C9_10  and  C8_9 
REMARK    8  A    between atoms: C15_21  and  C16_22 
REMARK    9  A    between atoms: C16_22  and  C17_23 
REMARK   10  A    between atoms: C21_29  and  C22_30 
REMARK   11  A    between atoms: C22_30  and  C23_31 
ROOT
ATOM      1  C9  NON d   1     -40.530  19.477  -3.955  0.00  0.00     0.176 C 
ATOM      2  N1  NON d   1     -40.000  19.708  -5.326  0.00  0.00    -0.346 N 
ATOM      3  C10 NON d   1     -40.890  19.611  -6.389  0.00  0.00     0.242 C 
ATOM      4  O2  NON d   1     -42.038  19.201  -6.187  0.00  0.00    -0.271 OA
ATOM      5  C11 NON d   1     -40.478  19.908  -7.823  0.00  0.00     0.194 C 
ATOM      6  C12 NON d   1     -39.552  18.829  -8.401  0.00  0.00     0.044 C 
ATOM      7  N2  NON d   1     -40.096  21.286  -8.205  0.00  0.00    -0.261 N 
ATOM      8  N3  NON d   1     -39.940  21.406  -9.554  0.00  0.00     0.005 NA
ATOM      9  N4  NON d   1     -38.647  21.618  -9.753  0.00  0.00    -0.170 NA
ATOM     10  C13 NON d   1     -38.124  22.064  -8.573  0.00  0.00     0.164 C 
ATOM     11  C14 NON d   1     -39.156  22.156  -7.648  0.00  0.00     0.069 C 
ATOM     12  C15 NON d   1     -39.465  23.297  -6.703  0.00  0.00     0.137 C 
ATOM     13  N5  NON d   1     -39.193  22.821  -5.355  0.00  0.00    -0.349 N 
ATOM     14  C20 NON d   1     -39.320  23.651  -4.228  0.00  0.00     0.241 C 
ATOM     15  O3  NON d   1     -39.298  24.870  -4.275  0.00  0.00    -0.271 OA
ATOM     16  C21 NON d   1     -39.725  22.857  -2.949  0.00  0.00     0.181 C 
ATOM     17  N7  NON d   1     -39.264  21.464  -3.138  0.00  0.00    -0.346 N 
ATOM     18  C31 NON d   1     -40.126  20.445  -2.810  0.00  0.00     0.241 C 
ATOM     19  O4  NON d   1     -40.690  20.427  -1.717  0.00  0.00    -0.271 OA
ATOM     20  H17 NON d   1     -39.001  19.747  -5.491  0.00  0.00     0.163 HD
ATOM     21  H33 NON d   1     -39.597  21.912  -5.186  0.00  0.00     0.163 HD
ATOM     22  H43 NON d   1     -38.495  21.301  -3.775  0.00  0.00     0.163 HD
ENDROOT
BRANCH  16  23
ATOM     23  C22 NON d   1     -39.268  23.497  -1.626  0.00  0.00     0.075 C 
BRANCH  23  24
ATOM     24  C23 NON d   1     -40.115  24.640  -1.103  0.00  0.00    -0.028 A 
ATOM     25  C24 NON d   1     -40.703  25.670  -1.816  0.00  0.00     0.096 A 
ATOM     26  N6  NON d   1     -41.346  26.508  -0.950  0.00  0.00    -0.365 N 
ATOM     27  C25 NON d   1     -41.214  26.050   0.336  0.00  0.00     0.042 A 
ATOM     28  H38 NON d   1     -41.844  27.348  -1.209  0.00  0.00     0.165 HD
ATOM     29  C26 NON d   1     -41.719  26.575   1.531  0.00  0.00     0.030 A 
ATOM     30  C30 NON d   1     -40.458  24.879   0.279  0.00  0.00    -0.002 A 
ATOM     31  C27 NON d   1     -41.440  25.885   2.709  0.00  0.00     0.002 A 
ATOM     32  C28 NON d   1     -40.694  24.708   2.699  0.00  0.00     0.001 A 
ATOM     33  C29 NON d   1     -40.193  24.206   1.500  0.00  0.00     0.014 A 
ENDBRANCH  23  24
ENDBRANCH  16  23
BRANCH  12  34
ATOM     34  C16 NON d   1     -38.761  24.626  -7.142  0.00  0.00     0.035 C 
BRANCH  34  35
ATOM     35  C17 NON d   1     -39.736  25.621  -7.832  0.00  0.00    -0.020 C 
ATOM     36  C18 NON d   1     -40.668  26.325  -6.844  0.00  0.00     0.009 C 
ATOM     37  C19 NON d   1     -40.591  24.908  -8.886  0.00  0.00     0.009 C 
ENDBRANCH  34  35
ENDBRANCH  12  34
BRANCH   1  38
ATOM     38  C8  NON d   1     -40.689  18.013  -3.480  0.00  0.00     0.035 C 
BRANCH  38  39
ATOM     39  C7  NON d   1     -42.067  17.480  -3.066  0.00  0.00     0.002 C 
BRANCH  39  40
ATOM     40  C6  NON d   1     -43.006  17.233  -4.253  0.00  0.00     0.000 C 
BRANCH  40  41
ATOM     41  C5  NON d   1     -44.498  17.232  -3.886  0.00  0.00     0.007 C 
BRANCH  41  42
ATOM     42  C4  NON d   1     -45.447  17.255  -5.082  0.00  0.00     0.078 C 
BRANCH  42  43
ATOM     43  C3  NON d   1     -46.488  16.144  -5.018  0.00  0.00     0.126 C 
ATOM     44  O1  NON d   1     -46.690  15.380  -5.964  0.00  0.00    -0.298 OA
BRANCH  43  45
ATOM     45  C2  NON d   1     -47.286  16.058  -3.724  0.00  0.00     0.074 C 
ATOM     46  C1  NON d   1     -48.684  15.496  -3.919  0.00  0.00     0.013 C 
ENDBRANCH  43  45
ENDBRANCH  42  43
ENDBRANCH  41  42
ENDBRANCH  40  41
ENDBRANCH  39  40
ENDBRANCH  38  39
ENDBRANCH   1  38
TORSDOF 11
ENDMDL
MODEL 2
REMARK VINA RESULT:   -13.879      1.171      1.606
REMARK INTER + INTRA:         -18.818
REMARK INTER:                 -17.160
REMARK INTRA:                  -1.658
REMARK CONF_INDEPENDENT:        3.281
REMARK UNBOUND:                -1.658
REMARK  11 active torsions:
REMARK  status: ('A' for Active; 'I' for Inactive)
REMARK    1  A    between atoms: C2_2  and  C3_3 
REMARK    2  A    between atoms: C3_3  and  C4_5 
REMARK    3  A    between atoms: C4_5  and  C5_6 
REMARK    4  A    between atoms: C5_6  and  C6_7 
REMARK    5  A    between atoms: C6_7  and  C7_8 
REMARK    6  A    between atoms: C7_8  and  C8_9 
REMARK    7  A    between atoms: C9_10  and  C8_9 
REMARK    8  A    between atoms: C15_21  and  C16_22 
REMARK    9  A    between atoms: C16_22  and  C17_23 
REMARK   10  A    between atoms: C21_29  and  C22_30 
REMARK   11  A    between atoms: C22_30  and  C23_31 
ROOT
ATOM      1  C9  NON d   1     -40.766  19.152  -3.996  0.00  0.00     0.176 C 
ATOM      2  N1  NON d   1     -40.322  19.636  -5.331  0.00  0.00    -0.346 N 
ATOM      3  C10 NON d   1     -41.302  19.953  -6.264  0.00  0.00     0.242 C 
ATOM      4  O2  NON d   1     -42.485  19.690  -6.017  0.00  0.00    -0.271 OA
ATOM      5  C11 NON d   1     -40.968  20.534  -7.629  0.00  0.00     0.194 C 
ATOM      6  C12 NON d   1     -40.310  19.505  -8.558  0.00  0.00     0.044 C 
ATOM      7  N2  NON d   1     -40.373  21.886  -7.724  0.00  0.00    -0.261 N 
ATOM      8  N3  NON d   1     -40.315  22.318  -9.015  0.00  0.00     0.005 NA
ATOM      9  N4  NON d   1     -39.027  22.367  -9.324  0.00  0.00    -0.170 NA
ATOM     10  C13 NON d   1     -38.331  22.412  -8.149  0.00  0.00     0.164 C 
ATOM     11  C14 NON d   1     -39.245  22.428  -7.103  0.00  0.00     0.069 C 
ATOM     12  C15 NON d   1     -39.257  23.327  -5.886  0.00  0.00     0.137 C 
ATOM     13  N5  NON d   1     -38.962  22.489  -4.734  0.00  0.00    -0.349 N 
ATOM     14  C20 NON d   1     -38.837  23.016  -3.437  0.00  0.00     0.241 C 
ATOM     15  O3  NON d   1     -38.596  24.188  -3.199  0.00  0.00    -0.271 OA
ATOM     16  C21 NON d   1     -39.270  21.998  -2.338  0.00  0.00     0.181 C 
ATOM     17  N7  NON d   1     -39.091  20.643  -2.906  0.00  0.00    -0.346 N 
ATOM     18  C31 NON d   1     -40.094  19.723  -2.718  0.00  0.00     0.241 C 
ATOM     19  O4  NON d   1     -40.555  19.518  -1.596  0.00  0.00    -0.271 OA
ATOM     20  H17 NON d   1     -39.351  19.559  -5.609  0.00  0.00     0.163 HD
ATOM     21  H33 NON d   1     -39.510  21.642  -4.731  0.00  0.00     0.163 HD
ATOM     22  H43 NON d   1     -38.423  20.529  -3.657  0.00  0.00     0.163 HD
ENDROOT
BRANCH  16  23
ATOM     23  C22 NON d   1     -38.591  22.202  -0.972  0.00  0.00     0.075 C 
BRANCH  23  24
ATOM     24  C23 NON d   1     -39.441  22.829   0.115  0.00  0.00    -0.028 A 
ATOM     25  C24 NON d   1     -39.845  22.275   1.317  0.00  0.00     0.096 A 
ATOM     26  N6  NON d   1     -40.633  23.170   1.984  0.00  0.00    -0.365 N 
ATOM     27  C25 NON d   1     -40.753  24.327   1.257  0.00  0.00     0.042 A 
ATOM     28  H38 NON d   1     -41.072  23.010   2.879  0.00  0.00     0.165 HD
ATOM     29  C26 NON d   1     -41.444  25.506   1.556  0.00  0.00     0.030 A 
ATOM     30  C30 NON d   1     -40.014  24.154   0.086  0.00  0.00    -0.002 A 
ATOM     31  C27 NON d   1     -41.381  26.545   0.630  0.00  0.00     0.002 A 
ATOM     32  C28 NON d   1     -40.650  26.419  -0.549  0.00  0.00     0.001 A 
ATOM     33  C29 NON d   1     -39.976  25.234  -0.834  0.00  0.00     0.014 A 
ENDBRANCH  23  24
ENDBRANCH  16  23
BRANCH  12  34
ATOM     34  C16 NON d   1     -38.361  24.596  -6.088  0.00  0.00     0.035 C 
BRANCH  34  35
ATOM     35  C17 NON d   1     -39.169  25.828  -6.583  0.00  0.00    -0.020 C 
ATOM     36  C18 NON d   1     -40.316  26.205  -5.644  0.00  0.00     0.009 C 
ATOM     37  C19 NON d   1     -39.745  25.579  -7.982  0.00  0.00     0.009 C 
ENDBRANCH  34  35
ENDBRANCH  12  34
BRANCH   1  38
ATOM     38  C8  NON d   1     -41.150  17.659  -3.860  0.00  0.00     0.035 C 
BRANCH  38  39
ATOM     39  C7  NON d   1     -42.564  17.263  -3.414  0.00  0.00     0.002 C 
BRANCH  39  40
ATOM     40  C6  NON d   1     -43.529  17.034  -4.583  0.00  0.00     0.000 C 
BRANCH  40  41
ATOM     41  C5  NON d   1     -45.015  17.115  -4.197  0.00  0.00     0.007 C 
BRANCH  41  42
ATOM     42  C4  NON d   1     -45.977  17.170  -5.382  0.00  0.00     0.078 C 
BRANCH  42  43
ATOM     43  C3  NON d   1     -46.902  15.960  -5.434  0.00  0.00     0.126 C 
ATOM     44  O1  NON d   1     -46.690  15.005  -6.185  0.00  0.00    -0.298 OA
BRANCH  43  45
ATOM     45  C2  NON d   1     -48.121  16.018  -4.524  0.00  0.00     0.074 C 
ATOM     46  C1  NON d   1     -47.779  16.369  -3.085  0.00  0.00     0.013 C 
ENDBRANCH  43  45
ENDBRANCH  42  43
ENDBRANCH  41  42
ENDBRANCH  40  41
ENDBRANCH  39  40
ENDBRANCH  38  39
ENDBRANCH   1  38
TORSDOF 11
ENDMDL
MODEL 3
REMARK VINA RESULT:   -13.341      1.784      2.363
REMARK INTER + INTRA:         -17.998
REMARK INTER:                 -16.622
REMARK INTRA:                  -1.376
REMARK CONF_INDEPENDENT:        3.281
REMARK UNBOUND:                -1.376
REMARK  11 active torsions:
REMARK  status: ('A' for Active; 'I' for Inactive)
REMARK    1  A    between atoms: C2_2  and  C3_3 
REMARK    2  A    between atoms: C3_3  and  C4_5 
REMARK    3  A    between atoms: C4_5  and  C5_6 
REMARK    4  A    between atoms: C5_6  and  C6_7 
REMARK    5  A    between atoms: C6_7  and  C7_8 
REMARK    6  A    between atoms: C7_8  and  C8_9 
REMARK    7  A    between atoms: C9_10  and  C8_9 
REMARK    8  A    between atoms: C15_21  and  C16_22 
REMARK    9  A    between atoms: C16_22  and  C17_23 
REMARK   10  A    between atoms: C21_29  and  C22_30 
REMARK   11  A    between atoms: C22_30  and  C23_31 
ROOT
ATOM      1  C9  NON d   1     -40.673  19.894  -5.770  0.00  0.00     0.176 C 
ATOM      2  N1  NON d   1     -39.749  20.525  -6.751  0.00  0.00    -0.346 N 
ATOM      3  C10 NON d   1     -40.159  20.592  -8.077  0.00  0.00     0.242 C 
ATOM      4  O2  NON d   1     -41.191  20.007  -8.425  0.00  0.00    -0.271 OA
ATOM      5  C11 NON d   1     -39.334  21.287  -9.149  0.00  0.00     0.194 C 
ATOM      6  C12 NON d   1     -38.060  20.509  -9.504  0.00  0.00     0.044 C 
ATOM      7  N2  NON d   1     -39.137  22.753  -9.086  0.00  0.00    -0.261 N 
ATOM      8  N3  NON d   1     -38.539  23.226 -10.215  0.00  0.00     0.005 NA
ATOM      9  N4  NON d   1     -37.335  23.636  -9.845  0.00  0.00    -0.170 NA
ATOM     10  C13 NON d   1     -37.372  23.832  -8.493  0.00  0.00     0.164 C 
ATOM     11  C14 NON d   1     -38.661  23.562  -8.052  0.00  0.00     0.069 C 
ATOM     12  C15 NON d   1     -39.518  24.383  -7.112  0.00  0.00     0.137 C 
ATOM     13  N5  NON d   1     -39.652  23.620  -5.881  0.00  0.00    -0.349 N 
ATOM     14  C20 NON d   1     -40.343  24.118  -4.762  0.00  0.00     0.241 C 
ATOM     15  O3  NON d   1     -40.561  25.303  -4.570  0.00  0.00    -0.271 OA
ATOM     16  C21 NON d   1     -41.003  22.985  -3.920  0.00  0.00     0.181 C 
ATOM     17  N7  NON d   1     -40.226  21.750  -4.166  0.00  0.00    -0.346 N 
ATOM     18  C31 NON d   1     -40.915  20.585  -4.401  0.00  0.00     0.241 C 
ATOM     19  O4  NON d   1     -41.815  20.225  -3.643  0.00  0.00    -0.271 OA
ATOM     20  H17 NON d   1     -38.789  20.726  -6.497  0.00  0.00     0.163 HD
ATOM     21  H33 NON d   1     -39.891  22.655  -6.056  0.00  0.00     0.163 HD
ATOM     22  H43 NON d   1     -39.264  21.848  -4.465  0.00  0.00     0.163 HD
ENDROOT
BRANCH  16  23
ATOM     23  C22 NON d   1     -41.193  23.322  -2.430  0.00  0.00     0.075 C 
BRANCH  23  24
ATOM     24  C23 NON d   1     -40.298  22.587  -1.453  0.00  0.00    -0.028 A 
ATOM     25  C24 NON d   1     -39.865  21.274  -1.505  0.00  0.00     0.096 A 
ATOM     26  N6  NON d   1     -39.104  21.006  -0.403  0.00  0.00    -0.365 N 
ATOM     27  C25 NON d   1     -39.002  22.124   0.384  0.00  0.00     0.042 A 
ATOM     28  H38 NON d   1     -38.678  20.115  -0.187  0.00  0.00     0.165 HD
ATOM     29  C26 NON d   1     -38.313  22.315   1.588  0.00  0.00     0.030 A 
ATOM     30  C30 NON d   1     -39.729  23.136  -0.245  0.00  0.00    -0.002 A 
ATOM     31  C27 NON d   1     -38.369  23.579   2.171  0.00  0.00     0.002 A 
ATOM     32  C28 NON d   1     -39.077  24.620   1.575  0.00  0.00     0.001 A 
ATOM     33  C29 NON d   1     -39.764  24.409   0.382  0.00  0.00     0.014 A 
ENDBRANCH  23  24
ENDBRANCH  16  23
BRANCH  12  34
ATOM     34  C16 NON d   1     -38.998  25.855  -6.982  0.00  0.00     0.035 C 
BRANCH  34  35
ATOM     35  C17 NON d   1     -39.693  26.826  -7.976  0.00  0.00    -0.020 C 
ATOM     36  C18 NON d   1     -41.065  26.330  -8.435  0.00  0.00     0.009 C 
ATOM     37  C19 NON d   1     -38.819  27.060  -9.215  0.00  0.00     0.009 C 
ENDBRANCH  34  35
ENDBRANCH  12  34
BRANCH   1  38
ATOM     38  C8  NON d   1     -40.682  18.350  -5.677  0.00  0.00     0.035 C 
BRANCH  38  39
ATOM     39  C7  NON d   1     -41.997  17.598  -5.435  0.00  0.00     0.002 C 
BRANCH  39  40
ATOM     40  C6  NON d   1     -42.350  17.451  -3.950  0.00  0.00     0.000 C 
BRANCH  40  41
ATOM     41  C5  NON d   1     -43.781  16.954  -3.689  0.00  0.00     0.007 C 
BRANCH  41  42
ATOM     42  C4  NON d   1     -44.818  17.449  -4.695  0.00  0.00     0.078 C 
BRANCH  42  43
ATOM     43  C3  NON d   1     -46.012  16.508  -4.806  0.00  0.00     0.126 C 
ATOM     44  O1  NON d   1     -46.214  15.821  -5.810  0.00  0.00    -0.298 OA
BRANCH  43  45
ATOM     45  C2  NON d   1     -46.957  16.493  -3.612  0.00  0.00     0.074 C 
ATOM     46  C1  NON d   1     -48.198  15.647  -3.842  0.00  0.00     0.013 C 
ENDBRANCH  43  45
ENDBRANCH  42  43
ENDBRANCH  41  42
ENDBRANCH  40  41
ENDBRANCH  39  40
ENDBRANCH  38  39
ENDBRANCH   1  38
TORSDOF 11
ENDMDL
MODEL 4
REMARK VINA RESULT:   -13.181      1.573      2.383
REMARK INTER + INTRA:         -18.316
REMARK INTER:                 -16.462
REMARK INTRA:                  -1.854
REMARK CONF_INDEPENDENT:        3.281
REMARK UNBOUND:                -1.854
REMARK  11 active torsions:
REMARK  status: ('A' for Active; 'I' for Inactive)
REMARK    1  A    between atoms: C2_2  and  C3_3 
REMARK    2  A    between atoms: C3_3  and  C4_5 
REMARK    3  A    between atoms: C4_5  and  C5_6 
REMARK    4  A    between atoms: C5_6  and  C6_7 
REMARK    5  A    between atoms: C6_7  and  C7_8 
REMARK    6  A    between atoms: C7_8  and  C8_9 
REMARK    7  A    between atoms: C9_10  and  C8_9 
REMARK    8  A    between atoms: C15_21  and  C16_22 
REMARK    9  A    between atoms: C16_22  and  C17_23 
REMARK   10  A    between atoms: C21_29  and  C22_30 
REMARK   11  A    between atoms: C22_30  and  C23_31 
ROOT
ATOM      1  C9  NON d   1     -40.244  19.678  -3.630  0.00  0.00     0.176 C 
ATOM      2  N1  NON d   1     -39.745  19.802  -5.026  0.00  0.00    -0.346 N 
ATOM      3  C10 NON d   1     -40.572  19.358  -6.051  0.00  0.00     0.242 C 
ATOM      4  O2  NON d   1     -41.612  18.750  -5.774  0.00  0.00    -0.271 OA
ATOM      5  C11 NON d   1     -40.201  19.511  -7.518  0.00  0.00     0.194 C 
ATOM      6  C12 NON d   1     -39.057  18.575  -7.933  0.00  0.00     0.044 C 
ATOM      7  N2  NON d   1     -40.109  20.862  -8.114  0.00  0.00    -0.261 N 
ATOM      8  N3  NON d   1     -39.953  20.804  -9.466  0.00  0.00     0.005 NA
ATOM      9  N4  NON d   1     -38.729  21.250  -9.711  0.00  0.00    -0.170 NA
ATOM     10  C13 NON d   1     -38.336  21.973  -8.621  0.00  0.00     0.164 C 
ATOM     11  C14 NON d   1     -39.384  21.986  -7.709  0.00  0.00     0.069 C 
ATOM     12  C15 NON d   1     -39.946  23.168  -6.948  0.00  0.00     0.137 C 
ATOM     13  N5  NON d   1     -39.609  22.973  -5.547  0.00  0.00    -0.349 N 
ATOM     14  C20 NON d   1     -39.932  23.921  -4.560  0.00  0.00     0.241 C 
ATOM     15  O3  NON d   1     -40.166  25.095  -4.795  0.00  0.00    -0.271 OA
ATOM     16  C21 NON d   1     -40.188  23.265  -3.169  0.00  0.00     0.181 C 
ATOM     17  N7  NON d   1     -39.442  21.988  -3.145  0.00  0.00    -0.346 N 
ATOM     18  C31 NON d   1     -40.077  20.874  -2.654  0.00  0.00     0.241 C 
ATOM     19  O4  NON d   1     -40.648  20.906  -1.565  0.00  0.00    -0.271 OA
ATOM     20  H17 NON d   1     -38.774  20.025  -5.207  0.00  0.00     0.163 HD
ATOM     21  H33 NON d   1     -39.817  22.037  -5.234  0.00  0.00     0.163 HD
ATOM     22  H43 NON d   1     -38.642  21.896  -3.759  0.00  0.00     0.163 HD
ENDROOT
BRANCH  16  23
ATOM     23  C22 NON d   1     -39.905  24.183  -1.966  0.00  0.00     0.075 C 
BRANCH  23  24
ATOM     24  C23 NON d   1     -39.669  23.496  -0.636  0.00  0.00    -0.028 A 
ATOM     25  C24 NON d   1     -40.516  23.425   0.456  0.00  0.00     0.096 A 
ATOM     26  N6  NON d   1     -39.896  22.743   1.464  0.00  0.00    -0.365 N 
ATOM     27  C25 NON d   1     -38.648  22.339   1.063  0.00  0.00     0.042 A 
ATOM     28  H38 NON d   1     -40.288  22.563   2.377  0.00  0.00     0.165 HD
ATOM     29  C26 NON d   1     -37.678  21.605   1.754  0.00  0.00     0.030 A 
ATOM     30  C30 NON d   1     -38.475  22.784  -0.249  0.00  0.00    -0.002 A 
ATOM     31  C27 NON d   1     -36.488  21.318   1.088  0.00  0.00     0.002 A 
ATOM     32  C28 NON d   1     -36.274  21.737  -0.223  0.00  0.00     0.001 A 
ATOM     33  C29 NON d   1     -37.249  22.474  -0.892  0.00  0.00     0.014 A 
ENDBRANCH  23  24
ENDBRANCH  16  23
BRANCH  12  34
ATOM     34  C16 NON d   1     -39.528  24.532  -7.596  0.00  0.00     0.035 C 
BRANCH  34  35
ATOM     35  C17 NON d   1     -40.605  25.088  -8.569  0.00  0.00    -0.020 C 
ATOM     36  C18 NON d   1     -40.105  25.198 -10.011  0.00  0.00     0.009 C 
ATOM     37  C19 NON d   1     -41.092  26.470  -8.115  0.00  0.00     0.009 C 
ENDBRANCH  34  35
ENDBRANCH  12  34
BRANCH   1  38
ATOM     38  C8  NON d   1     -40.103  18.304  -2.932  0.00  0.00     0.035 C 
BRANCH  38  39
ATOM     39  C7  NON d   1     -41.209  17.251  -3.068  0.00  0.00     0.002 C 
BRANCH  39  40
ATOM     40  C6  NON d   1     -42.614  17.855  -3.184  0.00  0.00     0.000 C 
BRANCH  40  41
ATOM     41  C5  NON d   1     -43.664  16.898  -3.770  0.00  0.00     0.007 C 
BRANCH  41  42
ATOM     42  C4  NON d   1     -44.788  17.585  -4.544  0.00  0.00     0.078 C 
BRANCH  42  43
ATOM     43  C3  NON d   1     -45.993  16.674  -4.746  0.00  0.00     0.126 C 
ATOM     44  O1  NON d   1     -46.200  16.088  -5.811  0.00  0.00    -0.298 OA
BRANCH  43  45
ATOM     45  C2  NON d   1     -46.942  16.559  -3.561  0.00  0.00     0.074 C 
ATOM     46  C1  NON d   1     -48.209  15.784  -3.882  0.00  0.00     0.013 C 
ENDBRANCH  43  45
ENDBRANCH  42  43
ENDBRANCH  41  42
ENDBRANCH  40  41
ENDBRANCH  39  40
ENDBRANCH  38  39
ENDBRANCH   1  38
TORSDOF 11
ENDMDL
MODEL 5
REMARK VINA RESULT:   -13.159      2.665      7.058
REMARK INTER + INTRA:         -17.910
REMARK INTER:                 -16.441
REMARK INTRA:                  -1.469
REMARK CONF_INDEPENDENT:        3.281
REMARK UNBOUND:                -1.469
REMARK  11 active torsions:
REMARK  status: ('A' for Active; 'I' for Inactive)
REMARK    1  A    between atoms: C2_2  and  C3_3 
REMARK    2  A    between atoms: C3_3  and  C4_5 
REMARK    3  A    between atoms: C4_5  and  C5_6 
REMARK    4  A    between atoms: C5_6  and  C6_7 
REMARK    5  A    between atoms: C6_7  and  C7_8 
REMARK    6  A    between atoms: C7_8  and  C8_9 
REMARK    7  A    between atoms: C9_10  and  C8_9 
REMARK    8  A    between atoms: C15_21  and  C16_22 
REMARK    9  A    between atoms: C16_22  and  C17_23 
REMARK   10  A    between atoms: C21_29  and  C22_30 
REMARK   11  A    between atoms: C22_30  and  C23_31 
ROOT
ATOM      1  C9  NON d   1     -40.350  18.961  -5.855  0.00  0.00     0.176 C 
ATOM      2  N1  NON d   1     -40.169  19.937  -4.746  0.00  0.00    -0.346 N 
ATOM      3  C10 NON d   1     -39.406  19.542  -3.654  0.00  0.00     0.242 C 
ATOM      4  O2  NON d   1     -39.031  18.367  -3.566  0.00  0.00    -0.271 OA
ATOM      5  C11 NON d   1     -39.087  20.483  -2.503  0.00  0.00     0.194 C 
ATOM      6  C12 NON d   1     -40.315  20.783  -1.633  0.00  0.00     0.044 C 
ATOM      7  N2  NON d   1     -38.224  21.662  -2.739  0.00  0.00    -0.261 N 
ATOM      8  N3  NON d   1     -37.892  22.282  -1.571  0.00  0.00     0.005 NA
ATOM      9  N4  NON d   1     -38.506  23.456  -1.596  0.00  0.00    -0.170 NA
ATOM     10  C13 NON d   1     -38.810  23.727  -2.900  0.00  0.00     0.164 C 
ATOM     11  C14 NON d   1     -38.324  22.687  -3.683  0.00  0.00     0.069 C 
ATOM     12  C15 NON d   1     -37.534  22.778  -4.970  0.00  0.00     0.137 C 
ATOM     13  N5  NON d   1     -38.396  22.290  -6.036  0.00  0.00    -0.349 N 
ATOM     14  C20 NON d   1     -37.995  22.290  -7.383  0.00  0.00     0.241 C 
ATOM     15  O3  NON d   1     -37.105  22.996  -7.828  0.00  0.00    -0.271 OA
ATOM     16  C21 NON d   1     -38.643  21.128  -8.195  0.00  0.00     0.181 C 
ATOM     17  N7  NON d   1     -39.906  20.771  -7.511  0.00  0.00    -0.346 N 
ATOM     18  C31 NON d   1     -40.188  19.440  -7.323  0.00  0.00     0.241 C 
ATOM     19  O4  NON d   1     -40.121  18.646  -8.260  0.00  0.00    -0.271 OA
ATOM     20  H17 NON d   1     -40.731  20.779  -4.706  0.00  0.00     0.163 HD
ATOM     21  H33 NON d   1     -38.848  21.422  -5.790  0.00  0.00     0.163 HD
ATOM     22  H43 NON d   1     -40.350  21.477  -6.938  0.00  0.00     0.163 HD
ENDROOT
BRANCH  16  23
ATOM     23  C22 NON d   1     -38.800  21.408  -9.700  0.00  0.00     0.075 C 
BRANCH  23  24
ATOM     24  C23 NON d   1     -39.473  22.713 -10.077  0.00  0.00    -0.028 A 
ATOM     25  C24 NON d   1     -40.046  23.656  -9.242  0.00  0.00     0.096 A 
ATOM     26  N6  NON d   1     -40.575  24.664  -9.997  0.00  0.00    -0.365 N 
ATOM     27  C25 NON d   1     -40.352  24.423 -11.329  0.00  0.00     0.042 A 
ATOM     28  H38 NON d   1     -41.065  25.470  -9.637  0.00  0.00     0.165 HD
ATOM     29  C26 NON d   1     -40.700  25.187 -12.449  0.00  0.00     0.030 A 
ATOM     30  C30 NON d   1     -39.658  23.216 -11.417  0.00  0.00    -0.002 A 
ATOM     31  C27 NON d   1     -40.329  24.703 -13.701  0.00  0.00     0.002 A 
ATOM     32  C28 NON d   1     -39.629  23.506 -13.837  0.00  0.00     0.001 A 
ATOM     33  C29 NON d   1     -39.300  22.755 -12.711  0.00  0.00     0.014 A 
ENDBRANCH  23  24
ENDBRANCH  16  23
BRANCH  12  34
ATOM     34  C16 NON d   1     -36.896  24.195  -5.166  0.00  0.00     0.035 C 
BRANCH  34  35
ATOM     35  C17 NON d   1     -37.957  25.297  -5.443  0.00  0.00    -0.020 C 
ATOM     36  C18 NON d   1     -38.122  25.603  -6.933  0.00  0.00     0.009 C 
ATOM     37  C19 NON d   1     -37.599  26.598  -4.714  0.00  0.00     0.009 C 
ENDBRANCH  34  35
ENDBRANCH  12  34
BRANCH   1  38
ATOM     38  C8  NON d   1     -41.440  17.875  -5.690  0.00  0.00     0.035 C 
BRANCH  38  39
ATOM     39  C7  NON d   1     -42.666  18.139  -4.806  0.00  0.00     0.002 C 
BRANCH  39  40
ATOM     40  C6  NON d   1     -43.194  16.881  -4.106  0.00  0.00     0.000 C 
BRANCH  40  41
ATOM     41  C5  NON d   1     -44.707  16.898  -3.839  0.00  0.00     0.007 C 
BRANCH  41  42
ATOM     42  C4  NON d   1     -45.565  17.221  -5.060  0.00  0.00     0.078 C 
BRANCH  42  43
ATOM     43  C3  NON d   1     -46.703  16.226  -5.249  0.00  0.00     0.126 C 
ATOM     44  O1  NON d   1     -46.692  15.380  -6.146  0.00  0.00    -0.298 OA
BRANCH  43  45
ATOM     45  C2  NON d   1     -47.870  16.363  -4.280  0.00  0.00     0.074 C 
ATOM     46  C1  NON d   1     -48.605  15.055  -4.038  0.00  0.00     0.013 C 
ENDBRANCH  43  45
ENDBRANCH  42  43
ENDBRANCH  41  42
ENDBRANCH  40  41
ENDBRANCH  39  40
ENDBRANCH  38  39
ENDBRANCH   1  38
TORSDOF 11
ENDMDL
MODEL 6
REMARK VINA RESULT:   -12.450      1.737      2.204
REMARK INTER + INTRA:         -17.468
REMARK INTER:                 -15.731
REMARK INTRA:                  -1.737
REMARK CONF_INDEPENDENT:        3.281
REMARK UNBOUND:                -1.737
REMARK  11 active torsions:
REMARK  status: ('A' for Active; 'I' for Inactive)
REMARK    1  A    between atoms: C2_2  and  C3_3 
REMARK    2  A    between atoms: C3_3  and  C4_5 
REMARK    3  A    between atoms: C4_5  and  C5_6 
REMARK    4  A    between atoms: C5_6  and  C6_7 
REMARK    5  A    between atoms: C6_7  and  C7_8 
REMARK    6  A    between atoms: C7_8  and  C8_9 
REMARK    7  A    between atoms: C9_10  and  C8_9 
REMARK    8  A    between atoms: C15_21  and  C16_22 
REMARK    9  A    between atoms: C16_22  and  C17_23 
REMARK   10  A    between atoms: C21_29  and  C22_30 
REMARK   11  A    between atoms: C22_30  and  C23_31 
ROOT
ATOM      1  C9  NON d   1     -40.010  19.715  -5.062  0.00  0.00     0.176 C 
ATOM      2  N1  NON d   1     -38.976  19.773  -6.131  0.00  0.00    -0.346 N 
ATOM      3  C10 NON d   1     -39.246  19.122  -7.329  0.00  0.00     0.242 C 
ATOM      4  O2  NON d   1     -40.249  18.405  -7.419  0.00  0.00    -0.271 OA
ATOM      5  C11 NON d   1     -38.300  19.183  -8.518  0.00  0.00     0.194 C 
ATOM      6  C12 NON d   1     -37.013  18.381  -8.285  0.00  0.00     0.044 C 
ATOM      7  N2  NON d   1     -38.080  20.472  -9.213  0.00  0.00    -0.261 N 
ATOM      8  N3  NON d   1     -37.358  20.306 -10.357  0.00  0.00     0.005 NA
ATOM      9  N4  NON d   1     -36.190  20.893 -10.139  0.00  0.00    -0.170 NA
ATOM     10  C13 NON d   1     -36.363  21.765  -9.101  0.00  0.00     0.164 C 
ATOM     11  C14 NON d   1     -37.696  21.719  -8.714  0.00  0.00     0.069 C 
ATOM     12  C15 NON d   1     -38.628  22.878  -8.433  0.00  0.00     0.137 C 
ATOM     13  N5  NON d   1     -38.904  22.867  -7.005  0.00  0.00    -0.349 N 
ATOM     14  C20 NON d   1     -39.697  23.851  -6.388  0.00  0.00     0.241 C 
ATOM     15  O3  NON d   1     -39.908  24.953  -6.867  0.00  0.00    -0.271 OA
ATOM     16  C21 NON d   1     -40.464  23.303  -5.147  0.00  0.00     0.181 C 
ATOM     17  N7  NON d   1     -39.692  22.150  -4.632  0.00  0.00    -0.346 N 
ATOM     18  C31 NON d   1     -40.378  21.010  -4.289  0.00  0.00     0.241 C 
ATOM     19  O4  NON d   1     -41.358  21.067  -3.549  0.00  0.00    -0.271 OA
ATOM     20  H17 NON d   1     -38.043  20.111  -5.926  0.00  0.00     0.163 HD
ATOM     21  H33 NON d   1     -39.144  21.945  -6.672  0.00  0.00     0.163 HD
ATOM     22  H43 NON d   1     -38.702  22.111  -4.841  0.00  0.00     0.163 HD
ENDROOT
BRANCH  16  23
ATOM     23  C22 NON d   1     -40.800  24.362  -4.082  0.00  0.00     0.075 C 
BRANCH  23  24
ATOM     24  C23 NON d   1     -39.883  24.419  -2.876  0.00  0.00    -0.028 A 
ATOM     25  C24 NON d   1     -38.552  24.792  -2.826  0.00  0.00     0.096 A 
ATOM     26  N6  NON d   1     -38.095  24.663  -1.545  0.00  0.00    -0.365 N 
ATOM     27  C25 NON d   1     -39.104  24.223  -0.726  0.00  0.00     0.042 A 
ATOM     28  H38 NON d   1     -37.152  24.855  -1.237  0.00  0.00     0.165 HD
ATOM     29  C26 NON d   1     -39.095  23.969   0.650  0.00  0.00     0.030 A 
ATOM     30  C30 NON d   1     -40.240  24.068  -1.522  0.00  0.00    -0.002 A 
ATOM     31  C27 NON d   1     -40.285  23.540   1.235  0.00  0.00     0.002 A 
ATOM     32  C28 NON d   1     -41.445  23.378   0.481  0.00  0.00     0.001 A 
ATOM     33  C29 NON d   1     -41.431  23.627  -0.890  0.00  0.00     0.014 A 
ENDBRANCH  23  24
ENDBRANCH  16  23
BRANCH  12  34
ATOM     34  C16 NON d   1     -38.093  24.219  -9.042  0.00  0.00     0.035 C 
BRANCH  34  35
ATOM     35  C17 NON d   1     -39.000  24.765 -10.180  0.00  0.00    -0.020 C 
ATOM     36  C18 NON d   1     -39.209  26.278 -10.102  0.00  0.00     0.009 C 
ATOM     37  C19 NON d   1     -40.372  24.081 -10.163  0.00  0.00     0.009 C 
ENDBRANCH  34  35
ENDBRANCH  12  34
BRANCH   1  38
ATOM     38  C8  NON d   1     -40.061  18.448  -4.176  0.00  0.00     0.035 C 
BRANCH  38  39
ATOM     39  C7  NON d   1     -41.411  17.874  -3.726  0.00  0.00     0.002 C 
BRANCH  39  40
ATOM     40  C6  NON d   1     -42.514  18.015  -4.782  0.00  0.00     0.000 C 
BRANCH  40  41
ATOM     41  C5  NON d   1     -43.604  16.934  -4.702  0.00  0.00     0.007 C 
BRANCH  41  42
ATOM     42  C4  NON d   1     -44.985  17.453  -4.307  0.00  0.00     0.078 C 
BRANCH  42  43
ATOM     43  C3  NON d   1     -46.104  16.515  -4.746  0.00  0.00     0.126 C 
ATOM     44  O1  NON d   1     -46.057  15.894  -5.810  0.00  0.00    -0.298 OA
BRANCH  43  45
ATOM     45  C2  NON d   1     -47.296  16.419  -3.805  0.00  0.00     0.074 C 
ATOM     46  C1  NON d   1     -48.452  15.619  -4.381  0.00  0.00     0.013 C 
ENDBRANCH  43  45
ENDBRANCH  42  43
ENDBRANCH  41  42
ENDBRANCH  40  41
ENDBRANCH  39  40
ENDBRANCH  38  39
ENDBRANCH   1  38
TORSDOF 11
ENDMDL
MODEL 7
REMARK VINA RESULT:   -12.366      1.952      6.799
REMARK INTER + INTRA:         -17.261
REMARK INTER:                 -15.647
REMARK INTRA:                  -1.614
REMARK CONF_INDEPENDENT:        3.281
REMARK UNBOUND:                -1.614
REMARK  11 active torsions:
REMARK  status: ('A' for Active; 'I' for Inactive)
REMARK    1  A    between atoms: C2_2  and  C3_3 
REMARK    2  A    between atoms: C3_3  and  C4_5 
REMARK    3  A    between atoms: C4_5  and  C5_6 
REMARK    4  A    between atoms: C5_6  and  C6_7 
REMARK    5  A    between atoms: C6_7  and  C7_8 
REMARK    6  A    between atoms: C7_8  and  C8_9 
REMARK    7  A    between atoms: C9_10  and  C8_9 
REMARK    8  A    between atoms: C15_21  and  C16_22 
REMARK    9  A    between atoms: C16_22  and  C17_23 
REMARK   10  A    between atoms: C21_29  and  C22_30 
REMARK   11  A    between atoms: C22_30  and  C23_31 
ROOT
ATOM      1  C9  NON d   1     -40.292  19.185  -4.113  0.00  0.00     0.176 C 
ATOM      2  N1  NON d   1     -40.342  20.281  -3.108  0.00  0.00    -0.346 N 
ATOM      3  C10 NON d   1     -39.315  20.352  -2.174  0.00  0.00     0.242 C 
ATOM      4  O2  NON d   1     -38.486  19.437  -2.112  0.00  0.00    -0.271 OA
ATOM      5  C11 NON d   1     -39.219  21.476  -1.155  0.00  0.00     0.194 C 
ATOM      6  C12 NON d   1     -40.300  21.377  -0.070  0.00  0.00     0.044 C 
ATOM      7  N2  NON d   1     -38.962  22.860  -1.612  0.00  0.00    -0.261 N 
ATOM      8  N3  NON d   1     -38.722  23.697  -0.565  0.00  0.00     0.005 NA
ATOM      9  N4  NON d   1     -39.755  24.527  -0.518  0.00  0.00    -0.170 NA
ATOM     10  C13 NON d   1     -40.354  24.496  -1.745  0.00  0.00     0.164 C 
ATOM     11  C14 NON d   1     -39.626  23.641  -2.562  0.00  0.00     0.069 C 
ATOM     12  C15 NON d   1     -39.166  23.875  -3.985  0.00  0.00     0.137 C 
ATOM     13  N5  NON d   1     -39.919  22.964  -4.832  0.00  0.00    -0.349 N 
ATOM     14  C20 NON d   1     -39.782  22.955  -6.231  0.00  0.00     0.241 C 
ATOM     15  O3  NON d   1     -39.344  23.893  -6.877  0.00  0.00    -0.271 OA
ATOM     16  C21 NON d   1     -40.028  21.543  -6.843  0.00  0.00     0.181 C 
ATOM     17  N7  NON d   1     -40.904  20.808  -5.904  0.00  0.00    -0.346 N 
ATOM     18  C31 NON d   1     -40.585  19.506  -5.603  0.00  0.00     0.241 C 
ATOM     19  O4  NON d   1     -40.358  18.693  -6.498  0.00  0.00    -0.271 OA
ATOM     20  H17 NON d   1     -41.182  20.836  -2.993  0.00  0.00     0.163 HD
ATOM     21  H33 NON d   1     -39.932  22.025  -4.462  0.00  0.00     0.163 HD
ATOM     22  H43 NON d   1     -41.494  21.349  -5.285  0.00  0.00     0.163 HD
ENDROOT
BRANCH  16  23
ATOM     23  C22 NON d   1     -40.532  21.553  -8.297  0.00  0.00     0.075 C 
BRANCH  23  24
ATOM     24  C23 NON d   1     -39.537  21.992  -9.353  0.00  0.00    -0.028 A 
ATOM     25  C24 NON d   1     -38.486  21.273  -9.894  0.00  0.00     0.096 A 
ATOM     26  N6  NON d   1     -37.815  22.059 -10.787  0.00  0.00    -0.365 N 
ATOM     27  C25 NON d   1     -38.408  23.293 -10.870  0.00  0.00     0.042 A 
ATOM     28  H38 NON d   1     -36.997  21.783 -11.312  0.00  0.00     0.165 HD
ATOM     29  C26 NON d   1     -38.074  24.398 -11.661  0.00  0.00     0.030 A 
ATOM     30  C30 NON d   1     -39.494  23.285  -9.993  0.00  0.00    -0.002 A 
ATOM     31  C27 NON d   1     -38.872  25.535 -11.553  0.00  0.00     0.002 A 
ATOM     32  C28 NON d   1     -39.969  25.570 -10.695  0.00  0.00     0.001 A 
ATOM     33  C29 NON d   1     -40.281  24.463  -9.909  0.00  0.00     0.014 A 
ENDBRANCH  23  24
ENDBRANCH  16  23
BRANCH  12  34
ATOM     34  C16 NON d   1     -39.201  25.394  -4.368  0.00  0.00     0.035 C 
BRANCH  34  35
ATOM     35  C17 NON d   1     -40.648  25.933  -4.548  0.00  0.00    -0.020 C 
ATOM     36  C18 NON d   1     -40.959  26.336  -5.990  0.00  0.00     0.009 C 
ATOM     37  C19 NON d   1     -40.899  27.142  -3.639  0.00  0.00     0.009 C 
ENDBRANCH  34  35
ENDBRANCH  12  34
BRANCH   1  38
ATOM     38  C8  NON d   1     -40.804  17.789  -3.684  0.00  0.00     0.035 C 
BRANCH  38  39
ATOM     39  C7  NON d   1     -42.233  17.620  -3.152  0.00  0.00     0.002 C 
BRANCH  39  40
ATOM     40  C6  NON d   1     -43.311  17.929  -4.197  0.00  0.00     0.000 C 
BRANCH  40  41
ATOM     41  C5  NON d   1     -44.627  17.163  -3.989  0.00  0.00     0.007 C 
BRANCH  41  42
ATOM     42  C4  NON d   1     -45.609  17.258  -5.155  0.00  0.00     0.078 C 
BRANCH  42  43
ATOM     43  C3  NON d   1     -46.587  16.089  -5.186  0.00  0.00     0.126 C 
ATOM     44  O1  NON d   1     -46.728  15.379  -6.184  0.00  0.00    -0.298 OA
BRANCH  43  45
ATOM     45  C2  NON d   1     -47.402  15.875  -3.918  0.00  0.00     0.074 C 
ATOM     46  C1  NON d   1     -48.829  15.430  -4.192  0.00  0.00     0.013 C 
ENDBRANCH  43  45
ENDBRANCH  42  43
ENDBRANCH  41  42
ENDBRANCH  40  41
ENDBRANCH  39  40
ENDBRANCH  38  39
ENDBRANCH   1  38
TORSDOF 11
ENDMDL
MODEL 8
REMARK VINA RESULT:   -11.986      2.009      7.121
REMARK INTER + INTRA:         -16.778
REMARK INTER:                 -15.268
REMARK INTRA:                  -1.510
REMARK CONF_INDEPENDENT:        3.281
REMARK UNBOUND:                -1.510
REMARK  11 active torsions:
REMARK  status: ('A' for Active; 'I' for Inactive)
REMARK    1  A    between atoms: C2_2  and  C3_3 
REMARK    2  A    between atoms: C3_3  and  C4_5 
REMARK    3  A    between atoms: C4_5  and  C5_6 
REMARK    4  A    between atoms: C5_6  and  C6_7 
REMARK    5  A    between atoms: C6_7  and  C7_8 
REMARK    6  A    between atoms: C7_8  and  C8_9 
REMARK    7  A    between atoms: C9_10  and  C8_9 
REMARK    8  A    between atoms: C15_21  and  C16_22 
REMARK    9  A    between atoms: C16_22  and  C17_23 
REMARK   10  A    between atoms: C21_29  and  C22_30 
REMARK   11  A    between atoms: C22_30  and  C23_31 
ROOT
ATOM      1  C9  NON d   1     -40.166  19.827  -3.209  0.00  0.00     0.176 C 
ATOM      2  N1  NON d   1     -40.547  21.193  -2.759  0.00  0.00    -0.346 N 
ATOM      3  C10 NON d   1     -39.722  21.825  -1.836  0.00  0.00     0.242 C 
ATOM      4  O2  NON d   1     -38.797  21.193  -1.314  0.00  0.00    -0.271 OA
ATOM      5  C11 NON d   1     -39.968  23.251  -1.369  0.00  0.00     0.194 C 
ATOM      6  C12 NON d   1     -41.199  23.365  -0.460  0.00  0.00     0.044 C 
ATOM      7  N2  NON d   1     -39.832  24.370  -2.328  0.00  0.00    -0.261 N 
ATOM      8  N3  NON d   1     -39.902  25.578  -1.702  0.00  0.00     0.005 NA
ATOM      9  N4  NON d   1     -41.033  26.135  -2.110  0.00  0.00    -0.170 NA
ATOM     10  C13 NON d   1     -41.395  25.510  -3.270  0.00  0.00     0.164 C 
ATOM     11  C14 NON d   1     -40.420  24.570  -3.580  0.00  0.00     0.069 C 
ATOM     12  C15 NON d   1     -39.753  24.321  -4.915  0.00  0.00     0.137 C 
ATOM     13  N5  NON d   1     -40.208  23.021  -5.383  0.00  0.00    -0.349 N 
ATOM     14  C20 NON d   1     -39.826  22.498  -6.631  0.00  0.00     0.241 C 
ATOM     15  O3  NON d   1     -39.417  23.179  -7.557  0.00  0.00    -0.271 OA
ATOM     16  C21 NON d   1     -39.757  20.941  -6.626  0.00  0.00     0.181 C 
ATOM     17  N7  NON d   1     -40.673  20.468  -5.565  0.00  0.00    -0.346 N 
ATOM     18  C31 NON d   1     -40.233  19.478  -4.720  0.00  0.00     0.241 C 
ATOM     19  O4  NON d   1     -39.738  18.445  -5.170  0.00  0.00    -0.271 OA
ATOM     20  H17 NON d   1     -41.464  21.567  -2.973  0.00  0.00     0.163 HD
ATOM     21  H33 NON d   1     -40.154  22.318  -4.662  0.00  0.00     0.163 HD
ATOM     22  H43 NON d   1     -41.434  21.076  -5.290  0.00  0.00     0.163 HD
ENDROOT
BRANCH  16  23
ATOM     23  C22 NON d   1     -39.992  20.285  -7.998  0.00  0.00     0.075 C 
BRANCH  23  24
ATOM     24  C23 NON d   1     -38.757  19.990  -8.825  0.00  0.00    -0.028 A 
ATOM     25  C24 NON d   1     -37.965  18.855  -8.811  0.00  0.00     0.096 A 
ATOM     26  N6  NON d   1     -36.928  19.018  -9.685  0.00  0.00    -0.365 N 
ATOM     27  C25 NON d   1     -37.017  20.240 -10.301  0.00  0.00     0.042 A 
ATOM     28  H38 NON d   1     -36.194  18.345  -9.855  0.00  0.00     0.165 HD
ATOM     29  C26 NON d   1     -36.191  20.819 -11.270  0.00  0.00     0.030 A 
ATOM     30  C30 NON d   1     -38.154  20.873  -9.794  0.00  0.00    -0.002 A 
ATOM     31  C27 NON d   1     -36.532  22.086 -11.739  0.00  0.00     0.002 A 
ATOM     32  C28 NON d   1     -37.661  22.752 -11.266  0.00  0.00     0.001 A 
ATOM     33  C29 NON d   1     -38.467  22.163 -10.294  0.00  0.00     0.014 A 
ENDBRANCH  23  24
ENDBRANCH  16  23
BRANCH  12  34
ATOM     34  C16 NON d   1     -39.934  25.531  -5.894  0.00  0.00     0.035 C 
BRANCH  34  35
ATOM     35  C17 NON d   1     -38.680  26.448  -5.951  0.00  0.00    -0.020 C 
ATOM     36  C18 NON d   1     -37.752  26.118  -7.120  0.00  0.00     0.009 C 
ATOM     37  C19 NON d   1     -37.876  26.358  -4.649  0.00  0.00     0.009 C 
ENDBRANCH  34  35
ENDBRANCH  12  34
BRANCH   1  38
ATOM     38  C8  NON d   1     -40.543  18.635  -2.297  0.00  0.00     0.035 C 
BRANCH  38  39
ATOM     39  C7  NON d   1     -41.946  18.019  -2.371  0.00  0.00     0.002 C 
BRANCH  39  40
ATOM     40  C6  NON d   1     -42.389  17.685  -3.800  0.00  0.00     0.000 C 
BRANCH  40  41
ATOM     41  C5  NON d   1     -43.620  16.768  -3.880  0.00  0.00     0.007 C 
BRANCH  41  42
ATOM     42  C4  NON d   1     -44.944  17.498  -4.092  0.00  0.00     0.078 C 
BRANCH  42  43
ATOM     43  C3  NON d   1     -46.001  16.607  -4.735  0.00  0.00     0.126 C 
ATOM     44  O1  NON d   1     -45.806  16.026  -5.805  0.00  0.00    -0.298 OA
BRANCH  43  45
ATOM     45  C2  NON d   1     -47.324  16.505  -3.988  0.00  0.00     0.074 C 
ATOM     46  C1  NON d   1     -48.245  15.433  -4.545  0.00  0.00     0.013 C 
ENDBRANCH  43  45
ENDBRANCH  42  43
ENDBRANCH  41  42
ENDBRANCH  40  41
ENDBRANCH  39  40
ENDBRANCH  38  39
ENDBRANCH   1  38
TORSDOF 11
ENDMDL
MODEL 9
REMARK VINA RESULT:   -11.611      1.949      6.966
REMARK INTER + INTRA:         -16.630
REMARK INTER:                 -14.893
REMARK INTRA:                  -1.737
REMARK CONF_INDEPENDENT:        3.281
REMARK UNBOUND:                -1.737
REMARK  11 active torsions:
REMARK  status: ('A' for Active; 'I' for Inactive)
REMARK    1  A    between atoms: C2_2  and  C3_3 
REMARK    2  A    between atoms: C3_3  and  C4_5 
REMARK    3  A    between atoms: C4_5  and  C5_6 
REMARK    4  A    between atoms: C5_6  and  C6_7 
REMARK    5  A    between atoms: C6_7  and  C7_8 
REMARK    6  A    between atoms: C7_8  and  C8_9 
REMARK    7  A    between atoms: C9_10  and  C8_9 
REMARK    8  A    between atoms: C15_21  and  C16_22 
REMARK    9  A    between atoms: C16_22  and  C17_23 
REMARK   10  A    between atoms: C21_29  and  C22_30 
REMARK   11  A    between atoms: C22_30  and  C23_31 
ROOT
ATOM      1  C9  NON d   1     -39.977  20.175  -2.785  0.00  0.00     0.176 C 
ATOM      2  N1  NON d   1     -40.316  21.235  -1.798  0.00  0.00    -0.346 N 
ATOM      3  C10 NON d   1     -39.450  21.424  -0.728  0.00  0.00     0.242 C 
ATOM      4  O2  NON d   1     -38.521  20.628  -0.547  0.00  0.00    -0.271 OA
ATOM      5  C11 NON d   1     -39.651  22.531   0.295  0.00  0.00     0.194 C 
ATOM      6  C12 NON d   1     -40.851  22.267   1.216  0.00  0.00     0.044 C 
ATOM      7  N2  NON d   1     -39.522  23.946  -0.121  0.00  0.00    -0.261 N 
ATOM      8  N3  NON d   1     -39.548  24.787   0.950  0.00  0.00     0.005 NA
ATOM      9  N4  NON d   1     -40.680  25.470   0.850  0.00  0.00    -0.170 NA
ATOM     10  C13 NON d   1     -41.091  25.382  -0.450  0.00  0.00     0.164 C 
ATOM     11  C14 NON d   1     -40.145  24.649  -1.155  0.00  0.00     0.069 C 
ATOM     12  C15 NON d   1     -39.526  24.969  -2.498  0.00  0.00     0.137 C 
ATOM     13  N5  NON d   1     -40.022  23.982  -3.444  0.00  0.00    -0.349 N 
ATOM     14  C20 NON d   1     -39.689  24.019  -4.810  0.00  0.00     0.241 C 
ATOM     15  O3  NON d   1     -39.295  25.019  -5.387  0.00  0.00    -0.271 OA
ATOM     16  C21 NON d   1     -39.653  22.599  -5.450  0.00  0.00     0.181 C 
ATOM     17  N7  NON d   1     -40.544  21.735  -4.645  0.00  0.00    -0.346 N 
ATOM     18  C31 NON d   1     -40.098  20.482  -4.302  0.00  0.00     0.241 C 
ATOM     19  O4  NON d   1     -39.639  19.724  -5.155  0.00  0.00    -0.271 OA
ATOM     20  H17 NON d   1     -41.231  21.669  -1.804  0.00  0.00     0.163 HD
ATOM     21  H33 NON d   1     -39.959  23.043  -3.080  0.00  0.00     0.163 HD
ATOM     22  H43 NON d   1     -41.284  22.179  -4.117  0.00  0.00     0.163 HD
ENDROOT
BRANCH  16  23
ATOM     23  C22 NON d   1     -39.944  22.569  -6.961  0.00  0.00     0.075 C 
BRANCH  23  24
ATOM     24  C23 NON d   1     -39.728  21.244  -7.664  0.00  0.00    -0.028 A 
ATOM     25  C24 NON d   1     -40.641  20.494  -8.383  0.00  0.00     0.096 A 
ATOM     26  N6  NON d   1     -40.040  19.346  -8.816  0.00  0.00    -0.365 N 
ATOM     27  C25 NON d   1     -38.729  19.318  -8.413  0.00  0.00     0.042 A 
ATOM     28  H38 NON d   1     -40.489  18.615  -9.350  0.00  0.00     0.165 HD
ATOM     29  C26 NON d   1     -37.741  18.354  -8.641  0.00  0.00     0.030 A 
ATOM     30  C30 NON d   1     -38.495  20.493  -7.697  0.00  0.00    -0.002 A 
ATOM     31  C27 NON d   1     -36.471  18.595  -8.121  0.00  0.00     0.002 A 
ATOM     32  C28 NON d   1     -36.190  19.757  -7.406  0.00  0.00     0.001 A 
ATOM     33  C29 NON d   1     -37.190  20.700  -7.181  0.00  0.00     0.014 A 
ENDBRANCH  23  24
ENDBRANCH  16  23
BRANCH  12  34
ATOM     34  C16 NON d   1     -39.712  26.477  -2.883  0.00  0.00     0.035 C 
BRANCH  34  35
ATOM     35  C17 NON d   1     -38.361  27.236  -3.004  0.00  0.00    -0.020 C 
ATOM     36  C18 NON d   1     -37.883  27.375  -4.450  0.00  0.00     0.009 C 
ATOM     37  C19 NON d   1     -37.265  26.537  -2.192  0.00  0.00     0.009 C 
ENDBRANCH  34  35
ENDBRANCH  12  34
BRANCH   1  38
ATOM     38  C8  NON d   1     -40.350  18.714  -2.433  0.00  0.00     0.035 C 
BRANCH  38  39
ATOM     39  C7  NON d   1     -41.817  18.266  -2.450  0.00  0.00     0.002 C 
BRANCH  39  40
ATOM     40  C6  NON d   1     -42.235  17.602  -3.767  0.00  0.00     0.000 C 
BRANCH  40  41
ATOM     41  C5  NON d   1     -43.568  16.841  -3.693  0.00  0.00     0.007 C 
BRANCH  41  42
ATOM     42  C4  NON d   1     -44.771  17.610  -4.234  0.00  0.00     0.078 C 
BRANCH  42  43
ATOM     43  C3  NON d   1     -45.866  16.685  -4.751  0.00  0.00     0.126 C 
ATOM     44  O1  NON d   1     -45.752  16.062  -5.809  0.00  0.00    -0.298 OA
BRANCH  43  45
ATOM     45  C2  NON d   1     -47.123  16.603  -3.895  0.00  0.00     0.074 C 
ATOM     46  C1  NON d   1     -47.694  15.198  -3.803  0.00  0.00     0.013 C 
ENDBRANCH  43  45
ENDBRANCH  42  43
ENDBRANCH  41  42
ENDBRANCH  40  41
ENDBRANCH  39  40
ENDBRANCH  38  39
ENDBRANCH   1  38
TORSDOF 11
ENDMDL
