MODEL 1
REMARK VINA RESULT:   -29.636      0.000      0.000
REMARK INTER + INTRA:         -32.471
REMARK INTER:                 -31.127
REMARK INTRA:                  -1.343
REMARK CONF_INDEPENDENT:        1.492
REMARK UNBOUND:                -1.343
REMARK  5 active torsions:
REMARK  status: ('A' for Active; 'I' for Inactive)
REMARK       I    between atoms: C1_2  and  N1_3 
REMARK    1  A    between atoms: C1_2  and  C2_5 
REMARK    2  A    between atoms: N1_3  and  O2_4 
REMARK    3  A    between atoms: C4_8  and  N3_9 
REMARK    4  A    between atoms: N4_12  and  S1_13 
REMARK    5  A    between atoms: S1_13  and  C7_16 
ROOT
ATOM      1  N3  NON d   1     -45.063  17.440  -4.629  0.00  0.00    -0.248 NA
ATOM      2  C5  NON d   1     -43.958  16.558  -5.019  0.00  0.00     0.119 C 
ATOM      3  C6  NON d   1     -42.607  17.312  -4.980  0.00  0.00     0.150 C 
ATOM      4  N4  NON d   1     -42.642  18.569  -5.785  0.00  0.00    -0.304 N 
ATOM      5  C17 NON d   1     -43.820  19.435  -5.382  0.00  0.00     0.150 C 
ATOM      6  C18 NON d   1     -45.147  18.665  -5.437  0.00  0.00     0.119 C 
ENDROOT
BRANCH   4   7
ATOM      7  S1  NON d   1     -41.307  19.214  -6.204  0.00  0.00     0.260 S 
ATOM      8  O3  NON d   1     -40.770  17.867  -6.472  0.00  0.00    -0.200 OA
ATOM      9  O4  NON d   1     -42.047  19.902  -7.279  0.00  0.00    -0.200 OA
BRANCH   7  10
ATOM     10  C7  NON d   1     -39.972  19.858  -6.623  0.00  0.00     0.080 A 
ATOM     11  C8  NON d   1     -38.733  19.623  -5.967  0.00  0.00     0.026 A 
ATOM     12  C9  NON d   1     -37.513  20.177  -6.372  0.00  0.00     0.014 A 
ATOM     13  C10 NON d   1     -37.453  20.992  -7.496  0.00  0.00    -0.026 A 
ATOM     14  C11 NON d   1     -36.243  21.581  -7.891  0.00  0.00     0.012 A 
ATOM     15  C15 NON d   1     -38.633  21.226  -8.230  0.00  0.00    -0.025 A 
ATOM     16  C12 NON d   1     -36.195  22.401  -9.015  0.00  0.00     0.001 A 
ATOM     17  C13 NON d   1     -37.353  22.635  -9.752  0.00  0.00     0.001 A 
ATOM     18  C14 NON d   1     -38.561  22.048  -9.364  0.00  0.00     0.012 A 
ATOM     19  C16 NON d   1     -39.849  20.637  -7.803  0.00  0.00     0.037 A 
ENDBRANCH   7  10
ENDBRANCH   4   7
BRANCH   1  20
ATOM     20  C4  NON d   1     -46.281  16.817  -4.389  0.00  0.00     0.203 A 
ATOM     21  N2  NON d   1     -46.669  16.591  -3.123  0.00  0.00    -0.230 NA
ATOM     22  C3  NON d   1     -47.888  16.034  -2.921  0.00  0.00     0.138 A 
ATOM     23  C2  NON d   1     -48.751  15.686  -3.933  0.00  0.00     0.069 A 
ATOM     24  C19 NON d   1     -48.275  15.948  -5.192  0.00  0.00     0.138 A 
ATOM     25  N5  NON d   1     -47.067  16.505  -5.436  0.00  0.00    -0.230 NA
BRANCH  23  26
ATOM     26  C1  NON d   1     -50.055  15.073  -3.623  0.00  0.00     0.277 C 
ATOM     27  O1  NON d   1     -50.247  13.878  -3.839  0.00  0.00    -0.265 OA
ATOM     28  N1  NON d   1     -51.036  15.868  -3.077  0.00  0.00    -0.233 N 
ATOM     29  H1  NON d   1     -50.947  16.820  -2.745  0.00  0.00     0.197 HD
BRANCH  28  30
ATOM     30  O2  NON d   1     -52.242  15.209  -2.746  0.00  0.00    -0.287 OA
ATOM     31  H2  NON d   1     -51.971  14.264  -2.732  0.00  0.00     0.244 HD
ENDBRANCH  28  30
ENDBRANCH  23  26
ENDBRANCH   1  20
TORSDOF 5
ENDMDL
MODEL 2
REMARK VINA RESULT:   -29.059      1.631      1.954
REMARK INTER + INTRA:         -31.893
REMARK INTER:                 -30.550
REMARK INTRA:                  -1.343
REMARK CONF_INDEPENDENT:        1.492
REMARK UNBOUND:                -1.343
REMARK  5 active torsions:
REMARK  status: ('A' for Active; 'I' for Inactive)
REMARK       I    between atoms: C1_2  and  N1_3 
REMARK    1  A    between atoms: C1_2  and  C2_5 
REMARK    2  A    between atoms: N1_3  and  O2_4 
REMARK    3  A    between atoms: C4_8  and  N3_9 
REMARK    4  A    between atoms: N4_12  and  S1_13 
REMARK    5  A    between atoms: S1_13  and  C7_16 
ROOT
ATOM      1  N3  NON d   1     -44.968  17.299  -4.907  0.00  0.00    -0.248 NA
ATOM      2  C5  NON d   1     -45.023  18.743  -5.165  0.00  0.00     0.119 C 
ATOM      3  C6  NON d   1     -43.681  19.253  -5.743  0.00  0.00     0.150 C 
ATOM      4  N4  NON d   1     -42.519  18.873  -4.887  0.00  0.00    -0.304 N 
ATOM      5  C17 NON d   1     -42.520  17.381  -4.610  0.00  0.00     0.150 C 
ATOM      6  C18 NON d   1     -43.858  16.902  -4.030  0.00  0.00     0.119 C 
ENDROOT
BRANCH   4   7
ATOM      7  S1  NON d   1     -41.191  19.633  -5.066  0.00  0.00     0.260 S 
ATOM      8  O3  NON d   1     -40.488  18.499  -4.439  0.00  0.00    -0.200 OA
ATOM      9  O4  NON d   1     -41.434  19.592  -6.520  0.00  0.00    -0.200 OA
BRANCH   7  10
ATOM     10  C7  NON d   1     -39.863  20.393  -5.244  0.00  0.00     0.080 A 
ATOM     11  C8  NON d   1     -38.603  19.762  -5.431  0.00  0.00     0.026 A 
ATOM     12  C9  NON d   1     -37.402  20.452  -5.632  0.00  0.00     0.014 A 
ATOM     13  C10 NON d   1     -37.394  21.840  -5.691  0.00  0.00    -0.026 A 
ATOM     14  C11 NON d   1     -36.193  22.544  -5.859  0.00  0.00     0.012 A 
ATOM     15  C15 NON d   1     -38.615  22.533  -5.570  0.00  0.00    -0.025 A 
ATOM     16  C12 NON d   1     -36.195  23.936  -5.910  0.00  0.00     0.001 A 
ATOM     17  C13 NON d   1     -37.396  24.631  -5.798  0.00  0.00     0.001 A 
ATOM     18  C14 NON d   1     -38.597  23.934  -5.633  0.00  0.00     0.012 A 
ATOM     19  C16 NON d   1     -39.815  21.804  -5.382  0.00  0.00     0.037 A 
ENDBRANCH   7  10
ENDBRANCH   4   7
BRANCH   1  20
ATOM     20  C4  NON d   1     -46.181  16.687  -4.623  0.00  0.00     0.203 A 
ATOM     21  N2  NON d   1     -46.466  16.342  -3.356  0.00  0.00    -0.230 NA
ATOM     22  C3  NON d   1     -47.682  15.799  -3.102  0.00  0.00     0.138 A 
ATOM     23  C2  NON d   1     -48.642  15.581  -4.062  0.00  0.00     0.069 A 
ATOM     24  C19 NON d   1     -48.267  15.957  -5.327  0.00  0.00     0.138 A 
ATOM     25  N5  NON d   1     -47.066  16.505  -5.621  0.00  0.00    -0.230 NA
BRANCH  23  26
ATOM     26  C1  NON d   1     -49.934  14.973  -3.699  0.00  0.00     0.277 C 
ATOM     27  O1  NON d   1     -50.119  13.767  -3.853  0.00  0.00    -0.265 OA
ATOM     28  N1  NON d   1     -50.913  15.786  -3.177  0.00  0.00    -0.233 N 
ATOM     29  H1  NON d   1     -50.827  16.754  -2.895  0.00  0.00     0.197 HD
BRANCH  28  30
ATOM     30  O2  NON d   1     -52.107  15.135  -2.792  0.00  0.00    -0.287 OA
ATOM     31  H2  NON d   1     -51.956  14.214  -3.100  0.00  0.00     0.244 HD
ENDBRANCH  28  30
ENDBRANCH  23  26
ENDBRANCH   1  20
TORSDOF 5
ENDMDL
