MODEL 1
REMARK VINA RESULT:   -34.327      0.000      0.000
REMARK INTER + INTRA:         -38.015
REMARK INTER:                 -36.117
REMARK INTRA:                  -1.898
REMARK CONF_INDEPENDENT:        1.790
REMARK UNBOUND:                -1.898
REMARK  6 active torsions:
REMARK  status: ('A' for Active; 'I' for Inactive)
REMARK    1  A    between atoms: C7_8  and  O1_9 
REMARK    2  A    between atoms: O1_9  and  C8_10 
REMARK    3  A    between atoms: C8_10  and  C9_11 
REMARK    4  A    between atoms: C12_14  and  C13_15 
REMARK       I    between atoms: C13_15  and  N2_17 
REMARK    5  A    between atoms: N2_17  and  C14_18 
REMARK    6  A    between atoms: C19_23  and  N3_24 
ROOT
ATOM      1  C1  NON d   1     -39.618  17.983  -8.495  0.00  0.00     0.070 C 
ATOM      2  C2  NON d   1     -39.670  19.265  -7.643  0.00  0.00     0.033 A 
ATOM      3  C3  NON d   1     -40.157  20.388  -8.299  0.00  0.00     0.028 A 
ATOM      4  C4  NON d   1     -40.256  21.577  -7.599  0.00  0.00     0.029 A 
ATOM      5  C5  NON d   1     -39.887  21.637  -6.247  0.00  0.00     0.097 A 
ATOM      6  C6  NON d   1     -40.036  22.922  -5.639  0.00  0.00     0.104 C 
ATOM      7  N1  NON d   1     -40.162  23.971  -5.156  0.00  0.00    -0.191 NA
ATOM      8  C7  NON d   1     -39.420  20.471  -5.622  0.00  0.00     0.186 A 
ATOM      9  N4  NON d   1     -39.313  19.295  -6.326  0.00  0.00    -0.229 NA
ENDROOT
BRANCH   8  10
ATOM     10  O1  NON d   1     -39.023  20.314  -4.306  0.00  0.00    -0.329 OA
BRANCH  10  11
ATOM     11  C8  NON d   1     -39.613  19.263  -3.534  0.00  0.00     0.216 C 
BRANCH  11  12
ATOM     12  C9  NON d   1     -41.047  18.859  -3.843  0.00  0.00    -0.034 A 
ATOM     13  C10 NON d   1     -41.519  17.658  -3.274  0.00  0.00     0.010 A 
ATOM     14  C11 NON d   1     -42.820  17.184  -3.508  0.00  0.00     0.017 A 
ATOM     15  C12 NON d   1     -43.697  17.912  -4.317  0.00  0.00     0.032 A 
ATOM     16  C20 NON d   1     -43.228  19.117  -4.879  0.00  0.00     0.017 A 
ATOM     17  C21 NON d   1     -41.921  19.589  -4.646  0.00  0.00     0.010 A 
BRANCH  15  18
ATOM     18  C13 NON d   1     -45.095  17.460  -4.657  0.00  0.00     0.256 C 
ATOM     19  O2  NON d   1     -45.471  17.613  -5.818  0.00  0.00    -0.267 OA
ATOM     20  N2  NON d   1     -45.844  16.871  -3.649  0.00  0.00    -0.321 N 
ATOM     21  H10 NON d   1     -45.382  16.725  -2.766  0.00  0.00     0.169 HD
BRANCH  20  22
ATOM     22  C14 NON d   1     -47.171  16.340  -3.692  0.00  0.00     0.056 A 
ATOM     23  C15 NON d   1     -47.820  16.272  -2.441  0.00  0.00     0.031 A 
ATOM     24  C16 NON d   1     -49.118  15.769  -2.310  0.00  0.00     0.002 A 
ATOM     25  C17 NON d   1     -49.809  15.348  -3.436  0.00  0.00     0.002 A 
ATOM     26  C18 NON d   1     -49.195  15.433  -4.685  0.00  0.00     0.025 A 
ATOM     27  C19 NON d   1     -47.870  15.890  -4.835  0.00  0.00     0.033 A 
BRANCH  27  28
ATOM     28  N3  NON d   1     -47.440  16.130  -6.155  0.00  0.00    -0.301 NA
ATOM     29  H15 NON d   1     -47.583  17.114  -6.412  0.00  0.00     0.124 HD
ATOM     30  H16 NON d   1     -46.477  15.865  -6.317  0.00  0.00     0.124 HD
ENDBRANCH  27  28
ENDBRANCH  20  22
ENDBRANCH  15  18
ENDBRANCH  11  12
ENDBRANCH  10  11
ENDBRANCH   8  10
TORSDOF 6
ENDMDL
MODEL 2
REMARK VINA RESULT:   -34.250      2.637      4.292
REMARK INTER + INTRA:         -37.409
REMARK INTER:                 -36.040
REMARK INTRA:                  -1.370
REMARK CONF_INDEPENDENT:        1.790
REMARK UNBOUND:                -1.370
REMARK  6 active torsions:
REMARK  status: ('A' for Active; 'I' for Inactive)
REMARK    1  A    between atoms: C7_8  and  O1_9 
REMARK    2  A    between atoms: O1_9  and  C8_10 
REMARK    3  A    between atoms: C8_10  and  C9_11 
REMARK    4  A    between atoms: C12_14  and  C13_15 
REMARK       I    between atoms: C13_15  and  N2_17 
REMARK    5  A    between atoms: N2_17  and  C14_18 
REMARK    6  A    between atoms: C19_23  and  N3_24 
ROOT
ATOM      1  C1  NON d   1     -41.581  24.195  -0.412  0.00  0.00     0.070 C 
ATOM      2  C2  NON d   1     -40.478  23.165  -0.713  0.00  0.00     0.033 A 
ATOM      3  C3  NON d   1     -39.575  22.950   0.321  0.00  0.00     0.028 A 
ATOM      4  C4  NON d   1     -38.563  22.025   0.139  0.00  0.00     0.029 A 
ATOM      5  C5  NON d   1     -38.466  21.305  -1.061  0.00  0.00     0.097 A 
ATOM      6  C6  NON d   1     -37.378  20.381  -1.123  0.00  0.00     0.104 C 
ATOM      7  N1  NON d   1     -36.491  19.632  -1.161  0.00  0.00    -0.191 NA
ATOM      8  C7  NON d   1     -39.413  21.543  -2.069  0.00  0.00     0.186 A 
ATOM      9  N4  NON d   1     -40.410  22.472  -1.887  0.00  0.00    -0.229 NA
ENDROOT
BRANCH   8  10
ATOM     10  O1  NON d   1     -39.504  20.935  -3.309  0.00  0.00    -0.329 OA
BRANCH  10  11
ATOM     11  C8  NON d   1     -39.662  19.514  -3.366  0.00  0.00     0.216 C 
BRANCH  11  12
ATOM     12  C9  NON d   1     -41.046  18.953  -3.661  0.00  0.00    -0.034 A 
ATOM     13  C10 NON d   1     -41.771  19.541  -4.719  0.00  0.00     0.010 A 
ATOM     14  C11 NON d   1     -43.062  19.111  -5.065  0.00  0.00     0.017 A 
ATOM     15  C12 NON d   1     -43.665  18.064  -4.362  0.00  0.00     0.032 A 
ATOM     16  C20 NON d   1     -42.936  17.472  -3.311  0.00  0.00     0.017 A 
ATOM     17  C21 NON d   1     -41.643  17.907  -2.962  0.00  0.00     0.010 A 
BRANCH  15  18
ATOM     18  C13 NON d   1     -45.061  17.566  -4.636  0.00  0.00     0.256 C 
ATOM     19  O2  NON d   1     -45.438  17.559  -5.807  0.00  0.00    -0.267 OA
ATOM     20  N2  NON d   1     -45.808  17.116  -3.557  0.00  0.00    -0.321 N 
ATOM     21  H10 NON d   1     -45.345  17.092  -2.663  0.00  0.00     0.169 HD
BRANCH  20  22
ATOM     22  C14 NON d   1     -47.132  16.579  -3.527  0.00  0.00     0.056 A 
ATOM     23  C15 NON d   1     -47.762  16.631  -2.265  0.00  0.00     0.031 A 
ATOM     24  C16 NON d   1     -49.055  16.139  -2.065  0.00  0.00     0.002 A 
ATOM     25  C17 NON d   1     -49.761  15.608  -3.134  0.00  0.00     0.002 A 
ATOM     26  C18 NON d   1     -49.168  15.573  -4.395  0.00  0.00     0.025 A 
ATOM     27  C19 NON d   1     -47.848  16.018  -4.609  0.00  0.00     0.033 A 
BRANCH  27  28
ATOM     28  N3  NON d   1     -47.440  16.130  -5.953  0.00  0.00    -0.301 NA
ATOM     29  H15 NON d   1     -48.161  15.762  -6.585  0.00  0.00     0.124 HD
ATOM     30  H16 NON d   1     -47.194  17.074  -6.220  0.00  0.00     0.124 HD
ENDBRANCH  27  28
ENDBRANCH  20  22
ENDBRANCH  15  18
ENDBRANCH  11  12
ENDBRANCH  10  11
ENDBRANCH   8  10
TORSDOF 6
ENDMDL
MODEL 3
REMARK VINA RESULT:   -34.051      2.410      3.691
REMARK INTER + INTRA:         -37.124
REMARK INTER:                 -35.841
REMARK INTRA:                  -1.283
REMARK CONF_INDEPENDENT:        1.790
REMARK UNBOUND:                -1.283
REMARK  6 active torsions:
REMARK  status: ('A' for Active; 'I' for Inactive)
REMARK    1  A    between atoms: C7_8  and  O1_9 
REMARK    2  A    between atoms: O1_9  and  C8_10 
REMARK    3  A    between atoms: C8_10  and  C9_11 
REMARK    4  A    between atoms: C12_14  and  C13_15 
REMARK       I    between atoms: C13_15  and  N2_17 
REMARK    5  A    between atoms: N2_17  and  C14_18 
REMARK    6  A    between atoms: C19_23  and  N3_24 
ROOT
ATOM      1  C1  NON d   1     -37.563  21.105   0.840  0.00  0.00     0.070 C 
ATOM      2  C2  NON d   1     -38.468  21.731  -0.238  0.00  0.00     0.033 A 
ATOM      3  C3  NON d   1     -39.005  22.968   0.092  0.00  0.00     0.028 A 
ATOM      4  C4  NON d   1     -39.814  23.609  -0.830  0.00  0.00     0.029 A 
ATOM      5  C5  NON d   1     -40.069  23.023  -2.079  0.00  0.00     0.097 A 
ATOM      6  C6  NON d   1     -40.919  23.785  -2.939  0.00  0.00     0.104 C 
ATOM      7  N1  NON d   1     -41.610  24.413  -3.629  0.00  0.00    -0.191 NA
ATOM      8  C7  NON d   1     -39.487  21.781  -2.373  0.00  0.00     0.186 A 
ATOM      9  N4  NON d   1     -38.693  21.144  -1.449  0.00  0.00    -0.229 NA
ENDROOT
BRANCH   8  10
ATOM     10  O1  NON d   1     -39.598  21.047  -3.541  0.00  0.00    -0.329 OA
BRANCH  10  11
ATOM     11  C8  NON d   1     -39.782  19.631  -3.445  0.00  0.00     0.216 C 
BRANCH  11  12
ATOM     12  C9  NON d   1     -41.147  19.056  -3.794  0.00  0.00    -0.034 A 
ATOM     13  C10 NON d   1     -41.659  18.045  -2.954  0.00  0.00     0.010 A 
ATOM     14  C11 NON d   1     -42.900  17.436  -3.195  0.00  0.00     0.017 A 
ATOM     15  C12 NON d   1     -43.677  17.832  -4.287  0.00  0.00     0.032 A 
ATOM     16  C20 NON d   1     -43.169  18.848  -5.122  0.00  0.00     0.017 A 
ATOM     17  C21 NON d   1     -41.921  19.456  -4.881  0.00  0.00     0.010 A 
BRANCH  15  18
ATOM     18  C13 NON d   1     -45.001  17.206  -4.646  0.00  0.00     0.256 C 
ATOM     19  O2  NON d   1     -45.154  16.837  -5.809  0.00  0.00    -0.267 OA
ATOM     20  N2  NON d   1     -45.937  17.055  -3.634  0.00  0.00    -0.321 N 
ATOM     21  H10 NON d   1     -45.649  17.318  -2.705  0.00  0.00     0.169 HD
BRANCH  20  22
ATOM     22  C14 NON d   1     -47.247  16.485  -3.684  0.00  0.00     0.056 A 
ATOM     23  C15 NON d   1     -47.931  16.468  -2.449  0.00  0.00     0.031 A 
ATOM     24  C16 NON d   1     -49.218  15.937  -2.325  0.00  0.00     0.002 A 
ATOM     25  C17 NON d   1     -49.864  15.435  -3.444  0.00  0.00     0.002 A 
ATOM     26  C18 NON d   1     -49.218  15.467  -4.679  0.00  0.00     0.025 A 
ATOM     27  C19 NON d   1     -47.901  15.953  -4.818  0.00  0.00     0.033 A 
BRANCH  27  28
ATOM     28  N3  NON d   1     -47.440  16.131  -6.137  0.00  0.00    -0.301 NA
ATOM     29  H15 NON d   1     -48.222  16.112  -6.802  0.00  0.00     0.124 HD
ATOM     30  H16 NON d   1     -46.899  16.977  -6.262  0.00  0.00     0.124 HD
ENDBRANCH  27  28
ENDBRANCH  20  22
ENDBRANCH  15  18
ENDBRANCH  11  12
ENDBRANCH  10  11
ENDBRANCH   8  10
TORSDOF 6
ENDMDL
MODEL 4
REMARK VINA RESULT:   -33.930      1.411      2.509
REMARK INTER + INTRA:         -37.810
REMARK INTER:                 -35.720
REMARK INTRA:                  -2.090
REMARK CONF_INDEPENDENT:        1.790
REMARK UNBOUND:                -2.090
REMARK  6 active torsions:
REMARK  status: ('A' for Active; 'I' for Inactive)
REMARK    1  A    between atoms: C7_8  and  O1_9 
REMARK    2  A    between atoms: O1_9  and  C8_10 
REMARK    3  A    between atoms: C8_10  and  C9_11 
REMARK    4  A    between atoms: C12_14  and  C13_15 
REMARK       I    between atoms: C13_15  and  N2_17 
REMARK    5  A    between atoms: N2_17  and  C14_18 
REMARK    6  A    between atoms: C19_23  and  N3_24 
ROOT
ATOM      1  C1  NON d   1     -36.818  23.273  -6.097  0.00  0.00     0.070 C 
ATOM      2  C2  NON d   1     -37.465  21.948  -6.541  0.00  0.00     0.033 A 
ATOM      3  C3  NON d   1     -37.716  21.844  -7.903  0.00  0.00     0.028 A 
ATOM      4  C4  NON d   1     -38.278  20.677  -8.389  0.00  0.00     0.029 A 
ATOM      5  C5  NON d   1     -38.570  19.615  -7.520  0.00  0.00     0.097 A 
ATOM      6  C6  NON d   1     -39.148  18.467  -8.145  0.00  0.00     0.104 C 
ATOM      7  N1  NON d   1     -39.616  17.540  -8.665  0.00  0.00    -0.191 NA
ATOM      8  C7  NON d   1     -38.280  19.760  -6.155  0.00  0.00     0.186 A 
ATOM      9  N4  NON d   1     -37.732  20.926  -5.676  0.00  0.00    -0.229 NA
ENDROOT
BRANCH   8  10
ATOM     10  O1  NON d   1     -38.474  18.837  -5.143  0.00  0.00    -0.329 OA
BRANCH  10  11
ATOM     11  C8  NON d   1     -39.402  19.148  -4.099  0.00  0.00     0.216 C 
BRANCH  11  12
ATOM     12  C9  NON d   1     -40.870  18.807  -4.314  0.00  0.00    -0.034 A 
ATOM     13  C10 NON d   1     -41.433  17.816  -3.482  0.00  0.00     0.010 A 
ATOM     14  C11 NON d   1     -42.772  17.413  -3.607  0.00  0.00     0.017 A 
ATOM     15  C12 NON d   1     -43.596  18.004  -4.569  0.00  0.00     0.032 A 
ATOM     16  C20 NON d   1     -43.035  19.000  -5.394  0.00  0.00     0.017 A 
ATOM     17  C21 NON d   1     -41.690  19.400  -5.271  0.00  0.00     0.010 A 
BRANCH  15  18
ATOM     18  C13 NON d   1     -45.032  17.606  -4.801  0.00  0.00     0.256 C 
ATOM     19  O2  NON d   1     -45.499  17.807  -5.921  0.00  0.00    -0.267 OA
ATOM     20  N2  NON d   1     -45.713  17.010  -3.751  0.00  0.00    -0.321 N 
ATOM     21  H10 NON d   1     -45.184  16.822  -2.914  0.00  0.00     0.169 HD
BRANCH  20  22
ATOM     22  C14 NON d   1     -47.055  16.521  -3.696  0.00  0.00     0.056 A 
ATOM     23  C15 NON d   1     -47.651  16.572  -2.418  0.00  0.00     0.031 A 
ATOM     24  C16 NON d   1     -48.956  16.124  -2.193  0.00  0.00     0.002 A 
ATOM     25  C17 NON d   1     -49.708  15.640  -3.253  0.00  0.00     0.002 A 
ATOM     26  C18 NON d   1     -49.148  15.607  -4.529  0.00  0.00     0.025 A 
ATOM     27  C19 NON d   1     -47.818  16.008  -4.770  0.00  0.00     0.033 A 
BRANCH  27  28
ATOM     28  N3  NON d   1     -47.440  16.130  -6.121  0.00  0.00    -0.301 NA
ATOM     29  H15 NON d   1     -47.562  17.096  -6.448  0.00  0.00     0.124 HD
ATOM     30  H16 NON d   1     -46.495  15.819  -6.303  0.00  0.00     0.124 HD
ENDBRANCH  27  28
ENDBRANCH  20  22
ENDBRANCH  15  18
ENDBRANCH  11  12
ENDBRANCH  10  11
ENDBRANCH   8  10
TORSDOF 6
ENDMDL
MODEL 5
REMARK VINA RESULT:   -33.730      2.092      3.524
REMARK INTER + INTRA:         -37.499
REMARK INTER:                 -35.520
REMARK INTRA:                  -1.979
REMARK CONF_INDEPENDENT:        1.790
REMARK UNBOUND:                -1.979
REMARK  6 active torsions:
REMARK  status: ('A' for Active; 'I' for Inactive)
REMARK    1  A    between atoms: C7_8  and  O1_9 
REMARK    2  A    between atoms: O1_9  and  C8_10 
REMARK    3  A    between atoms: C8_10  and  C9_11 
REMARK    4  A    between atoms: C12_14  and  C13_15 
REMARK       I    between atoms: C13_15  and  N2_17 
REMARK    5  A    between atoms: N2_17  and  C14_18 
REMARK    6  A    between atoms: C19_23  and  N3_24 
ROOT
ATOM      1  C1  NON d   1     -39.362  21.840   0.817  0.00  0.00     0.070 C 
ATOM      2  C2  NON d   1     -39.584  22.252  -0.650  0.00  0.00     0.033 A 
ATOM      3  C3  NON d   1     -39.957  23.577  -0.839  0.00  0.00     0.028 A 
ATOM      4  C4  NON d   1     -40.157  24.034  -2.129  0.00  0.00     0.029 A 
ATOM      5  C5  NON d   1     -39.969  23.177  -3.223  0.00  0.00     0.097 A 
ATOM      6  C6  NON d   1     -40.208  23.770  -4.501  0.00  0.00     0.104 C 
ATOM      7  N1  NON d   1     -40.404  24.264  -5.534  0.00  0.00    -0.191 NA
ATOM      8  C7  NON d   1     -39.573  21.852  -2.983  0.00  0.00     0.186 A 
ATOM      9  N4  NON d   1     -39.387  21.400  -1.698  0.00  0.00    -0.229 NA
ENDROOT
BRANCH   8  10
ATOM     10  O1  NON d   1     -39.321  20.859  -3.913  0.00  0.00    -0.329 OA
BRANCH  10  11
ATOM     11  C8  NON d   1     -39.563  19.498  -3.544  0.00  0.00     0.216 C 
BRANCH  11  12
ATOM     12  C9  NON d   1     -40.949  18.920  -3.788  0.00  0.00    -0.034 A 
ATOM     13  C10 NON d   1     -41.643  19.362  -4.934  0.00  0.00     0.010 A 
ATOM     14  C11 NON d   1     -42.934  18.905  -5.243  0.00  0.00     0.017 A 
ATOM     15  C12 NON d   1     -43.568  17.976  -4.414  0.00  0.00     0.032 A 
ATOM     16  C20 NON d   1     -42.871  17.529  -3.273  0.00  0.00     0.017 A 
ATOM     17  C21 NON d   1     -41.577  17.991  -2.961  0.00  0.00     0.010 A 
BRANCH  15  18
ATOM     18  C13 NON d   1     -44.967  17.463  -4.645  0.00  0.00     0.256 C 
ATOM     19  O2  NON d   1     -45.315  17.280  -5.810  0.00  0.00    -0.267 OA
ATOM     20  N2  NON d   1     -45.749  17.199  -3.530  0.00  0.00    -0.321 N 
ATOM     21  H10 NON d   1     -45.309  17.309  -2.631  0.00  0.00     0.169 HD
BRANCH  20  22
ATOM     22  C14 NON d   1     -47.084  16.695  -3.454  0.00  0.00     0.056 A 
ATOM     23  C15 NON d   1     -47.693  16.824  -2.187  0.00  0.00     0.031 A 
ATOM     24  C16 NON d   1     -48.993  16.372  -1.943  0.00  0.00     0.002 A 
ATOM     25  C17 NON d   1     -49.727  15.805  -2.973  0.00  0.00     0.002 A 
ATOM     26  C18 NON d   1     -49.155  15.692  -4.239  0.00  0.00     0.025 A 
ATOM     27  C19 NON d   1     -47.829  16.096  -4.495  0.00  0.00     0.033 A 
BRANCH  27  28
ATOM     28  N3  NON d   1     -47.440  16.131  -5.849  0.00  0.00    -0.301 NA
ATOM     29  H15 NON d   1     -47.363  17.099  -6.182  0.00  0.00     0.124 HD
ATOM     30  H16 NON d   1     -46.579  15.631  -6.032  0.00  0.00     0.124 HD
ENDBRANCH  27  28
ENDBRANCH  20  22
ENDBRANCH  15  18
ENDBRANCH  11  12
ENDBRANCH  10  11
ENDBRANCH   8  10
TORSDOF 6
ENDMDL
MODEL 6
REMARK VINA RESULT:   -33.628      2.394      3.539
REMARK INTER + INTRA:         -37.410
REMARK INTER:                 -35.417
REMARK INTRA:                  -1.993
REMARK CONF_INDEPENDENT:        1.790
REMARK UNBOUND:                -1.993
REMARK  6 active torsions:
REMARK  status: ('A' for Active; 'I' for Inactive)
REMARK    1  A    between atoms: C7_8  and  O1_9 
REMARK    2  A    between atoms: O1_9  and  C8_10 
REMARK    3  A    between atoms: C8_10  and  C9_11 
REMARK    4  A    between atoms: C12_14  and  C13_15 
REMARK       I    between atoms: C13_15  and  N2_17 
REMARK    5  A    between atoms: N2_17  and  C14_18 
REMARK    6  A    between atoms: C19_23  and  N3_24 
ROOT
ATOM      1  C1  NON d   1     -41.810  23.318  -4.060  0.00  0.00     0.070 C 
ATOM      2  C2  NON d   1     -40.864  22.718  -3.004  0.00  0.00     0.033 A 
ATOM      3  C3  NON d   1     -40.567  23.556  -1.936  0.00  0.00     0.028 A 
ATOM      4  C4  NON d   1     -39.740  23.087  -0.932  0.00  0.00     0.029 A 
ATOM      5  C5  NON d   1     -39.227  21.783  -0.987  0.00  0.00     0.097 A 
ATOM      6  C6  NON d   1     -38.385  21.420   0.110  0.00  0.00     0.104 C 
ATOM      7  N1  NON d   1     -37.705  21.137   1.007  0.00  0.00    -0.191 NA
ATOM      8  C7  NON d   1     -39.571  20.967  -2.075  0.00  0.00     0.186 A 
ATOM      9  N4  NON d   1     -40.385  21.442  -3.076  0.00  0.00    -0.229 NA
ENDROOT
BRANCH   8  10
ATOM     10  O1  NON d   1     -39.189  19.658  -2.310  0.00  0.00    -0.329 OA
BRANCH  10  11
ATOM     11  C8  NON d   1     -39.486  19.075  -3.582  0.00  0.00     0.216 C 
BRANCH  11  12
ATOM     12  C9  NON d   1     -40.929  18.695  -3.882  0.00  0.00    -0.034 A 
ATOM     13  C10 NON d   1     -41.479  17.616  -3.159  0.00  0.00     0.010 A 
ATOM     14  C11 NON d   1     -42.795  17.174  -3.369  0.00  0.00     0.017 A 
ATOM     15  C12 NON d   1     -43.608  17.812  -4.309  0.00  0.00     0.032 A 
ATOM     16  C20 NON d   1     -43.061  18.896  -5.026  0.00  0.00     0.017 A 
ATOM     17  C21 NON d   1     -41.739  19.336  -4.817  0.00  0.00     0.010 A 
BRANCH  15  18
ATOM     18  C13 NON d   1     -45.017  17.379  -4.630  0.00  0.00     0.256 C 
ATOM     19  O2  NON d   1     -45.359  17.404  -5.811  0.00  0.00    -0.267 OA
ATOM     20  N2  NON d   1     -45.814  16.950  -3.579  0.00  0.00    -0.321 N 
ATOM     21  H10 NON d   1     -45.379  16.895  -2.672  0.00  0.00     0.169 HD
BRANCH  20  22
ATOM     22  C14 NON d   1     -47.161  16.473  -3.594  0.00  0.00     0.056 A 
ATOM     23  C15 NON d   1     -47.813  16.504  -2.343  0.00  0.00     0.031 A 
ATOM     24  C16 NON d   1     -49.130  16.063  -2.186  0.00  0.00     0.002 A 
ATOM     25  C17 NON d   1     -49.838  15.606  -3.287  0.00  0.00     0.002 A 
ATOM     26  C18 NON d   1     -49.222  15.593  -4.538  0.00  0.00     0.025 A 
ATOM     27  C19 NON d   1     -47.879  15.986  -4.710  0.00  0.00     0.033 A 
BRANCH  27  28
ATOM     28  N3  NON d   1     -47.440  16.131  -6.041  0.00  0.00    -0.301 NA
ATOM     29  H15 NON d   1     -47.308  17.121  -6.276  0.00  0.00     0.124 HD
ATOM     30  H16 NON d   1     -46.596  15.610  -6.244  0.00  0.00     0.124 HD
ENDBRANCH  27  28
ENDBRANCH  20  22
ENDBRANCH  15  18
ENDBRANCH  11  12
ENDBRANCH  10  11
ENDBRANCH   8  10
TORSDOF 6
ENDMDL
MODEL 7
REMARK VINA RESULT:   -32.847      2.142      3.529
REMARK INTER + INTRA:         -36.343
REMARK INTER:                 -34.637
REMARK INTRA:                  -1.707
REMARK CONF_INDEPENDENT:        1.790
REMARK UNBOUND:                -1.707
REMARK  6 active torsions:
REMARK  status: ('A' for Active; 'I' for Inactive)
REMARK    1  A    between atoms: C7_8  and  O1_9 
REMARK    2  A    between atoms: O1_9  and  C8_10 
REMARK    3  A    between atoms: C8_10  and  C9_11 
REMARK    4  A    between atoms: C12_14  and  C13_15 
REMARK       I    between atoms: C13_15  and  N2_17 
REMARK    5  A    between atoms: N2_17  and  C14_18 
REMARK    6  A    between atoms: C19_23  and  N3_24 
ROOT
ATOM      1  C1  NON d   1     -36.205  16.196  -0.636  0.00  0.00     0.070 C 
ATOM      2  C2  NON d   1     -36.736  17.004  -1.835  0.00  0.00     0.033 A 
ATOM      3  C3  NON d   1     -36.190  16.658  -3.065  0.00  0.00     0.028 A 
ATOM      4  C4  NON d   1     -36.628  17.322  -4.196  0.00  0.00     0.029 A 
ATOM      5  C5  NON d   1     -37.618  18.311  -4.101  0.00  0.00     0.097 A 
ATOM      6  C6  NON d   1     -37.982  18.921  -5.342  0.00  0.00     0.104 C 
ATOM      7  N1  NON d   1     -38.269  19.407  -6.356  0.00  0.00    -0.191 NA
ATOM      8  C7  NON d   1     -38.153  18.611  -2.840  0.00  0.00     0.186 A 
ATOM      9  N4  NON d   1     -37.706  17.957  -1.716  0.00  0.00    -0.229 NA
ENDROOT
BRANCH   8  10
ATOM     10  O1  NON d   1     -39.138  19.533  -2.532  0.00  0.00    -0.329 OA
BRANCH  10  11
ATOM     11  C8  NON d   1     -39.920  20.082  -3.598  0.00  0.00     0.216 C 
BRANCH  11  12
ATOM     12  C9  NON d   1     -41.270  19.449  -3.902  0.00  0.00    -0.034 A 
ATOM     13  C10 NON d   1     -41.671  18.361  -3.099  0.00  0.00     0.010 A 
ATOM     14  C11 NON d   1     -42.890  17.694  -3.304  0.00  0.00     0.017 A 
ATOM     15  C12 NON d   1     -43.754  18.108  -4.322  0.00  0.00     0.032 A 
ATOM     16  C20 NON d   1     -43.356  19.201  -5.119  0.00  0.00     0.017 A 
ATOM     17  C21 NON d   1     -42.132  19.867  -4.914  0.00  0.00     0.010 A 
BRANCH  15  18
ATOM     18  C13 NON d   1     -45.060  17.427  -4.641  0.00  0.00     0.256 C 
ATOM     19  O2  NON d   1     -45.253  17.096  -5.810  0.00  0.00    -0.267 OA
ATOM     20  N2  NON d   1     -45.936  17.188  -3.591  0.00  0.00    -0.321 N 
ATOM     21  H10 NON d   1     -45.614  17.430  -2.668  0.00  0.00     0.169 HD
BRANCH  20  22
ATOM     22  C14 NON d   1     -47.216  16.552  -3.600  0.00  0.00     0.056 A 
ATOM     23  C15 NON d   1     -47.872  16.530  -2.351  0.00  0.00     0.031 A 
ATOM     24  C16 NON d   1     -49.128  15.937  -2.188  0.00  0.00     0.002 A 
ATOM     25  C17 NON d   1     -49.770  15.377  -3.282  0.00  0.00     0.002 A 
ATOM     26  C18 NON d   1     -49.151  15.413  -4.530  0.00  0.00     0.025 A 
ATOM     27  C19 NON d   1     -47.864  15.961  -4.708  0.00  0.00     0.033 A 
BRANCH  27  28
ATOM     28  N3  NON d   1     -47.440  16.131  -6.040  0.00  0.00    -0.301 NA
ATOM     29  H15 NON d   1     -47.357  17.128  -6.272  0.00  0.00     0.124 HD
ATOM     30  H16 NON d   1     -46.573  15.653  -6.249  0.00  0.00     0.124 HD
ENDBRANCH  27  28
ENDBRANCH  20  22
ENDBRANCH  15  18
ENDBRANCH  11  12
ENDBRANCH  10  11
ENDBRANCH   8  10
TORSDOF 6
ENDMDL
