MODEL 1
REMARK VINA RESULT:   -35.165      0.000      0.000
REMARK INTER + INTRA:         -37.816
REMARK INTER:                 -37.253
REMARK INTRA:                  -0.563
REMARK CONF_INDEPENDENT:        2.088
REMARK UNBOUND:                -0.563
REMARK  7 active torsions:
REMARK  status: ('A' for Active; 'I' for Inactive)
REMARK    1  A    between atoms: C2_2  and  N1_3 
REMARK    2  A    between atoms: N1_3  and  C3_4 
REMARK    3  A    between atoms: C3_4  and  S2_6 
REMARK    4  A    between atoms: S2_6  and  C4_7 
REMARK    5  A    between atoms: C4_7  and  C5_8 
REMARK    6  A    between atoms: C5_8  and  C6_10 
REMARK    7  A    between atoms: C9_13  and  N2_14 
REMARK       I    between atoms: N2_14  and  C10_15 
ROOT
ATOM      1  C6  NON d   1     -42.255  18.175  -4.083  0.00  0.00     0.011 A 
ATOM      2  C7  NON d   1     -41.432  19.198  -4.575  0.00  0.00     0.017 A 
ATOM      3  C8  NON d   1     -40.362  19.697  -3.819  0.00  0.00     0.030 A 
ATOM      4  C9  NON d   1     -40.089  19.185  -2.546  0.00  0.00     0.034 A 
ATOM      5  C12 NON d   1     -40.892  18.151  -2.059  0.00  0.00     0.030 A 
ATOM      6  C13 NON d   1     -41.965  17.647  -2.820  0.00  0.00     0.017 A 
ENDROOT
BRANCH   1   7
ATOM      7  C5  NON d   1     -43.441  17.745  -4.912  0.00  0.00     0.169 C 
ATOM      8  O1  NON d   1     -43.487  16.558  -5.236  0.00  0.00    -0.291 OA
BRANCH   7   9
ATOM      9  C4  NON d   1     -44.442  18.811  -5.360  0.00  0.00     0.165 C 
BRANCH   9  10
ATOM     10  S2  NON d   1     -45.920  18.154  -6.196  0.00  0.00    -0.091 SA
BRANCH  10  11
ATOM     11  C3  NON d   1     -46.525  16.847  -5.152  0.00  0.00     0.155 C 
ATOM     12  S1  NON d   1     -45.997  16.626  -3.559  0.00  0.00    -0.051 SA
BRANCH  11  13
ATOM     13  N1  NON d   1     -47.439  16.130  -5.844  0.00  0.00    -0.273 NA
BRANCH  13  14
ATOM     14  C2  NON d   1     -48.306  15.281  -5.018  0.00  0.00     0.146 C 
ATOM     15  C1  NON d   1     -49.101  15.917  -3.862  0.00  0.00     0.028 C 
ENDBRANCH  13  14
ENDBRANCH  11  13
ENDBRANCH  10  11
ENDBRANCH   9  10
ENDBRANCH   7   9
ENDBRANCH   1   7
BRANCH   4  16
ATOM     16  N2  NON d   1     -39.025  19.776  -1.829  0.00  0.00    -0.328 N 
ATOM     17  C10 NON d   1     -38.844  21.115  -1.537  0.00  0.00     0.218 C 
ATOM     18  C11 NON d   1     -37.541  21.398  -0.825  0.00  0.00     0.117 C 
ATOM     19  O2  NON d   1     -39.621  22.030  -1.789  0.00  0.00    -0.274 OA
ATOM     20  H10 NON d   1     -38.310  19.138  -1.499  0.00  0.00     0.169 HD
ENDBRANCH   4  16
TORSDOF 7
ENDMDL
MODEL 2
REMARK VINA RESULT:   -35.040      0.738      1.325
REMARK INTER + INTRA:         -37.573
REMARK INTER:                 -37.128
REMARK INTRA:                  -0.445
REMARK CONF_INDEPENDENT:        2.088
REMARK UNBOUND:                -0.445
REMARK  7 active torsions:
REMARK  status: ('A' for Active; 'I' for Inactive)
REMARK    1  A    between atoms: C2_2  and  N1_3 
REMARK    2  A    between atoms: N1_3  and  C3_4 
REMARK    3  A    between atoms: C3_4  and  S2_6 
REMARK    4  A    between atoms: S2_6  and  C4_7 
REMARK    5  A    between atoms: C4_7  and  C5_8 
REMARK    6  A    between atoms: C5_8  and  C6_10 
REMARK    7  A    between atoms: C9_13  and  N2_14 
REMARK       I    between atoms: N2_14  and  C10_15 
ROOT
ATOM      1  C6  NON d   1     -42.184  18.505  -4.158  0.00  0.00     0.011 A 
ATOM      2  C7  NON d   1     -41.900  18.012  -2.877  0.00  0.00     0.017 A 
ATOM      3  C8  NON d   1     -40.763  18.432  -2.172  0.00  0.00     0.030 A 
ATOM      4  C9  NON d   1     -39.877  19.357  -2.733  0.00  0.00     0.034 A 
ATOM      5  C12 NON d   1     -40.166  19.869  -4.001  0.00  0.00     0.030 A 
ATOM      6  C13 NON d   1     -41.310  19.449  -4.709  0.00  0.00     0.017 A 
ENDROOT
BRANCH   1   7
ATOM      7  C5  NON d   1     -43.377  17.946  -4.895  0.00  0.00     0.169 C 
ATOM      8  O1  NON d   1     -43.321  16.759  -5.216  0.00  0.00    -0.291 OA
BRANCH   7   9
ATOM      9  C4  NON d   1     -44.517  18.897  -5.264  0.00  0.00     0.165 C 
BRANCH   9  10
ATOM     10  S2  NON d   1     -45.880  18.117  -6.186  0.00  0.00    -0.091 SA
BRANCH  10  11
ATOM     11  C3  NON d   1     -46.499  16.825  -5.133  0.00  0.00     0.155 C 
ATOM     12  S1  NON d   1     -45.950  16.589  -3.550  0.00  0.00    -0.051 SA
BRANCH  11  13
ATOM     13  N1  NON d   1     -47.440  16.130  -5.811  0.00  0.00    -0.273 NA
BRANCH  13  14
ATOM     14  C2  NON d   1     -48.227  15.201  -4.990  0.00  0.00     0.146 C 
ATOM     15  C1  NON d   1     -48.808  15.689  -3.650  0.00  0.00     0.028 C 
ENDBRANCH  13  14
ENDBRANCH  11  13
ENDBRANCH  10  11
ENDBRANCH   9  10
ENDBRANCH   7   9
ENDBRANCH   1   7
BRANCH   4  16
ATOM     16  N2  NON d   1     -38.730  19.690  -1.980  0.00  0.00    -0.328 N 
ATOM     17  C10 NON d   1     -37.775  20.645  -2.273  0.00  0.00     0.218 C 
ATOM     18  C11 NON d   1     -36.633  20.667  -1.282  0.00  0.00     0.117 C 
ATOM     19  O2  NON d   1     -37.791  21.432  -3.213  0.00  0.00    -0.274 OA
ATOM     20  H10 NON d   1     -38.595  19.157  -1.128  0.00  0.00     0.169 HD
ENDBRANCH   4  16
TORSDOF 7
ENDMDL
MODEL 3
REMARK VINA RESULT:   -34.449      2.890      3.900
REMARK INTER + INTRA:         -37.241
REMARK INTER:                 -36.537
REMARK INTRA:                  -0.704
REMARK CONF_INDEPENDENT:        2.088
REMARK UNBOUND:                -0.704
REMARK  7 active torsions:
REMARK  status: ('A' for Active; 'I' for Inactive)
REMARK    1  A    between atoms: C2_2  and  N1_3 
REMARK    2  A    between atoms: N1_3  and  C3_4 
REMARK    3  A    between atoms: C3_4  and  S2_6 
REMARK    4  A    between atoms: S2_6  and  C4_7 
REMARK    5  A    between atoms: C4_7  and  C5_8 
REMARK    6  A    between atoms: C5_8  and  C6_10 
REMARK    7  A    between atoms: C9_13  and  N2_14 
REMARK       I    between atoms: N2_14  and  C10_15 
ROOT
ATOM      1  C6  NON d   1     -41.911  18.464  -4.732  0.00  0.00     0.011 A 
ATOM      2  C7  NON d   1     -40.564  18.073  -4.769  0.00  0.00     0.017 A 
ATOM      3  C8  NON d   1     -39.627  18.766  -5.549  0.00  0.00     0.030 A 
ATOM      4  C9  NON d   1     -40.015  19.869  -6.315  0.00  0.00     0.034 A 
ATOM      5  C12 NON d   1     -41.350  20.277  -6.266  0.00  0.00     0.030 A 
ATOM      6  C13 NON d   1     -42.292  19.583  -5.480  0.00  0.00     0.017 A 
ENDROOT
BRANCH   1   7
ATOM      7  C5  NON d   1     -42.882  17.622  -3.941  0.00  0.00     0.169 C 
ATOM      8  O1  NON d   1     -42.894  17.793  -2.722  0.00  0.00    -0.291 OA
BRANCH   7   9
ATOM      9  C4  NON d   1     -43.708  16.570  -4.683  0.00  0.00     0.165 C 
BRANCH   9  10
ATOM     10  S2  NON d   1     -45.462  16.511  -4.200  0.00  0.00    -0.091 SA
BRANCH  10  11
ATOM     11  C3  NON d   1     -46.377  17.031  -5.634  0.00  0.00     0.155 C 
ATOM     12  S1  NON d   1     -45.942  18.379  -6.560  0.00  0.00    -0.051 SA
BRANCH  11  13
ATOM     13  N1  NON d   1     -47.408  16.177  -5.821  0.00  0.00    -0.273 NA
BRANCH  13  14
ATOM     14  C2  NON d   1     -47.879  15.507  -4.602  0.00  0.00     0.146 C 
ATOM     15  C1  NON d   1     -48.984  16.170  -3.758  0.00  0.00     0.028 C 
ENDBRANCH  13  14
ENDBRANCH  11  13
ENDBRANCH  10  11
ENDBRANCH   9  10
ENDBRANCH   7   9
ENDBRANCH   1   7
BRANCH   4  16
ATOM     16  N2  NON d   1     -39.021  20.481  -7.112  0.00  0.00    -0.328 N 
ATOM     17  C10 NON d   1     -38.417  19.973  -8.246  0.00  0.00     0.218 C 
ATOM     18  C11 NON d   1     -37.329  20.870  -8.792  0.00  0.00     0.117 C 
ATOM     19  O2  NON d   1     -38.691  18.920  -8.812  0.00  0.00    -0.274 OA
ATOM     20  H10 NON d   1     -38.716  21.397  -6.804  0.00  0.00     0.169 HD
ENDBRANCH   4  16
TORSDOF 7
ENDMDL
MODEL 4
REMARK VINA RESULT:   -34.180      2.141      2.536
REMARK INTER + INTRA:         -36.908
REMARK INTER:                 -36.268
REMARK INTRA:                  -0.640
REMARK CONF_INDEPENDENT:        2.088
REMARK UNBOUND:                -0.640
REMARK  7 active torsions:
REMARK  status: ('A' for Active; 'I' for Inactive)
REMARK    1  A    between atoms: C2_2  and  N1_3 
REMARK    2  A    between atoms: N1_3  and  C3_4 
REMARK    3  A    between atoms: C3_4  and  S2_6 
REMARK    4  A    between atoms: S2_6  and  C4_7 
REMARK    5  A    between atoms: C4_7  and  C5_8 
REMARK    6  A    between atoms: C5_8  and  C6_10 
REMARK    7  A    between atoms: C9_13  and  N2_14 
REMARK       I    between atoms: N2_14  and  C10_15 
ROOT
ATOM      1  C6  NON d   1     -42.053  17.764  -4.512  0.00  0.00     0.011 A 
ATOM      2  C7  NON d   1     -41.511  18.273  -5.701  0.00  0.00     0.017 A 
ATOM      3  C8  NON d   1     -40.310  18.997  -5.701  0.00  0.00     0.030 A 
ATOM      4  C9  NON d   1     -39.619  19.231  -4.508  0.00  0.00     0.034 A 
ATOM      5  C12 NON d   1     -40.143  18.707  -3.323  0.00  0.00     0.030 A 
ATOM      6  C13 NON d   1     -41.348  17.978  -3.323  0.00  0.00     0.017 A 
ENDROOT
BRANCH   1   7
ATOM      7  C5  NON d   1     -43.393  17.070  -4.572  0.00  0.00     0.169 C 
ATOM      8  O1  NON d   1     -43.496  16.139  -5.371  0.00  0.00    -0.291 OA
BRANCH   7   9
ATOM      9  C4  NON d   1     -44.535  17.617  -3.715  0.00  0.00     0.165 C 
BRANCH   9  10
ATOM     10  S2  NON d   1     -46.134  16.783  -3.971  0.00  0.00    -0.091 SA
BRANCH  10  11
ATOM     11  C3  NON d   1     -46.572  17.088  -5.667  0.00  0.00     0.155 C 
ATOM     12  S1  NON d   1     -45.943  18.381  -6.560  0.00  0.00    -0.051 SA
BRANCH  11  13
ATOM     13  N1  NON d   1     -47.439  16.131  -6.068  0.00  0.00    -0.273 NA
BRANCH  13  14
ATOM     14  C2  NON d   1     -48.031  15.345  -4.978  0.00  0.00     0.146 C 
ATOM     15  C1  NON d   1     -49.144  15.973  -4.117  0.00  0.00     0.028 C 
ENDBRANCH  13  14
ENDBRANCH  11  13
ENDBRANCH  10  11
ENDBRANCH   9  10
ENDBRANCH   7   9
ENDBRANCH   1   7
BRANCH   4  16
ATOM     16  N2  NON d   1     -38.444  20.010  -4.586  0.00  0.00    -0.328 N 
ATOM     17  C10 NON d   1     -37.439  19.929  -5.531  0.00  0.00     0.218 C 
ATOM     18  C11 NON d   1     -36.283  20.864  -5.252  0.00  0.00     0.117 C 
ATOM     19  O2  NON d   1     -37.422  19.207  -6.522  0.00  0.00    -0.274 OA
ATOM     20  H10 NON d   1     -38.328  20.704  -3.856  0.00  0.00     0.169 HD
ENDBRANCH   4  16
TORSDOF 7
ENDMDL
MODEL 5
REMARK VINA RESULT:   -33.534      2.352      2.720
REMARK INTER + INTRA:         -36.211
REMARK INTER:                 -35.622
REMARK INTRA:                  -0.588
REMARK CONF_INDEPENDENT:        2.088
REMARK UNBOUND:                -0.588
REMARK  7 active torsions:
REMARK  status: ('A' for Active; 'I' for Inactive)
REMARK    1  A    between atoms: C2_2  and  N1_3 
REMARK    2  A    between atoms: N1_3  and  C3_4 
REMARK    3  A    between atoms: C3_4  and  S2_6 
REMARK    4  A    between atoms: S2_6  and  C4_7 
REMARK    5  A    between atoms: C4_7  and  C5_8 
REMARK    6  A    between atoms: C5_8  and  C6_10 
REMARK    7  A    between atoms: C9_13  and  N2_14 
REMARK       I    between atoms: N2_14  and  C10_15 
ROOT
ATOM      1  C6  NON d   1     -41.945  19.020  -5.186  0.00  0.00     0.011 A 
ATOM      2  C7  NON d   1     -41.485  19.331  -6.474  0.00  0.00     0.017 A 
ATOM      3  C8  NON d   1     -40.369  20.158  -6.667  0.00  0.00     0.030 A 
ATOM      4  C9  NON d   1     -39.685  20.699  -5.574  0.00  0.00     0.034 A 
ATOM      5  C12 NON d   1     -40.126  20.376  -4.288  0.00  0.00     0.030 A 
ATOM      6  C13 NON d   1     -41.245  19.542  -4.093  0.00  0.00     0.017 A 
ENDROOT
BRANCH   1   7
ATOM      7  C5  NON d   1     -43.202  18.195  -5.052  0.00  0.00     0.169 C 
ATOM      8  O1  NON d   1     -43.054  16.979  -4.937  0.00  0.00    -0.291 OA
BRANCH   7   9
ATOM      9  C4  NON d   1     -44.554  18.905  -5.152  0.00  0.00     0.165 C 
BRANCH   9  10
ATOM     10  S2  NON d   1     -45.782  18.044  -6.185  0.00  0.00    -0.091 SA
BRANCH  10  11
ATOM     11  C3  NON d   1     -46.481  16.778  -5.150  0.00  0.00     0.155 C 
ATOM     12  S1  NON d   1     -45.976  16.511  -3.558  0.00  0.00    -0.051 SA
BRANCH  11  13
ATOM     13  N1  NON d   1     -47.440  16.130  -5.850  0.00  0.00    -0.273 NA
BRANCH  13  14
ATOM     14  C2  NON d   1     -48.266  15.214  -5.054  0.00  0.00     0.146 C 
ATOM     15  C1  NON d   1     -49.068  15.767  -3.862  0.00  0.00     0.028 C 
ENDBRANCH  13  14
ENDBRANCH  11  13
ENDBRANCH  10  11
ENDBRANCH   9  10
ENDBRANCH   7   9
ENDBRANCH   1   7
BRANCH   4  16
ATOM     16  N2  NON d   1     -38.603  21.563  -5.855  0.00  0.00    -0.328 N 
ATOM     17  C10 NON d   1     -38.638  22.935  -6.014  0.00  0.00     0.218 C 
ATOM     18  C11 NON d   1     -37.298  23.523  -6.396  0.00  0.00     0.117 C 
ATOM     19  O2  NON d   1     -39.612  23.665  -5.867  0.00  0.00    -0.274 OA
ATOM     20  H10 NON d   1     -37.700  21.114  -5.957  0.00  0.00     0.169 HD
ENDBRANCH   4  16
TORSDOF 7
ENDMDL
MODEL 6
REMARK VINA RESULT:   -33.157      1.767      2.184
REMARK INTER + INTRA:         -35.963
REMARK INTER:                 -35.245
REMARK INTRA:                  -0.718
REMARK CONF_INDEPENDENT:        2.088
REMARK UNBOUND:                -0.718
REMARK  7 active torsions:
REMARK  status: ('A' for Active; 'I' for Inactive)
REMARK    1  A    between atoms: C2_2  and  N1_3 
REMARK    2  A    between atoms: N1_3  and  C3_4 
REMARK    3  A    between atoms: C3_4  and  S2_6 
REMARK    4  A    between atoms: S2_6  and  C4_7 
REMARK    5  A    between atoms: C4_7  and  C5_8 
REMARK    6  A    between atoms: C5_8  and  C6_10 
REMARK    7  A    between atoms: C9_13  and  N2_14 
REMARK       I    between atoms: N2_14  and  C10_15 
ROOT
ATOM      1  C6  NON d   1     -42.182  18.650  -4.268  0.00  0.00     0.011 A 
ATOM      2  C7  NON d   1     -42.119  19.635  -5.265  0.00  0.00     0.017 A 
ATOM      3  C8  NON d   1     -41.203  20.694  -5.182  0.00  0.00     0.030 A 
ATOM      4  C9  NON d   1     -40.327  20.796  -4.097  0.00  0.00     0.034 A 
ATOM      5  C12 NON d   1     -40.371  19.806  -3.112  0.00  0.00     0.030 A 
ATOM      6  C13 NON d   1     -41.288  18.740  -3.196  0.00  0.00     0.017 A 
ENDROOT
BRANCH   1   7
ATOM      7  C5  NON d   1     -43.249  17.588  -4.376  0.00  0.00     0.169 C 
ATOM      8  O1  NON d   1     -42.984  16.608  -5.072  0.00  0.00    -0.291 OA
BRANCH   7   9
ATOM      9  C4  NON d   1     -44.596  17.836  -3.694  0.00  0.00     0.165 C 
BRANCH   9  10
ATOM     10  S2  NON d   1     -45.877  16.601  -4.084  0.00  0.00    -0.091 SA
BRANCH  10  11
ATOM     11  C3  NON d   1     -46.499  17.042  -5.691  0.00  0.00     0.155 C 
ATOM     12  S1  NON d   1     -45.934  18.381  -6.558  0.00  0.00    -0.051 SA
BRANCH  11  13
ATOM     13  N1  NON d   1     -47.440  16.140  -6.051  0.00  0.00    -0.273 NA
BRANCH  13  14
ATOM     14  C2  NON d   1     -47.638  15.045  -5.093  0.00  0.00     0.146 C 
ATOM     15  C1  NON d   1     -48.934  14.996  -4.263  0.00  0.00     0.028 C 
ENDBRANCH  13  14
ENDBRANCH  11  13
ENDBRANCH  10  11
ENDBRANCH   9  10
ENDBRANCH   7   9
ENDBRANCH   1   7
BRANCH   4  16
ATOM     16  N2  NON d   1     -39.470  21.919  -4.063  0.00  0.00    -0.328 N 
ATOM     17  C10 NON d   1     -39.828  23.251  -3.974  0.00  0.00     0.218 C 
ATOM     18  C11 NON d   1     -38.646  24.190  -4.054  0.00  0.00     0.117 C 
ATOM     19  O2  NON d   1     -40.962  23.697  -3.834  0.00  0.00    -0.274 OA
ATOM     20  H10 NON d   1     -38.479  21.716  -4.119  0.00  0.00     0.169 HD
ENDBRANCH   4  16
TORSDOF 7
ENDMDL
