MODEL 1
REMARK VINA RESULT:   -36.160      0.000      0.000
REMARK INTER + INTRA:         -40.975
REMARK INTER:                 -38.845
REMARK INTRA:                  -2.130
REMARK CONF_INDEPENDENT:        2.685
REMARK UNBOUND:                -2.130
REMARK  9 active torsions:
REMARK  status: ('A' for Active; 'I' for Inactive)
REMARK    1  A    between atoms: N1_1  and  C1_2 
REMARK    2  A    between atoms: C6_7  and  N2_8 
REMARK       I    between atoms: N2_8  and  C7_9 
REMARK    3  A    between atoms: C7_9  and  C8_11 
REMARK    4  A    between atoms: C11_14  and  C12_15 
REMARK    5  A    between atoms: C12_15  and  N3_16 
REMARK    6  A    between atoms: N3_16  and  C13_17 
REMARK    7  A    between atoms: C16_21  and  C17_22 
REMARK    8  A    between atoms: C19_24  and  C20_25 
REMARK    9  A    between atoms: C20_25  and  O2_26 
ROOT
ATOM      1  C8  NON d   1     -40.745  23.365  -2.813  0.00  0.00     0.032 A 
ATOM      2  C9  NON d   1     -40.553  22.030  -2.439  0.00  0.00     0.017 A 
ATOM      3  C10 NON d   1     -40.426  21.026  -3.399  0.00  0.00     0.009 A 
ATOM      4  C11 NON d   1     -40.473  21.320  -4.772  0.00  0.00    -0.045 A 
ATOM      5  C21 NON d   1     -40.674  22.654  -5.149  0.00  0.00     0.009 A 
ATOM      6  C22 NON d   1     -40.804  23.671  -4.180  0.00  0.00     0.017 A 
ENDROOT
BRANCH   4   7
ATOM      7  C12 NON d   1     -40.367  20.144  -5.727  0.00  0.00     0.134 C 
BRANCH   7   8
ATOM      8  N3  NON d   1     -41.632  19.548  -6.118  0.00  0.00    -0.257 NA
ATOM      9  H12 NON d   1     -42.369  20.192  -6.379  0.00  0.00     0.131 HD
BRANCH   8  10
ATOM     10  C13 NON d   1     -42.172  18.736  -5.116  0.00  0.00     0.202 A 
ATOM     11  N4  NON d   1     -41.429  18.421  -4.044  0.00  0.00    -0.231 NA
ATOM     12  C14 NON d   1     -41.983  17.645  -3.102  0.00  0.00     0.122 A 
ATOM     13  C15 NON d   1     -43.257  17.161  -3.189  0.00  0.00     0.054 A 
ATOM     14  C16 NON d   1     -43.957  17.524  -4.321  0.00  0.00     0.097 A 
ATOM     15  N6  NON d   1     -43.435  18.323  -5.281  0.00  0.00    -0.216 NA
BRANCH  14  16
ATOM     16  C17 NON d   1     -45.312  17.028  -4.532  0.00  0.00     0.132 A 
ATOM     17  C18 NON d   1     -46.285  16.511  -3.705  0.00  0.00     0.073 A 
ATOM     18  C19 NON d   1     -47.363  16.190  -4.563  0.00  0.00     0.088 A 
ATOM     19  N5  NON d   1     -47.076  16.505  -5.833  0.00  0.00    -0.130 NA
ATOM     20  O3  NON d   1     -45.789  17.030  -5.810  0.00  0.00    -0.211 OA
BRANCH  18  21
ATOM     21  C20 NON d   1     -48.673  15.574  -4.212  0.00  0.00     0.225 C 
BRANCH  21  22
ATOM     22  O2  NON d   1     -49.310  14.966  -5.338  0.00  0.00    -0.395 OA
ATOM     23  H18 NON d   1     -48.634  14.912  -6.036  0.00  0.00     0.209 HD
ENDBRANCH  21  22
ENDBRANCH  18  21
ENDBRANCH  14  16
ENDBRANCH   8  10
ENDBRANCH   7   8
ENDBRANCH   4   7
BRANCH   1  24
ATOM     24  C7  NON d   1     -40.850  24.366  -1.698  0.00  0.00     0.256 C 
ATOM     25  N2  NON d   1     -41.061  23.886  -0.422  0.00  0.00    -0.321 N 
ATOM     26  H7  NON d   1     -41.146  22.891  -0.257  0.00  0.00     0.169 HD
ATOM     27  O1  NON d   1     -40.736  25.555  -1.991  0.00  0.00    -0.267 OA
BRANCH  25  28
ATOM     28  C6  NON d   1     -41.110  24.642   0.778  0.00  0.00     0.056 A 
ATOM     29  C5  NON d   1     -41.316  26.023   0.830  0.00  0.00     0.031 A 
ATOM     30  C4  NON d   1     -41.326  26.693   2.056  0.00  0.00     0.002 A 
ATOM     31  C3  NON d   1     -41.139  25.987   3.241  0.00  0.00     0.002 A 
ATOM     32  C2  NON d   1     -40.943  24.607   3.205  0.00  0.00     0.025 A 
ATOM     33  C1  NON d   1     -40.899  23.931   1.979  0.00  0.00     0.033 A 
BRANCH  33  34
ATOM     34  N1  NON d   1     -40.844  22.510   1.955  0.00  0.00    -0.301 NA
ATOM     35  H1  NON d   1     -39.895  22.179   2.119  0.00  0.00     0.124 HD
ATOM     36  H2  NON d   1     -41.449  22.151   2.693  0.00  0.00     0.124 HD
ENDBRANCH  33  34
ENDBRANCH  25  28
ENDBRANCH   1  24
TORSDOF 9
ENDMDL
MODEL 2
REMARK VINA RESULT:   -35.942      5.416      8.788
REMARK INTER + INTRA:         -40.589
REMARK INTER:                 -38.627
REMARK INTRA:                  -1.962
REMARK CONF_INDEPENDENT:        2.685
REMARK UNBOUND:                -1.962
REMARK  9 active torsions:
REMARK  status: ('A' for Active; 'I' for Inactive)
REMARK    1  A    between atoms: N1_1  and  C1_2 
REMARK    2  A    between atoms: C6_7  and  N2_8 
REMARK       I    between atoms: N2_8  and  C7_9 
REMARK    3  A    between atoms: C7_9  and  C8_11 
REMARK    4  A    between atoms: C11_14  and  C12_15 
REMARK    5  A    between atoms: C12_15  and  N3_16 
REMARK    6  A    between atoms: N3_16  and  C13_17 
REMARK    7  A    between atoms: C16_21  and  C17_22 
REMARK    8  A    between atoms: C19_24  and  C20_25 
REMARK    9  A    between atoms: C20_25  and  O2_26 
ROOT
ATOM      1  C8  NON d   1     -38.798  21.250  -9.843  0.00  0.00     0.032 A 
ATOM      2  C9  NON d   1     -39.986  21.685  -9.244  0.00  0.00     0.017 A 
ATOM      3  C10 NON d   1     -40.442  21.113  -8.056  0.00  0.00     0.009 A 
ATOM      4  C11 NON d   1     -39.722  20.092  -7.414  0.00  0.00    -0.045 A 
ATOM      5  C21 NON d   1     -38.538  19.649  -8.017  0.00  0.00     0.009 A 
ATOM      6  C22 NON d   1     -38.074  20.224  -9.218  0.00  0.00     0.017 A 
ENDROOT
BRANCH   4   7
ATOM      7  C12 NON d   1     -40.334  19.514  -6.150  0.00  0.00     0.134 C 
BRANCH   7   8
ATOM      8  N3  NON d   1     -41.786  19.540  -6.098  0.00  0.00    -0.257 NA
ATOM      9  H12 NON d   1     -42.211  20.439  -5.910  0.00  0.00     0.131 HD
BRANCH   8  10
ATOM     10  C13 NON d   1     -42.301  18.664  -5.137  0.00  0.00     0.202 A 
ATOM     11  N4  NON d   1     -41.519  18.252  -4.127  0.00  0.00    -0.231 NA
ATOM     12  C14 NON d   1     -42.050  17.418  -3.222  0.00  0.00     0.122 A 
ATOM     13  C15 NON d   1     -43.339  16.969  -3.288  0.00  0.00     0.054 A 
ATOM     14  C16 NON d   1     -44.079  17.433  -4.356  0.00  0.00     0.097 A 
ATOM     15  N6  NON d   1     -43.580  18.292  -5.275  0.00  0.00    -0.216 NA
BRANCH  14  16
ATOM     16  C17 NON d   1     -45.454  16.984  -4.542  0.00  0.00     0.132 A 
ATOM     17  C18 NON d   1     -46.426  16.493  -3.699  0.00  0.00     0.073 A 
ATOM     18  C19 NON d   1     -47.531  16.215  -4.535  0.00  0.00     0.088 A 
ATOM     19  N5  NON d   1     -47.260  16.530  -5.809  0.00  0.00    -0.130 NA
ATOM     20  O3  NON d   1     -45.957  17.011  -5.809  0.00  0.00    -0.211 OA
BRANCH  18  21
ATOM     21  C20 NON d   1     -48.853  15.640  -4.162  0.00  0.00     0.225 C 
BRANCH  21  22
ATOM     22  O2  NON d   1     -49.380  14.777  -5.173  0.00  0.00    -0.395 OA
ATOM     23  H18 NON d   1     -48.866  14.958  -5.979  0.00  0.00     0.209 HD
ENDBRANCH  21  22
ENDBRANCH  18  21
ENDBRANCH  14  16
ENDBRANCH   8  10
ENDBRANCH   7   8
ENDBRANCH   4   7
BRANCH   1  24
ATOM     24  C7  NON d   1     -38.390  21.947 -11.109  0.00  0.00     0.256 C 
ATOM     25  N2  NON d   1     -39.377  22.574 -11.843  0.00  0.00    -0.321 N 
ATOM     26  H7  NON d   1     -40.339  22.552 -11.531  0.00  0.00     0.169 HD
ATOM     27  O1  NON d   1     -37.199  21.921 -11.413  0.00  0.00    -0.267 OA
BRANCH  25  28
ATOM     28  C6  NON d   1     -39.203  23.353 -13.016  0.00  0.00     0.056 A 
ATOM     29  C5  NON d   1     -38.180  23.157 -13.947  0.00  0.00     0.031 A 
ATOM     30  C4  NON d   1     -38.070  23.988 -15.065  0.00  0.00     0.002 A 
ATOM     31  C3  NON d   1     -38.986  25.017 -15.266  0.00  0.00     0.002 A 
ATOM     32  C2  NON d   1     -40.018  25.218 -14.351  0.00  0.00     0.025 A 
ATOM     33  C1  NON d   1     -40.118  24.411 -13.210  0.00  0.00     0.033 A 
BRANCH  33  34
ATOM     34  N1  NON d   1     -41.251  24.525 -12.358  0.00  0.00    -0.301 NA
ATOM     35  H1  NON d   1     -41.499  25.502 -12.211  0.00  0.00     0.124 HD
ATOM     36  H2  NON d   1     -42.038  24.051 -12.801  0.00  0.00     0.124 HD
ENDBRANCH  33  34
ENDBRANCH  25  28
ENDBRANCH   1  24
TORSDOF 9
ENDMDL
MODEL 3
REMARK VINA RESULT:   -35.184      1.241      1.802
REMARK INTER + INTRA:         -39.874
REMARK INTER:                 -37.869
REMARK INTRA:                  -2.005
REMARK CONF_INDEPENDENT:        2.685
REMARK UNBOUND:                -2.005
REMARK  9 active torsions:
REMARK  status: ('A' for Active; 'I' for Inactive)
REMARK    1  A    between atoms: N1_1  and  C1_2 
REMARK    2  A    between atoms: C6_7  and  N2_8 
REMARK       I    between atoms: N2_8  and  C7_9 
REMARK    3  A    between atoms: C7_9  and  C8_11 
REMARK    4  A    between atoms: C11_14  and  C12_15 
REMARK    5  A    between atoms: C12_15  and  N3_16 
REMARK    6  A    between atoms: N3_16  and  C13_17 
REMARK    7  A    between atoms: C16_21  and  C17_22 
REMARK    8  A    between atoms: C19_24  and  C20_25 
REMARK    9  A    between atoms: C20_25  and  O2_26 
ROOT
ATOM      1  C8  NON d   1     -39.926  22.144  -2.012  0.00  0.00     0.032 A 
ATOM      2  C9  NON d   1     -40.346  21.112  -1.164  0.00  0.00     0.017 A 
ATOM      3  C10 NON d   1     -40.254  19.777  -1.558  0.00  0.00     0.009 A 
ATOM      4  C11 NON d   1     -39.726  19.421  -2.810  0.00  0.00    -0.045 A 
ATOM      5  C21 NON d   1     -39.314  20.452  -3.664  0.00  0.00     0.009 A 
ATOM      6  C22 NON d   1     -39.407  21.803  -3.269  0.00  0.00     0.017 A 
ENDROOT
BRANCH   4   7
ATOM      7  C12 NON d   1     -39.714  17.941  -3.151  0.00  0.00     0.134 C 
BRANCH   7   8
ATOM      8  N3  NON d   1     -40.999  17.271  -3.048  0.00  0.00    -0.257 NA
ATOM      9  H12 NON d   1     -41.009  16.285  -3.278  0.00  0.00     0.131 HD
BRANCH   8  10
ATOM     10  C13 NON d   1     -41.975  17.862  -3.856  0.00  0.00     0.202 A 
ATOM     11  N4  NON d   1     -41.686  18.984  -4.533  0.00  0.00    -0.231 NA
ATOM     12  C14 NON d   1     -42.646  19.519  -5.301  0.00  0.00     0.122 A 
ATOM     13  C15 NON d   1     -43.895  18.977  -5.417  0.00  0.00     0.054 A 
ATOM     14  C16 NON d   1     -44.118  17.827  -4.689  0.00  0.00     0.097 A 
ATOM     15  N6  NON d   1     -43.164  17.251  -3.920  0.00  0.00    -0.216 NA
BRANCH  14  16
ATOM     16  C17 NON d   1     -45.430  17.191  -4.711  0.00  0.00     0.132 A 
ATOM     17  C18 NON d   1     -46.205  16.556  -3.766  0.00  0.00     0.073 A 
ATOM     18  C19 NON d   1     -47.362  16.136  -4.461  0.00  0.00     0.088 A 
ATOM     19  N5  NON d   1     -47.308  16.505  -5.749  0.00  0.00    -0.130 NA
ATOM     20  O3  NON d   1     -46.095  17.165  -5.901  0.00  0.00    -0.211 OA
BRANCH  18  21
ATOM     21  C20 NON d   1     -48.531  15.375  -3.939  0.00  0.00     0.225 C 
BRANCH  21  22
ATOM     22  O2  NON d   1     -49.221  14.660  -4.968  0.00  0.00    -0.395 OA
ATOM     23  H18 NON d   1     -48.938  15.056  -5.810  0.00  0.00     0.209 HD
ENDBRANCH  21  22
ENDBRANCH  18  21
ENDBRANCH  14  16
ENDBRANCH   8  10
ENDBRANCH   7   8
ENDBRANCH   4   7
BRANCH   1  24
ATOM     24  C7  NON d   1     -40.052  23.543  -1.480  0.00  0.00     0.256 C 
ATOM     25  N2  NON d   1     -40.441  23.697  -0.165  0.00  0.00    -0.321 N 
ATOM     26  H7  NON d   1     -40.638  22.887   0.409  0.00  0.00     0.169 HD
ATOM     27  O1  NON d   1     -39.795  24.467  -2.249  0.00  0.00    -0.267 OA
BRANCH  25  28
ATOM     28  C6  NON d   1     -40.545  24.914   0.558  0.00  0.00     0.056 A 
ATOM     29  C5  NON d   1     -40.400  26.182  -0.011  0.00  0.00     0.031 A 
ATOM     30  C4  NON d   1     -40.494  27.329   0.782  0.00  0.00     0.002 A 
ATOM     31  C3  NON d   1     -40.741  27.218   2.148  0.00  0.00     0.002 A 
ATOM     32  C2  NON d   1     -40.897  25.959   2.726  0.00  0.00     0.025 A 
ATOM     33  C1  NON d   1     -40.773  24.802   1.946  0.00  0.00     0.033 A 
BRANCH  33  34
ATOM     34  N1  NON d   1     -41.076  23.532   2.510  0.00  0.00    -0.301 NA
ATOM     35  H1  NON d   1     -40.333  22.863   2.320  0.00  0.00     0.124 HD
ATOM     36  H2  NON d   1     -41.168  23.640   3.520  0.00  0.00     0.124 HD
ENDBRANCH  33  34
ENDBRANCH  25  28
ENDBRANCH   1  24
TORSDOF 9
ENDMDL
MODEL 4
REMARK VINA RESULT:   -34.927      2.180      9.564
REMARK INTER + INTRA:         -38.242
REMARK INTER:                 -37.611
REMARK INTRA:                  -0.630
REMARK CONF_INDEPENDENT:        2.685
REMARK UNBOUND:                -0.630
REMARK  9 active torsions:
REMARK  status: ('A' for Active; 'I' for Inactive)
REMARK    1  A    between atoms: N1_1  and  C1_2 
REMARK    2  A    between atoms: C6_7  and  N2_8 
REMARK       I    between atoms: N2_8  and  C7_9 
REMARK    3  A    between atoms: C7_9  and  C8_11 
REMARK    4  A    between atoms: C11_14  and  C12_15 
REMARK    5  A    between atoms: C12_15  and  N3_16 
REMARK    6  A    between atoms: N3_16  and  C13_17 
REMARK    7  A    between atoms: C16_21  and  C17_22 
REMARK    8  A    between atoms: C19_24  and  C20_25 
REMARK    9  A    between atoms: C20_25  and  O2_26 
ROOT
ATOM      1  C8  NON d   1     -43.934  17.731  -5.063  0.00  0.00     0.032 A 
ATOM      2  C9  NON d   1     -42.706  17.059  -5.065  0.00  0.00     0.017 A 
ATOM      3  C10 NON d   1     -41.503  17.762  -5.128  0.00  0.00     0.009 A 
ATOM      4  C11 NON d   1     -41.480  19.166  -5.177  0.00  0.00    -0.045 A 
ATOM      5  C21 NON d   1     -42.707  19.840  -5.184  0.00  0.00     0.009 A 
ATOM      6  C22 NON d   1     -43.926  19.132  -5.122  0.00  0.00     0.017 A 
ENDROOT
BRANCH   4   7
ATOM      7  C12 NON d   1     -40.115  19.824  -5.286  0.00  0.00     0.134 C 
BRANCH   7   8
ATOM      8  N3  NON d   1     -39.998  21.117  -4.634  0.00  0.00    -0.257 NA
ATOM      9  H12 NON d   1     -39.480  21.826  -5.137  0.00  0.00     0.131 HD
BRANCH   8  10
ATOM     10  C13 NON d   1     -39.398  21.026  -3.374  0.00  0.00     0.202 A 
ATOM     11  N4  NON d   1     -38.327  20.235  -3.204  0.00  0.00    -0.231 NA
ATOM     12  C14 NON d   1     -37.776  20.179  -1.983  0.00  0.00     0.122 A 
ATOM     13  C15 NON d   1     -38.258  20.881  -0.915  0.00  0.00     0.054 A 
ATOM     14  C16 NON d   1     -39.362  21.669  -1.167  0.00  0.00     0.097 A 
ATOM     15  N6  NON d   1     -39.930  21.764  -2.392  0.00  0.00    -0.216 NA
BRANCH  14  16
ATOM     16  C17 NON d   1     -39.980  22.428  -0.086  0.00  0.00     0.132 A 
ATOM     17  C18 NON d   1     -39.889  23.734   0.344  0.00  0.00     0.073 A 
ATOM     18  C19 NON d   1     -40.731  23.806   1.477  0.00  0.00     0.088 A 
ATOM     19  N5  NON d   1     -41.313  22.624   1.720  0.00  0.00    -0.130 NA
ATOM     20  O3  NON d   1     -40.839  21.763   0.738  0.00  0.00    -0.211 OA
BRANCH  18  21
ATOM     21  C20 NON d   1     -40.996  24.976   2.360  0.00  0.00     0.225 C 
BRANCH  21  22
ATOM     22  O2  NON d   1     -41.352  24.589   3.690  0.00  0.00    -0.395 OA
ATOM     23  H18 NON d   1     -41.261  23.621   3.724  0.00  0.00     0.209 HD
ENDBRANCH  21  22
ENDBRANCH  18  21
ENDBRANCH  14  16
ENDBRANCH   8  10
ENDBRANCH   7   8
ENDBRANCH   4   7
BRANCH   1  24
ATOM     24  C7  NON d   1     -45.167  16.878  -4.973  0.00  0.00     0.256 C 
ATOM     25  N2  NON d   1     -46.070  17.159  -3.968  0.00  0.00    -0.321 N 
ATOM     26  H7  NON d   1     -45.892  17.912  -3.316  0.00  0.00     0.169 HD
ATOM     27  O1  NON d   1     -45.299  15.983  -5.805  0.00  0.00    -0.267 OA
BRANCH  25  28
ATOM     28  C6  NON d   1     -47.326  16.536  -3.751  0.00  0.00     0.056 A 
ATOM     29  C5  NON d   1     -47.932  16.400  -2.500  0.00  0.00     0.031 A 
ATOM     30  C4  NON d   1     -49.162  15.750  -2.375  0.00  0.00     0.002 A 
ATOM     31  C3  NON d   1     -49.802  15.239  -3.501  0.00  0.00     0.002 A 
ATOM     32  C2  NON d   1     -49.214  15.376  -4.757  0.00  0.00     0.025 A 
ATOM     33  C1  NON d   1     -47.965  15.998  -4.890  0.00  0.00     0.033 A 
BRANCH  33  34
ATOM     34  N1  NON d   1     -47.440  16.264  -6.183  0.00  0.00    -0.301 NA
ATOM     35  H1  NON d   1     -48.064  15.916  -6.909  0.00  0.00     0.124 HD
ATOM     36  H2  NON d   1     -47.343  17.273  -6.292  0.00  0.00     0.124 HD
ENDBRANCH  33  34
ENDBRANCH  25  28
ENDBRANCH   1  24
TORSDOF 9
ENDMDL
MODEL 5
REMARK VINA RESULT:   -34.740      5.324      9.485
REMARK INTER + INTRA:         -38.615
REMARK INTER:                 -37.424
REMARK INTRA:                  -1.191
REMARK CONF_INDEPENDENT:        2.685
REMARK UNBOUND:                -1.191
REMARK  9 active torsions:
REMARK  status: ('A' for Active; 'I' for Inactive)
REMARK    1  A    between atoms: N1_1  and  C1_2 
REMARK    2  A    between atoms: C6_7  and  N2_8 
REMARK       I    between atoms: N2_8  and  C7_9 
REMARK    3  A    between atoms: C7_9  and  C8_11 
REMARK    4  A    between atoms: C11_14  and  C12_15 
REMARK    5  A    between atoms: C12_15  and  N3_16 
REMARK    6  A    between atoms: N3_16  and  C13_17 
REMARK    7  A    between atoms: C16_21  and  C17_22 
REMARK    8  A    between atoms: C19_24  and  C20_25 
REMARK    9  A    between atoms: C20_25  and  O2_26 
ROOT
ATOM      1  C8  NON d   1     -43.918  17.995  -4.817  0.00  0.00     0.032 A 
ATOM      2  C9  NON d   1     -43.043  17.126  -4.153  0.00  0.00     0.017 A 
ATOM      3  C10 NON d   1     -41.676  17.396  -4.085  0.00  0.00     0.009 A 
ATOM      4  C11 NON d   1     -41.132  18.553  -4.667  0.00  0.00    -0.045 A 
ATOM      5  C21 NON d   1     -42.003  19.419  -5.339  0.00  0.00     0.009 A 
ATOM      6  C22 NON d   1     -43.386  19.148  -5.411  0.00  0.00     0.017 A 
ENDROOT
BRANCH   4   7
ATOM      7  C12 NON d   1     -39.626  18.723  -4.569  0.00  0.00     0.134 C 
BRANCH   7   8
ATOM      8  N3  NON d   1     -39.104  19.952  -5.141  0.00  0.00    -0.257 NA
ATOM      9  H12 NON d   1     -39.687  20.774  -5.045  0.00  0.00     0.131 HD
BRANCH   8  10
ATOM     10  C13 NON d   1     -38.835  19.832  -6.508  0.00  0.00     0.202 A 
ATOM     11  N4  NON d   1     -38.196  18.745  -6.967  0.00  0.00    -0.231 NA
ATOM     12  C14 NON d   1     -37.962  18.664  -8.284  0.00  0.00     0.122 A 
ATOM     13  C15 NON d   1     -38.337  19.634  -9.169  0.00  0.00     0.054 A 
ATOM     14  C16 NON d   1     -38.985  20.722  -8.623  0.00  0.00     0.097 A 
ATOM     15  N6  NON d   1     -39.256  20.827  -7.301  0.00  0.00    -0.216 NA
BRANCH  14  16
ATOM     16  C17 NON d   1     -39.393  21.833  -9.475  0.00  0.00     0.132 A 
ATOM     17  C18 NON d   1     -39.126  22.193 -10.778  0.00  0.00     0.073 A 
ATOM     18  C19 NON d   1     -39.815  23.412 -10.971  0.00  0.00     0.088 A 
ATOM     19  N5  NON d   1     -40.476  23.771  -9.862  0.00  0.00    -0.130 NA
ATOM     20  O3  NON d   1     -40.209  22.779  -8.926  0.00  0.00    -0.211 OA
BRANCH  18  21
ATOM     21  C20 NON d   1     -39.858  24.268 -12.189  0.00  0.00     0.225 C 
BRANCH  21  22
ATOM     22  O2  NON d   1     -40.881  25.265 -12.121  0.00  0.00    -0.395 OA
ATOM     23  H18 NON d   1     -41.045  25.421 -11.175  0.00  0.00     0.209 HD
ENDBRANCH  21  22
ENDBRANCH  18  21
ENDBRANCH  14  16
ENDBRANCH   8  10
ENDBRANCH   7   8
ENDBRANCH   4   7
BRANCH   1  24
ATOM     24  C7  NON d   1     -45.371  17.618  -4.813  0.00  0.00     0.256 C 
ATOM     25  N2  NON d   1     -45.877  17.026  -3.673  0.00  0.00    -0.321 N 
ATOM     26  H7  NON d   1     -45.277  16.853  -2.876  0.00  0.00     0.169 HD
ATOM     27  O1  NON d   1     -46.024  17.863  -5.824  0.00  0.00    -0.267 OA
BRANCH  25  28
ATOM     28  C6  NON d   1     -47.227  16.666  -3.425  0.00  0.00     0.056 A 
ATOM     29  C5  NON d   1     -47.861  16.789  -2.186  0.00  0.00     0.031 A 
ATOM     30  C4  NON d   1     -49.189  16.387  -2.026  0.00  0.00     0.002 A 
ATOM     31  C3  NON d   1     -49.898  15.866  -3.105  0.00  0.00     0.002 A 
ATOM     32  C2  NON d   1     -49.282  15.747  -4.350  0.00  0.00     0.025 A 
ATOM     33  C1  NON d   1     -47.941  16.118  -4.513  0.00  0.00     0.033 A 
BRANCH  33  34
ATOM     34  N1  NON d   1     -47.363  16.131  -5.812  0.00  0.00    -0.301 NA
ATOM     35  H1  NON d   1     -47.865  15.507  -6.441  0.00  0.00     0.124 HD
ATOM     36  H2  NON d   1     -47.418  17.080  -6.181  0.00  0.00     0.124 HD
ENDBRANCH  33  34
ENDBRANCH  25  28
ENDBRANCH   1  24
TORSDOF 9
ENDMDL
MODEL 6
REMARK VINA RESULT:   -34.603      2.026      9.432
REMARK INTER + INTRA:         -39.478
REMARK INTER:                 -37.288
REMARK INTRA:                  -2.190
REMARK CONF_INDEPENDENT:        2.685
REMARK UNBOUND:                -2.190
REMARK  9 active torsions:
REMARK  status: ('A' for Active; 'I' for Inactive)
REMARK    1  A    between atoms: N1_1  and  C1_2 
REMARK    2  A    between atoms: C6_7  and  N2_8 
REMARK       I    between atoms: N2_8  and  C7_9 
REMARK    3  A    between atoms: C7_9  and  C8_11 
REMARK    4  A    between atoms: C11_14  and  C12_15 
REMARK    5  A    between atoms: C12_15  and  N3_16 
REMARK    6  A    between atoms: N3_16  and  C13_17 
REMARK    7  A    between atoms: C16_21  and  C17_22 
REMARK    8  A    between atoms: C19_24  and  C20_25 
REMARK    9  A    between atoms: C20_25  and  O2_26 
ROOT
ATOM      1  C8  NON d   1     -43.752  17.916  -4.591  0.00  0.00     0.032 A 
ATOM      2  C9  NON d   1     -43.002  17.252  -3.613  0.00  0.00     0.017 A 
ATOM      3  C10 NON d   1     -41.639  17.503  -3.460  0.00  0.00     0.009 A 
ATOM      4  C11 NON d   1     -40.974  18.437  -4.271  0.00  0.00    -0.045 A 
ATOM      5  C21 NON d   1     -41.720  19.096  -5.257  0.00  0.00     0.009 A 
ATOM      6  C22 NON d   1     -43.099  18.844  -5.414  0.00  0.00     0.017 A 
ENDROOT
BRANCH   4   7
ATOM      7  C12 NON d   1     -39.480  18.598  -4.046  0.00  0.00     0.134 C 
BRANCH   7   8
ATOM      8  N3  NON d   1     -39.111  19.298  -2.827  0.00  0.00    -0.257 NA
ATOM      9  H12 NON d   1     -39.389  18.860  -1.958  0.00  0.00     0.131 HD
BRANCH   8  10
ATOM     10  C13 NON d   1     -39.624  20.598  -2.781  0.00  0.00     0.202 A 
ATOM     11  N4  NON d   1     -39.863  21.258  -3.925  0.00  0.00    -0.231 NA
ATOM     12  C14 NON d   1     -40.360  22.500  -3.840  0.00  0.00     0.122 A 
ATOM     13  C15 NON d   1     -40.625  23.118  -2.651  0.00  0.00     0.054 A 
ATOM     14  C16 NON d   1     -40.349  22.378  -1.520  0.00  0.00     0.097 A 
ATOM     15  N6  NON d   1     -39.866  21.114  -1.570  0.00  0.00    -0.216 NA
BRANCH  14  16
ATOM     16  C17 NON d   1     -40.557  22.959  -0.199  0.00  0.00     0.132 A 
ATOM     17  C18 NON d   1     -40.775  24.238   0.265  0.00  0.00     0.073 A 
ATOM     18  C19 NON d   1     -40.859  24.110   1.670  0.00  0.00     0.088 A 
ATOM     19  N5  NON d   1     -40.717  22.831   2.045  0.00  0.00    -0.130 NA
ATOM     20  O3  NON d   1     -40.528  22.113   0.871  0.00  0.00    -0.211 OA
BRANCH  18  21
ATOM     21  C20 NON d   1     -41.061  25.180   2.687  0.00  0.00     0.225 C 
BRANCH  21  22
ATOM     22  O2  NON d   1     -41.437  24.656   3.964  0.00  0.00    -0.395 OA
ATOM     23  H18 NON d   1     -41.433  23.688   3.872  0.00  0.00     0.209 HD
ENDBRANCH  21  22
ENDBRANCH  18  21
ENDBRANCH  14  16
ENDBRANCH   8  10
ENDBRANCH   7   8
ENDBRANCH   4   7
BRANCH   1  24
ATOM     24  C7  NON d   1     -45.215  17.585  -4.656  0.00  0.00     0.256 C 
ATOM     25  N2  NON d   1     -45.770  16.916  -3.583  0.00  0.00    -0.321 N 
ATOM     26  H7  NON d   1     -45.197  16.657  -2.789  0.00  0.00     0.169 HD
ATOM     27  O1  NON d   1     -45.833  17.934  -5.659  0.00  0.00    -0.267 OA
BRANCH  25  28
ATOM     28  C6  NON d   1     -47.136  16.578  -3.402  0.00  0.00     0.056 A 
ATOM     29  C5  NON d   1     -47.815  16.671  -2.184  0.00  0.00     0.031 A 
ATOM     30  C4  NON d   1     -49.157  16.293  -2.090  0.00  0.00     0.002 A 
ATOM     31  C3  NON d   1     -49.834  15.827  -3.214  0.00  0.00     0.002 A 
ATOM     32  C2  NON d   1     -49.172  15.739  -4.437  0.00  0.00     0.025 A 
ATOM     33  C1  NON d   1     -47.817  16.084  -4.535  0.00  0.00     0.033 A 
BRANCH  33  34
ATOM     34  N1  NON d   1     -47.188  16.130  -5.810  0.00  0.00    -0.301 NA
ATOM     35  H1  NON d   1     -47.189  17.078  -6.183  0.00  0.00     0.124 HD
ATOM     36  H2  NON d   1     -46.223  15.820  -5.705  0.00  0.00     0.124 HD
ENDBRANCH  33  34
ENDBRANCH  25  28
ENDBRANCH   1  24
TORSDOF 9
ENDMDL
MODEL 7
REMARK VINA RESULT:   -33.857      3.914      6.346
REMARK INTER + INTRA:         -38.029
REMARK INTER:                 -36.542
REMARK INTRA:                  -1.487
REMARK CONF_INDEPENDENT:        2.685
REMARK UNBOUND:                -1.487
REMARK  9 active torsions:
REMARK  status: ('A' for Active; 'I' for Inactive)
REMARK    1  A    between atoms: N1_1  and  C1_2 
REMARK    2  A    between atoms: C6_7  and  N2_8 
REMARK       I    between atoms: N2_8  and  C7_9 
REMARK    3  A    between atoms: C7_9  and  C8_11 
REMARK    4  A    between atoms: C11_14  and  C12_15 
REMARK    5  A    between atoms: C12_15  and  N3_16 
REMARK    6  A    between atoms: N3_16  and  C13_17 
REMARK    7  A    between atoms: C16_21  and  C17_22 
REMARK    8  A    between atoms: C19_24  and  C20_25 
REMARK    9  A    between atoms: C20_25  and  O2_26 
ROOT
ATOM      1  C8  NON d   1     -38.545  21.152  -4.910  0.00  0.00     0.032 A 
ATOM      2  C9  NON d   1     -38.463  19.765  -5.082  0.00  0.00     0.017 A 
ATOM      3  C10 NON d   1     -39.104  18.893  -4.203  0.00  0.00     0.009 A 
ATOM      4  C11 NON d   1     -39.864  19.373  -3.123  0.00  0.00    -0.045 A 
ATOM      5  C21 NON d   1     -39.941  20.760  -2.943  0.00  0.00     0.009 A 
ATOM      6  C22 NON d   1     -39.293  21.645  -3.831  0.00  0.00     0.017 A 
ENDROOT
BRANCH   4   7
ATOM      7  C12 NON d   1     -40.482  18.333  -2.206  0.00  0.00     0.134 C 
BRANCH   7   8
ATOM      8  N3  NON d   1     -41.288  17.323  -2.869  0.00  0.00    -0.257 NA
ATOM      9  H12 NON d   1     -40.785  16.648  -3.432  0.00  0.00     0.131 HD
BRANCH   8  10
ATOM     10  C13 NON d   1     -42.254  17.881  -3.713  0.00  0.00     0.202 A 
ATOM     11  N4  NON d   1     -41.979  19.012  -4.381  0.00  0.00    -0.231 NA
ATOM     12  C14 NON d   1     -42.928  19.513  -5.184  0.00  0.00     0.122 A 
ATOM     13  C15 NON d   1     -44.152  18.929  -5.346  0.00  0.00     0.054 A 
ATOM     14  C16 NON d   1     -44.362  17.772  -4.624  0.00  0.00     0.097 A 
ATOM     15  N6  NON d   1     -43.418  17.228  -3.820  0.00  0.00    -0.216 NA
BRANCH  14  16
ATOM     16  C17 NON d   1     -45.650  17.091  -4.694  0.00  0.00     0.132 A 
ATOM     17  C18 NON d   1     -46.466  16.483  -3.765  0.00  0.00     0.073 A 
ATOM     18  C19 NON d   1     -47.561  15.986  -4.509  0.00  0.00     0.088 A 
ATOM     19  N5  NON d   1     -47.433  16.284  -5.809  0.00  0.00    -0.130 NA
ATOM     20  O3  NON d   1     -46.234  16.976  -5.921  0.00  0.00    -0.211 OA
BRANCH  18  21
ATOM     21  C20 NON d   1     -48.738  15.216  -4.020  0.00  0.00     0.225 C 
BRANCH  21  22
ATOM     22  O2  NON d   1     -49.488  14.628  -5.086  0.00  0.00    -0.395 OA
ATOM     23  H18 NON d   1     -48.940  14.716  -5.884  0.00  0.00     0.209 HD
ENDBRANCH  21  22
ENDBRANCH  18  21
ENDBRANCH  14  16
ENDBRANCH   8  10
ENDBRANCH   7   8
ENDBRANCH   4   7
BRANCH   1  24
ATOM     24  C7  NON d   1     -37.833  21.999  -5.926  0.00  0.00     0.256 C 
ATOM     25  N2  NON d   1     -38.466  22.221  -7.132  0.00  0.00    -0.321 N 
ATOM     26  H7  NON d   1     -39.375  21.816  -7.316  0.00  0.00     0.169 HD
ATOM     27  O1  NON d   1     -36.731  22.447  -5.618  0.00  0.00    -0.267 OA
BRANCH  25  28
ATOM     28  C6  NON d   1     -38.014  23.048  -8.193  0.00  0.00     0.056 A 
ATOM     29  C5  NON d   1     -36.738  23.613  -8.263  0.00  0.00     0.031 A 
ATOM     30  C4  NON d   1     -36.385  24.437  -9.334  0.00  0.00     0.002 A 
ATOM     31  C3  NON d   1     -37.301  24.697 -10.349  0.00  0.00     0.002 A 
ATOM     32  C2  NON d   1     -38.575  24.133 -10.298  0.00  0.00     0.025 A 
ATOM     33  C1  NON d   1     -38.950  23.331  -9.211  0.00  0.00     0.033 A 
BRANCH  33  34
ATOM     34  N1  NON d   1     -40.194  22.643  -9.235  0.00  0.00    -0.301 NA
ATOM     35  H1  NON d   1     -40.900  23.149  -8.703  0.00  0.00     0.124 HD
ATOM     36  H2  NON d   1     -40.504  22.569 -10.203  0.00  0.00     0.124 HD
ENDBRANCH  33  34
ENDBRANCH  25  28
ENDBRANCH   1  24
TORSDOF 9
ENDMDL
MODEL 8
REMARK VINA RESULT:   -33.838      4.745      9.603
REMARK INTER + INTRA:         -38.599
REMARK INTER:                 -36.522
REMARK INTRA:                  -2.077
REMARK CONF_INDEPENDENT:        2.685
REMARK UNBOUND:                -2.077
REMARK  9 active torsions:
REMARK  status: ('A' for Active; 'I' for Inactive)
REMARK    1  A    between atoms: N1_1  and  C1_2 
REMARK    2  A    between atoms: C6_7  and  N2_8 
REMARK       I    between atoms: N2_8  and  C7_9 
REMARK    3  A    between atoms: C7_9  and  C8_11 
REMARK    4  A    between atoms: C11_14  and  C12_15 
REMARK    5  A    between atoms: C12_15  and  N3_16 
REMARK    6  A    between atoms: N3_16  and  C13_17 
REMARK    7  A    between atoms: C16_21  and  C17_22 
REMARK    8  A    between atoms: C19_24  and  C20_25 
REMARK    9  A    between atoms: C20_25  and  O2_26 
ROOT
ATOM      1  C8  NON d   1     -43.979  17.734  -4.651  0.00  0.00     0.032 A 
ATOM      2  C9  NON d   1     -42.979  17.310  -3.768  0.00  0.00     0.017 A 
ATOM      3  C10 NON d   1     -41.809  18.050  -3.599  0.00  0.00     0.009 A 
ATOM      4  C11 NON d   1     -41.599  19.252  -4.297  0.00  0.00    -0.045 A 
ATOM      5  C21 NON d   1     -42.594  19.674  -5.188  0.00  0.00     0.009 A 
ATOM      6  C22 NON d   1     -43.778  18.927  -5.362  0.00  0.00     0.017 A 
ENDROOT
BRANCH   4   7
ATOM      7  C12 NON d   1     -40.271  19.952  -4.068  0.00  0.00     0.134 C 
BRANCH   7   8
ATOM      8  N3  NON d   1     -39.176  19.492  -4.904  0.00  0.00    -0.257 NA
ATOM      9  H12 NON d   1     -38.266  19.891  -4.710  0.00  0.00     0.131 HD
BRANCH   8  10
ATOM     10  C13 NON d   1     -39.410  19.720  -6.264  0.00  0.00     0.202 A 
ATOM     11  N4  NON d   1     -39.430  18.685  -7.118  0.00  0.00    -0.231 NA
ATOM     12  C14 NON d   1     -39.663  18.943  -8.412  0.00  0.00     0.122 A 
ATOM     13  C15 NON d   1     -39.874  20.203  -8.894  0.00  0.00     0.054 A 
ATOM     14  C16 NON d   1     -39.836  21.215  -7.958  0.00  0.00     0.097 A 
ATOM     15  N6  NON d   1     -39.623  20.987  -6.641  0.00  0.00    -0.216 NA
BRANCH  14  16
ATOM     16  C17 NON d   1     -40.009  22.602  -8.374  0.00  0.00     0.132 A 
ATOM     17  C18 NON d   1     -39.936  23.815  -7.725  0.00  0.00     0.073 A 
ATOM     18  C19 NON d   1     -40.249  24.778  -8.712  0.00  0.00     0.088 A 
ATOM     19  N5  NON d   1     -40.484  24.194  -9.895  0.00  0.00    -0.130 NA
ATOM     20  O3  NON d   1     -40.333  22.830  -9.679  0.00  0.00    -0.211 OA
BRANCH  18  21
ATOM     21  C20 NON d   1     -40.345  26.257  -8.565  0.00  0.00     0.225 C 
BRANCH  21  22
ATOM     22  O2  NON d   1     -40.377  26.931  -9.825  0.00  0.00    -0.395 OA
ATOM     23  H18 NON d   1     -40.721  26.288 -10.468  0.00  0.00     0.209 HD
ENDBRANCH  21  22
ENDBRANCH  18  21
ENDBRANCH  14  16
ENDBRANCH   8  10
ENDBRANCH   7   8
ENDBRANCH   4   7
BRANCH   1  24
ATOM     24  C7  NON d   1     -45.206  16.872  -4.742  0.00  0.00     0.256 C 
ATOM     25  N2  NON d   1     -46.165  17.015  -3.760  0.00  0.00    -0.321 N 
ATOM     26  H7  NON d   1     -46.031  17.678  -3.006  0.00  0.00     0.169 HD
ATOM     27  O1  NON d   1     -45.283  16.093  -5.689  0.00  0.00    -0.267 OA
BRANCH  25  28
ATOM     28  C6  NON d   1     -47.424  16.365  -3.695  0.00  0.00     0.056 A 
ATOM     29  C5  NON d   1     -48.080  16.034  -2.507  0.00  0.00     0.031 A 
ATOM     30  C4  NON d   1     -49.309  15.371  -2.536  0.00  0.00     0.002 A 
ATOM     31  C3  NON d   1     -49.898  15.041  -3.753  0.00  0.00     0.002 A 
ATOM     32  C2  NON d   1     -49.260  15.374  -4.947  0.00  0.00     0.025 A 
ATOM     33  C1  NON d   1     -48.012  16.010  -4.929  0.00  0.00     0.033 A 
BRANCH  33  34
ATOM     34  N1  NON d   1     -47.436  16.476  -6.142  0.00  0.00    -0.301 NA
ATOM     35  H1  NON d   1     -46.982  17.377  -6.008  0.00  0.00     0.124 HD
ATOM     36  H2  NON d   1     -46.737  15.800  -6.449  0.00  0.00     0.124 HD
ENDBRANCH  33  34
ENDBRANCH  25  28
ENDBRANCH   1  24
TORSDOF 9
ENDMDL
MODEL 9
REMARK VINA RESULT:   -33.324      3.420      9.102
REMARK INTER + INTRA:         -38.341
REMARK INTER:                 -36.008
REMARK INTRA:                  -2.333
REMARK CONF_INDEPENDENT:        2.685
REMARK UNBOUND:                -2.333
REMARK  9 active torsions:
REMARK  status: ('A' for Active; 'I' for Inactive)
REMARK    1  A    between atoms: N1_1  and  C1_2 
REMARK    2  A    between atoms: C6_7  and  N2_8 
REMARK       I    between atoms: N2_8  and  C7_9 
REMARK    3  A    between atoms: C7_9  and  C8_11 
REMARK    4  A    between atoms: C11_14  and  C12_15 
REMARK    5  A    between atoms: C12_15  and  N3_16 
REMARK    6  A    between atoms: N3_16  and  C13_17 
REMARK    7  A    between atoms: C16_21  and  C17_22 
REMARK    8  A    between atoms: C19_24  and  C20_25 
REMARK    9  A    between atoms: C20_25  and  O2_26 
ROOT
ATOM      1  C8  NON d   1     -43.652  18.038  -4.708  0.00  0.00     0.032 A 
ATOM      2  C9  NON d   1     -42.877  17.381  -3.744  0.00  0.00     0.017 A 
ATOM      3  C10 NON d   1     -41.515  17.649  -3.614  0.00  0.00     0.009 A 
ATOM      4  C11 NON d   1     -40.875  18.594  -4.433  0.00  0.00    -0.045 A 
ATOM      5  C21 NON d   1     -41.646  19.246  -5.405  0.00  0.00     0.009 A 
ATOM      6  C22 NON d   1     -43.024  18.976  -5.540  0.00  0.00     0.017 A 
ENDROOT
BRANCH   4   7
ATOM      7  C12 NON d   1     -39.380  18.773  -4.232  0.00  0.00     0.134 C 
BRANCH   7   8
ATOM      8  N3  NON d   1     -39.001  19.856  -3.342  0.00  0.00    -0.257 NA
ATOM      9  H12 NON d   1     -39.289  19.762  -2.375  0.00  0.00     0.131 HD
BRANCH   8  10
ATOM     10  C13 NON d   1     -39.492  21.094  -3.768  0.00  0.00     0.202 A 
ATOM     11  N4  NON d   1     -39.990  21.957  -2.869  0.00  0.00    -0.231 NA
ATOM     12  C14 NON d   1     -40.446  23.136  -3.315  0.00  0.00     0.122 A 
ATOM     13  C15 NON d   1     -40.430  23.490  -4.634  0.00  0.00     0.054 A 
ATOM     14  C16 NON d   1     -39.907  22.550  -5.498  0.00  0.00     0.097 A 
ATOM     15  N6  NON d   1     -39.420  21.359  -5.078  0.00  0.00    -0.216 NA
BRANCH  14  16
ATOM     16  C17 NON d   1     -39.880  22.812  -6.933  0.00  0.00     0.132 A 
ATOM     17  C18 NON d   1     -39.457  23.869  -7.708  0.00  0.00     0.073 A 
ATOM     18  C19 NON d   1     -39.751  23.489  -9.038  0.00  0.00     0.088 A 
ATOM     19  N5  NON d   1     -40.304  22.269  -9.078  0.00  0.00    -0.130 NA
ATOM     20  O3  NON d   1     -40.384  21.848  -7.756  0.00  0.00    -0.211 OA
BRANCH  18  21
ATOM     21  C20 NON d   1     -39.530  24.262 -10.292  0.00  0.00     0.225 C 
BRANCH  21  22
ATOM     22  O2  NON d   1     -40.165  23.661 -11.424  0.00  0.00    -0.395 OA
ATOM     23  H18 NON d   1     -40.329  22.734 -11.182  0.00  0.00     0.209 HD
ENDBRANCH  21  22
ENDBRANCH  18  21
ENDBRANCH  14  16
ENDBRANCH   8  10
ENDBRANCH   7   8
ENDBRANCH   4   7
BRANCH   1  24
ATOM     24  C7  NON d   1     -45.112  17.688  -4.749  0.00  0.00     0.256 C 
ATOM     25  N2  NON d   1     -45.655  17.072  -3.640  0.00  0.00    -0.321 N 
ATOM     26  H7  NON d   1     -45.077  16.862  -2.836  0.00  0.00     0.169 HD
ATOM     27  O1  NON d   1     -45.736  17.978  -5.767  0.00  0.00    -0.267 OA
BRANCH  25  28
ATOM     28  C6  NON d   1     -47.017  16.730  -3.435  0.00  0.00     0.056 A 
ATOM     29  C5  NON d   1     -47.696  16.892  -2.224  0.00  0.00     0.031 A 
ATOM     30  C4  NON d   1     -49.033  16.505  -2.104  0.00  0.00     0.002 A 
ATOM     31  C3  NON d   1     -49.705  15.961  -3.195  0.00  0.00     0.002 A 
ATOM     32  C2  NON d   1     -49.043  15.803  -4.412  0.00  0.00     0.025 A 
ATOM     33  C1  NON d   1     -47.693  16.158  -4.534  0.00  0.00     0.033 A 
BRANCH  33  34
ATOM     34  N1  NON d   1     -47.066  16.131  -5.810  0.00  0.00    -0.301 NA
ATOM     35  H1  NON d   1     -47.281  16.973  -6.339  0.00  0.00     0.124 HD
ATOM     36  H2  NON d   1     -46.057  16.079  -5.673  0.00  0.00     0.124 HD
ENDBRANCH  33  34
ENDBRANCH  25  28
ENDBRANCH   1  24
TORSDOF 9
ENDMDL
