MODEL 1
REMARK VINA RESULT:   -29.472      0.000      0.000
REMARK INTER + INTRA:         -32.825
REMARK INTER:                 -31.560
REMARK INTRA:                  -1.265
REMARK CONF_INDEPENDENT:        2.088
REMARK UNBOUND:                -1.265
REMARK  7 active torsions:
REMARK  status: ('A' for Active; 'I' for Inactive)
REMARK       I    between atoms: C1_2  and  N1_3 
REMARK    1  A    between atoms: C1_2  and  C2_5 
REMARK    2  A    between atoms: N1_3  and  O2_4 
REMARK    3  A    between atoms: C5_8  and  C6_9 
REMARK    4  A    between atoms: C9_12  and  C10_13 
REMARK    5  A    between atoms: C10_13  and  N2_14 
REMARK    6  A    between atoms: N2_14  and  C11_15 
REMARK    7  A    between atoms: C11_15  and  C12_16 
ROOT
ATOM      1  C6  NON d   1     -47.482  16.392  -4.141  0.00  0.00     0.073 A 
ATOM      2  C7  NON d   1     -46.537  16.690  -3.165  0.00  0.00     0.034 A 
ATOM      3  C8  NON d   1     -45.253  17.101  -3.542  0.00  0.00     0.012 A 
ATOM      4  C9  NON d   1     -44.928  17.222  -4.896  0.00  0.00    -0.015 A 
ATOM      5  C19 NON d   1     -45.938  16.902  -5.801  0.00  0.00     0.126 A 
ATOM      6  N3  NON d   1     -47.181  16.505  -5.454  0.00  0.00    -0.259 NA
ENDROOT
BRANCH   4   7
ATOM      7  C10 NON d   1     -43.577  17.608  -5.432  0.00  0.00     0.272 C 
BRANCH   7   8
ATOM      8  N2  NON d   1     -42.429  17.259  -4.541  0.00  0.00    -0.067 N 
ATOM      9  H9  NON d   1     -41.798  16.653  -5.076  0.00  0.00     0.277 HD
ATOM     10  H10 NON d   1     -42.748  16.705  -3.738  0.00  0.00     0.277 HD
BRANCH   8  11
ATOM     11  C11 NON d   1     -41.607  18.408  -4.058  0.00  0.00     0.271 C 
BRANCH  11  12
ATOM     12  C12 NON d   1     -41.137  19.415  -5.078  0.00  0.00    -0.030 A 
ATOM     13  C13 NON d   1     -40.812  20.761  -4.783  0.00  0.00     0.012 A 
ATOM     14  C14 NON d   1     -40.367  21.634  -5.786  0.00  0.00     0.040 A 
ATOM     15  C15 NON d   1     -40.240  21.144  -7.065  0.00  0.00     0.105 A 
ATOM     16  C16 NON d   1     -40.537  19.841  -7.365  0.00  0.00     0.105 A 
ATOM     17  O4  NON d   1     -39.817  21.842  -8.151  0.00  0.00    -0.323 OA
ATOM     18  C17 NON d   1     -40.985  18.958  -6.403  0.00  0.00     0.048 A 
ATOM     19  O3  NON d   1     -40.338  19.548  -8.676  0.00  0.00    -0.323 OA
ATOM     20  C18 NON d   1     -39.868  20.822  -9.173  0.00  0.00     0.352 A 
ENDBRANCH  11  12
ENDBRANCH   8  11
ENDBRANCH   7   8
ENDBRANCH   4   7
BRANCH   1  21
ATOM     21  C5  NON d   1     -48.848  15.940  -3.802  0.00  0.00     0.034 A 
ATOM     22  C4  NON d   1     -49.420  14.691  -3.972  0.00  0.00     0.023 A 
ATOM     23  C3  NON d   1     -50.769  14.620  -3.514  0.00  0.00     0.026 A 
ATOM     24  C2  NON d   1     -51.226  15.822  -3.005  0.00  0.00     0.075 A 
ATOM     25  S1  NON d   1     -49.993  17.013  -3.088  0.00  0.00    -0.083 SA
BRANCH  24  26
ATOM     26  C1  NON d   1     -52.530  16.167  -2.436  0.00  0.00     0.281 C 
ATOM     27  O1  NON d   1     -53.559  15.510  -2.597  0.00  0.00    -0.265 OA
ATOM     28  N1  NON d   1     -52.530  17.342  -1.693  0.00  0.00    -0.233 N 
ATOM     29  H1  NON d   1     -51.664  17.701  -1.311  0.00  0.00     0.197 HD
BRANCH  28  30
ATOM     30  O2  NON d   1     -53.670  17.578  -0.894  0.00  0.00    -0.287 OA
ATOM     31  H2  NON d   1     -54.133  16.719  -0.939  0.00  0.00     0.244 HD
ENDBRANCH  28  30
ENDBRANCH  24  26
ENDBRANCH   1  21
TORSDOF 7
ENDMDL
MODEL 2
REMARK VINA RESULT:   -28.034      2.075      2.713
REMARK INTER + INTRA:         -31.386
REMARK INTER:                 -30.122
REMARK INTRA:                  -1.264
REMARK CONF_INDEPENDENT:        2.088
REMARK UNBOUND:                -1.264
REMARK  7 active torsions:
REMARK  status: ('A' for Active; 'I' for Inactive)
REMARK       I    between atoms: C1_2  and  N1_3 
REMARK    1  A    between atoms: C1_2  and  C2_5 
REMARK    2  A    between atoms: N1_3  and  O2_4 
REMARK    3  A    between atoms: C5_8  and  C6_9 
REMARK    4  A    between atoms: C9_12  and  C10_13 
REMARK    5  A    between atoms: C10_13  and  N2_14 
REMARK    6  A    between atoms: N2_14  and  C11_15 
REMARK    7  A    between atoms: C11_15  and  C12_16 
ROOT
ATOM      1  C6  NON d   1     -47.395  16.382  -4.136  0.00  0.00     0.073 A 
ATOM      2  C7  NON d   1     -46.441  16.654  -3.162  0.00  0.00     0.034 A 
ATOM      3  C8  NON d   1     -45.152  17.050  -3.542  0.00  0.00     0.012 A 
ATOM      4  C9  NON d   1     -44.833  17.181  -4.896  0.00  0.00    -0.015 A 
ATOM      5  C19 NON d   1     -45.852  16.887  -5.799  0.00  0.00     0.126 A 
ATOM      6  N3  NON d   1     -47.099  16.505  -5.449  0.00  0.00    -0.259 NA
ENDROOT
BRANCH   4   7
ATOM      7  C10 NON d   1     -43.479  17.552  -5.435  0.00  0.00     0.272 C 
BRANCH   7   8
ATOM      8  N2  NON d   1     -42.463  17.891  -4.391  0.00  0.00    -0.067 N 
ATOM      9  H9  NON d   1     -42.129  17.008  -3.990  0.00  0.00     0.277 HD
ATOM     10  H10 NON d   1     -42.895  18.412  -3.621  0.00  0.00     0.277 HD
BRANCH   8  11
ATOM     11  C11 NON d   1     -41.255  18.624  -4.874  0.00  0.00     0.271 C 
BRANCH  11  12
ATOM     12  C12 NON d   1     -40.795  19.821  -4.080  0.00  0.00    -0.030 A 
ATOM     13  C13 NON d   1     -39.742  19.798  -3.134  0.00  0.00     0.012 A 
ATOM     14  C14 NON d   1     -39.363  20.960  -2.445  0.00  0.00     0.040 A 
ATOM     15  C15 NON d   1     -40.032  22.129  -2.725  0.00  0.00     0.105 A 
ATOM     16  C16 NON d   1     -41.043  22.171  -3.647  0.00  0.00     0.105 A 
ATOM     17  O4  NON d   1     -39.792  23.342  -2.162  0.00  0.00    -0.323 OA
ATOM     18  C17 NON d   1     -41.447  21.045  -4.335  0.00  0.00     0.048 A 
ATOM     19  O3  NON d   1     -41.570  23.415  -3.787  0.00  0.00    -0.323 OA
ATOM     20  C18 NON d   1     -40.763  24.162  -2.848  0.00  0.00     0.352 A 
ENDBRANCH  11  12
ENDBRANCH   8  11
ENDBRANCH   7   8
ENDBRANCH   4   7
BRANCH   1  21
ATOM     21  C5  NON d   1     -48.766  15.947  -3.795  0.00  0.00     0.034 A 
ATOM     22  C4  NON d   1     -49.350  14.702  -3.953  0.00  0.00     0.023 A 
ATOM     23  C3  NON d   1     -50.701  14.649  -3.497  0.00  0.00     0.026 A 
ATOM     24  C2  NON d   1     -51.146  15.861  -3.000  0.00  0.00     0.075 A 
ATOM     25  S1  NON d   1     -49.901  17.039  -3.094  0.00  0.00    -0.083 SA
BRANCH  24  26
ATOM     26  C1  NON d   1     -52.448  16.225  -2.436  0.00  0.00     0.281 C 
ATOM     27  O1  NON d   1     -53.499  15.625  -2.661  0.00  0.00    -0.265 OA
ATOM     28  N1  NON d   1     -52.415  17.349  -1.620  0.00  0.00    -0.233 N 
ATOM     29  H1  NON d   1     -51.545  17.645  -1.197  0.00  0.00     0.197 HD
BRANCH  28  30
ATOM     30  O2  NON d   1     -53.563  17.583  -0.830  0.00  0.00    -0.287 OA
ATOM     31  H2  NON d   1     -54.163  16.870  -1.124  0.00  0.00     0.244 HD
ENDBRANCH  28  30
ENDBRANCH  24  26
ENDBRANCH   1  21
TORSDOF 7
ENDMDL
