MODEL 1
REMARK VINA RESULT:   -15.090      0.000      0.000
REMARK INTER + INTRA:         -20.737
REMARK INTER:                 -18.670
REMARK INTRA:                  -2.068
REMARK CONF_INDEPENDENT:        3.580
REMARK UNBOUND:                -2.068
REMARK  12 active torsions:
REMARK  status: ('A' for Active; 'I' for Inactive)
REMARK    1  A    between atoms: C2_2  and  N1_5 
REMARK    2  A    between atoms: N1_5  and  C5_6 
REMARK    3  A    between atoms: C5_6  and  N2_8 
REMARK    4  A    between atoms: C6_9  and  N2_8 
REMARK    5  A    between atoms: C6_9  and  C7_10 
REMARK    6  A    between atoms: C6_9  and  C12_16 
REMARK    7  A    between atoms: C7_10  and  C8_11 
REMARK    8  A    between atoms: C8_11  and  C9_12 
REMARK    9  A    between atoms: C9_12  and  C10_13 
REMARK   10  A    between atoms: C10_13  and  C11_14 
REMARK   11  A    between atoms: C11_14  and  S2_15 
REMARK       I    between atoms: C12_16  and  N3_18 
REMARK   12  A    between atoms: N3_18  and  C13_19 
ROOT
ATOM      1  C6  NON d   1     -44.017  16.958  -4.140  0.00  0.00     0.176 C 
ENDROOT
BRANCH   1   2
ATOM      2  N2  NON d   1     -45.465  17.414  -4.212  0.00  0.00    -0.354 N 
ATOM      3  H11 NON d   1     -45.661  18.313  -3.797  0.00  0.00     0.162 HD
BRANCH   2   4
ATOM      4  C5  NON d   1     -46.506  16.494  -4.352  0.00  0.00     0.168 C 
ATOM      5  S1  NON d   1     -46.921  15.800  -5.810  0.00  0.00    -0.041 SA
BRANCH   4   6
ATOM      6  N1  NON d   1     -47.129  16.290  -3.144  0.00  0.00    -0.359 N 
ATOM      7  H10 NON d   1     -46.594  16.629  -2.356  0.00  0.00     0.162 HD
BRANCH   6   8
ATOM      8  C2  NON d   1     -48.580  16.211  -2.827  0.00  0.00     0.021 C 
ATOM      9  C1  NON d   1     -48.978  16.504  -1.373  0.00  0.00     0.037 C 
ATOM     10  C3  NON d   1     -49.296  17.246  -3.714  0.00  0.00     0.037 C 
ATOM     11  C4  NON d   1     -49.059  14.800  -3.199  0.00  0.00     0.037 C 
ENDBRANCH   6   8
ENDBRANCH   4   6
ENDBRANCH   2   4
ENDBRANCH   1   2
BRANCH   1  12
ATOM     12  C7  NON d   1     -43.180  17.537  -2.865  0.00  0.00     0.035 C 
BRANCH  12  13
ATOM     13  C8  NON d   1     -41.644  17.511  -2.878  0.00  0.00     0.002 C 
BRANCH  13  14
ATOM     14  C9  NON d   1     -40.949  18.242  -1.713  0.00  0.00     0.001 C 
BRANCH  14  15
ATOM     15  C10 NON d   1     -40.341  19.621  -2.046  0.00  0.00     0.010 C 
BRANCH  15  16
ATOM     16  C11 NON d   1     -38.915  19.562  -2.600  0.00  0.00     0.070 C 
BRANCH  16  17
ATOM     17  S2  NON d   1     -38.232  17.882  -2.455  0.00  0.00    -0.182 SA
ATOM     18  H23 NON d   1     -38.838  17.573  -1.298  0.00  0.00     0.101 HD
ENDBRANCH  16  17
ENDBRANCH  15  16
ENDBRANCH  14  15
ENDBRANCH  13  14
ENDBRANCH  12  13
ENDBRANCH   1  12
BRANCH   1  19
ATOM     19  C12 NON d   1     -43.434  18.047  -5.060  0.00  0.00     0.240 C 
ATOM     20  O1  NON d   1     -44.109  19.080  -5.197  0.00  0.00    -0.271 OA
ATOM     21  N3  NON d   1     -42.193  17.972  -5.654  0.00  0.00    -0.355 N 
ATOM     22  H24 NON d   1     -41.596  17.269  -5.234  0.00  0.00     0.162 HD
BRANCH  21  23
ATOM     23  C13 NON d   1     -41.572  19.216  -6.081  0.00  0.00     0.084 C 
ATOM     24  C14 NON d   1     -41.337  20.206  -4.951  0.00  0.00     0.025 C 
ATOM     25  C15 NON d   1     -40.305  21.185  -5.510  0.00  0.00     0.002 C 
ATOM     26  C16 NON d   1     -39.593  20.456  -6.648  0.00  0.00     0.002 C 
ATOM     27  C17 NON d   1     -40.165  19.043  -6.657  0.00  0.00     0.025 C 
ENDBRANCH  21  23
ENDBRANCH   1  19
TORSDOF 12
ENDMDL
MODEL 2
REMARK VINA RESULT:   -14.550      2.780      7.067
REMARK INTER + INTRA:         -19.808
REMARK INTER:                 -18.129
REMARK INTRA:                  -1.678
REMARK CONF_INDEPENDENT:        3.580
REMARK UNBOUND:                -1.678
REMARK  12 active torsions:
REMARK  status: ('A' for Active; 'I' for Inactive)
REMARK    1  A    between atoms: C2_2  and  N1_5 
REMARK    2  A    between atoms: N1_5  and  C5_6 
REMARK    3  A    between atoms: C5_6  and  N2_8 
REMARK    4  A    between atoms: C6_9  and  N2_8 
REMARK    5  A    between atoms: C6_9  and  C7_10 
REMARK    6  A    between atoms: C6_9  and  C12_16 
REMARK    7  A    between atoms: C7_10  and  C8_11 
REMARK    8  A    between atoms: C8_11  and  C9_12 
REMARK    9  A    between atoms: C9_12  and  C10_13 
REMARK   10  A    between atoms: C10_13  and  C11_14 
REMARK   11  A    between atoms: C11_14  and  S2_15 
REMARK       I    between atoms: C12_16  and  N3_18 
REMARK   12  A    between atoms: N3_18  and  C13_19 
ROOT
ATOM      1  C6  NON d   1     -41.068  19.044  -2.348  0.00  0.00     0.176 C 
ENDROOT
BRANCH   1   2
ATOM      2  N2  NON d   1     -39.584  19.228  -2.076  0.00  0.00    -0.354 N 
ATOM      3  H11 NON d   1     -39.108  18.426  -1.691  0.00  0.00     0.162 HD
BRANCH   2   4
ATOM      4  C5  NON d   1     -39.039  20.498  -1.874  0.00  0.00     0.168 C 
ATOM      5  S1  NON d   1     -38.013  21.235  -2.963  0.00  0.00    -0.041 SA
BRANCH   4   6
ATOM      6  N1  NON d   1     -39.442  21.005  -0.662  0.00  0.00    -0.359 N 
ATOM      7  H10 NON d   1     -39.068  20.497   0.129  0.00  0.00     0.162 HD
BRANCH   6   8
ATOM      8  C2  NON d   1     -39.812  22.397  -0.291  0.00  0.00     0.021 C 
ATOM      9  C1  NON d   1     -40.670  23.169  -1.304  0.00  0.00     0.037 C 
ATOM     10  C3  NON d   1     -40.611  22.321   1.022  0.00  0.00     0.037 C 
ATOM     11  C4  NON d   1     -38.507  23.172  -0.052  0.00  0.00     0.037 C 
ENDBRANCH   6   8
ENDBRANCH   4   6
ENDBRANCH   2   4
ENDBRANCH   1   2
BRANCH   1  12
ATOM     12  C7  NON d   1     -41.491  17.555  -2.861  0.00  0.00     0.035 C 
BRANCH  12  13
ATOM     13  C8  NON d   1     -42.957  17.245  -3.197  0.00  0.00     0.002 C 
BRANCH  13  14
ATOM     14  C9  NON d   1     -43.341  17.351  -4.686  0.00  0.00     0.001 C 
BRANCH  14  15
ATOM     15  C10 NON d   1     -44.798  17.769  -4.981  0.00  0.00     0.010 C 
BRANCH  15  16
ATOM     16  C11 NON d   1     -45.853  16.836  -4.383  0.00  0.00     0.070 C 
BRANCH  16  17
ATOM     17  S2  NON d   1     -47.182  16.506  -5.581  0.00  0.00    -0.182 SA
ATOM     18  H23 NON d   1     -47.812  17.681  -5.434  0.00  0.00     0.101 HD
ENDBRANCH  16  17
ENDBRANCH  15  16
ENDBRANCH  14  15
ENDBRANCH  13  14
ENDBRANCH  12  13
ENDBRANCH   1  12
BRANCH   1  19
ATOM     19  C12 NON d   1     -41.058  19.576  -3.793  0.00  0.00     0.240 C 
ATOM     20  O1  NON d   1     -41.414  20.755  -3.956  0.00  0.00    -0.271 OA
ATOM     21  N3  NON d   1     -40.601  18.857  -4.876  0.00  0.00    -0.355 N 
ATOM     22  H24 NON d   1     -40.041  18.056  -4.611  0.00  0.00     0.162 HD
BRANCH  21  23
ATOM     23  C13 NON d   1     -40.197  19.601  -6.059  0.00  0.00     0.084 C 
ATOM     24  C14 NON d   1     -39.493  18.754  -7.108  0.00  0.00     0.025 C 
ATOM     25  C15 NON d   1     -39.579  19.583  -8.389  0.00  0.00     0.002 C 
ATOM     26  C16 NON d   1     -40.747  20.550  -8.198  0.00  0.00     0.002 C 
ATOM     27  C17 NON d   1     -41.366  20.192  -6.852  0.00  0.00     0.025 C 
ENDBRANCH  21  23
ENDBRANCH   1  19
TORSDOF 12
ENDMDL
MODEL 3
REMARK VINA RESULT:   -14.248      2.368      6.908
REMARK INTER + INTRA:         -19.865
REMARK INTER:                 -17.828
REMARK INTRA:                  -2.038
REMARK CONF_INDEPENDENT:        3.580
REMARK UNBOUND:                -2.038
REMARK  12 active torsions:
REMARK  status: ('A' for Active; 'I' for Inactive)
REMARK    1  A    between atoms: C2_2  and  N1_5 
REMARK    2  A    between atoms: N1_5  and  C5_6 
REMARK    3  A    between atoms: C5_6  and  N2_8 
REMARK    4  A    between atoms: C6_9  and  N2_8 
REMARK    5  A    between atoms: C6_9  and  C7_10 
REMARK    6  A    between atoms: C6_9  and  C12_16 
REMARK    7  A    between atoms: C7_10  and  C8_11 
REMARK    8  A    between atoms: C8_11  and  C9_12 
REMARK    9  A    between atoms: C9_12  and  C10_13 
REMARK   10  A    between atoms: C10_13  and  C11_14 
REMARK   11  A    between atoms: C11_14  and  S2_15 
REMARK       I    between atoms: C12_16  and  N3_18 
REMARK   12  A    between atoms: N3_18  and  C13_19 
ROOT
ATOM      1  C6  NON d   1     -41.586  18.244  -3.005  0.00  0.00     0.176 C 
ENDROOT
BRANCH   1   2
ATOM      2  N2  NON d   1     -40.216  17.585  -3.026  0.00  0.00    -0.354 N 
ATOM      3  H11 NON d   1     -40.164  16.671  -2.602  0.00  0.00     0.162 HD
BRANCH   2   4
ATOM      4  C5  NON d   1     -39.050  18.345  -3.133  0.00  0.00     0.168 C 
ATOM      5  S1  NON d   1     -37.855  18.033  -4.253  0.00  0.00    -0.041 SA
BRANCH   4   6
ATOM      6  N1  NON d   1     -39.034  19.333  -2.177  0.00  0.00    -0.359 N 
ATOM      7  H10 NON d   1     -38.601  19.043  -1.310  0.00  0.00     0.162 HD
BRANCH   6   8
ATOM      8  C2  NON d   1     -38.993  20.811  -2.340  0.00  0.00     0.021 C 
ATOM      9  C1  NON d   1     -38.930  21.337  -3.781  0.00  0.00     0.037 C 
ATOM     10  C3  NON d   1     -40.277  21.374  -1.705  0.00  0.00     0.037 C 
ATOM     11  C4  NON d   1     -37.771  21.327  -1.567  0.00  0.00     0.037 C 
ENDBRANCH   6   8
ENDBRANCH   4   6
ENDBRANCH   2   4
ENDBRANCH   1   2
BRANCH   1  12
ATOM     12  C7  NON d   1     -42.791  17.337  -3.626  0.00  0.00     0.035 C 
BRANCH  12  13
ATOM     13  C8  NON d   1     -43.953  18.010  -4.372  0.00  0.00     0.002 C 
BRANCH  13  14
ATOM     14  C9  NON d   1     -45.143  17.098  -4.725  0.00  0.00     0.001 C 
BRANCH  14  15
ATOM     15  C10 NON d   1     -46.185  16.880  -3.606  0.00  0.00     0.010 C 
BRANCH  15  16
ATOM     16  C11 NON d   1     -47.479  16.212  -4.075  0.00  0.00     0.070 C 
BRANCH  16  17
ATOM     17  S2  NON d   1     -47.343  15.677  -5.809  0.00  0.00    -0.182 SA
ATOM     18  H23 NON d   1     -48.544  16.130  -6.201  0.00  0.00     0.101 HD
ENDBRANCH  16  17
ENDBRANCH  15  16
ENDBRANCH  14  15
ENDBRANCH  13  14
ENDBRANCH  12  13
ENDBRANCH   1  12
BRANCH   1  19
ATOM     19  C12 NON d   1     -41.438  19.016  -4.329  0.00  0.00     0.240 C 
ATOM     20  O1  NON d   1     -41.808  20.202  -4.326  0.00  0.00    -0.271 OA
ATOM     21  N3  NON d   1     -40.851  18.499  -5.463  0.00  0.00    -0.355 N 
ATOM     22  H24 NON d   1     -40.299  17.669  -5.279  0.00  0.00     0.162 HD
BRANCH  21  23
ATOM     23  C13 NON d   1     -40.346  19.438  -6.451  0.00  0.00     0.084 C 
ATOM     24  C14 NON d   1     -39.559  18.784  -7.577  0.00  0.00     0.025 C 
ATOM     25  C15 NON d   1     -39.533  19.836  -8.685  0.00  0.00     0.002 C 
ATOM     26  C16 NON d   1     -40.709  20.774  -8.416  0.00  0.00     0.002 C 
ATOM     27  C17 NON d   1     -41.441  20.188  -7.214  0.00  0.00     0.025 C 
ENDBRANCH  21  23
ENDBRANCH   1  19
TORSDOF 12
ENDMDL
MODEL 4
REMARK VINA RESULT:   -14.019      3.352      7.579
REMARK INTER + INTRA:         -19.539
REMARK INTER:                 -17.599
REMARK INTRA:                  -1.940
REMARK CONF_INDEPENDENT:        3.580
REMARK UNBOUND:                -1.940
REMARK  12 active torsions:
REMARK  status: ('A' for Active; 'I' for Inactive)
REMARK    1  A    between atoms: C2_2  and  N1_5 
REMARK    2  A    between atoms: N1_5  and  C5_6 
REMARK    3  A    between atoms: C5_6  and  N2_8 
REMARK    4  A    between atoms: C6_9  and  N2_8 
REMARK    5  A    between atoms: C6_9  and  C7_10 
REMARK    6  A    between atoms: C6_9  and  C12_16 
REMARK    7  A    between atoms: C7_10  and  C8_11 
REMARK    8  A    between atoms: C8_11  and  C9_12 
REMARK    9  A    between atoms: C9_12  and  C10_13 
REMARK   10  A    between atoms: C10_13  and  C11_14 
REMARK   11  A    between atoms: C11_14  and  S2_15 
REMARK       I    between atoms: C12_16  and  N3_18 
REMARK   12  A    between atoms: N3_18  and  C13_19 
ROOT
ATOM      1  C6  NON d   1     -39.510  19.251  -2.582  0.00  0.00     0.176 C 
ENDROOT
BRANCH   1   2
ATOM      2  N2  NON d   1     -39.288  19.760  -3.997  0.00  0.00    -0.354 N 
ATOM      3  H11 NON d   1     -40.059  20.267  -4.405  0.00  0.00     0.162 HD
BRANCH   2   4
ATOM      4  C5  NON d   1     -38.354  19.158  -4.842  0.00  0.00     0.168 C 
ATOM      5  S1  NON d   1     -37.162  18.126  -4.300  0.00  0.00    -0.041 SA
BRANCH   4   6
ATOM      6  N1  NON d   1     -38.549  19.568  -6.140  0.00  0.00    -0.359 N 
ATOM      7  H10 NON d   1     -37.687  19.760  -6.632  0.00  0.00     0.162 HD
BRANCH   6   8
ATOM      8  C2  NON d   1     -39.655  19.245  -7.080  0.00  0.00     0.021 C 
ATOM      9  C1  NON d   1     -40.360  20.439  -7.742  0.00  0.00     0.037 C 
ATOM     10  C3  NON d   1     -39.057  18.386  -8.209  0.00  0.00     0.037 C 
ATOM     11  C4  NON d   1     -40.694  18.421  -6.306  0.00  0.00     0.037 C 
ENDBRANCH   6   8
ENDBRANCH   4   6
ENDBRANCH   2   4
ENDBRANCH   1   2
BRANCH   1  12
ATOM     12  C7  NON d   1     -40.990  18.623  -2.304  0.00  0.00     0.035 C 
BRANCH  12  13
ATOM     13  C8  NON d   1     -41.585  17.599  -3.282  0.00  0.00     0.002 C 
BRANCH  13  14
ATOM     14  C9  NON d   1     -42.837  18.058  -4.055  0.00  0.00     0.001 C 
BRANCH  14  15
ATOM     15  C10 NON d   1     -43.712  16.936  -4.654  0.00  0.00     0.010 C 
BRANCH  15  16
ATOM     16  C11 NON d   1     -45.134  16.881  -4.092  0.00  0.00     0.070 C 
BRANCH  16  17
ATOM     17  S2  NON d   1     -46.361  16.821  -5.436  0.00  0.00    -0.182 SA
ATOM     18  H23 NON d   1     -46.464  18.148  -5.604  0.00  0.00     0.101 HD
ENDBRANCH  16  17
ENDBRANCH  15  16
ENDBRANCH  14  15
ENDBRANCH  13  14
ENDBRANCH  12  13
ENDBRANCH   1  12
BRANCH   1  19
ATOM     19  C12 NON d   1     -39.927  20.598  -1.965  0.00  0.00     0.240 C 
ATOM     20  O1  NON d   1     -40.691  21.308  -2.640  0.00  0.00    -0.271 OA
ATOM     21  N3  NON d   1     -39.577  21.008  -0.696  0.00  0.00    -0.355 N 
ATOM     22  H24 NON d   1     -39.242  20.248  -0.115  0.00  0.00     0.162 HD
BRANCH  21  23
ATOM     23  C13 NON d   1     -40.397  22.029  -0.065  0.00  0.00     0.084 C 
ATOM     24  C14 NON d   1     -39.908  22.446   1.314  0.00  0.00     0.025 C 
ATOM     25  C15 NON d   1     -40.597  23.785   1.574  0.00  0.00     0.002 C 
ATOM     26  C16 NON d   1     -40.979  24.345   0.205  0.00  0.00     0.002 C 
ATOM     27  C17 NON d   1     -40.419  23.362  -0.817  0.00  0.00     0.025 C 
ENDBRANCH  21  23
ENDBRANCH   1  19
TORSDOF 12
ENDMDL
MODEL 5
REMARK VINA RESULT:   -13.834      2.088      3.549
REMARK INTER + INTRA:         -19.436
REMARK INTER:                 -17.414
REMARK INTRA:                  -2.023
REMARK CONF_INDEPENDENT:        3.580
REMARK UNBOUND:                -2.023
REMARK  12 active torsions:
REMARK  status: ('A' for Active; 'I' for Inactive)
REMARK    1  A    between atoms: C2_2  and  N1_5 
REMARK    2  A    between atoms: N1_5  and  C5_6 
REMARK    3  A    between atoms: C5_6  and  N2_8 
REMARK    4  A    between atoms: C6_9  and  N2_8 
REMARK    5  A    between atoms: C6_9  and  C7_10 
REMARK    6  A    between atoms: C6_9  and  C12_16 
REMARK    7  A    between atoms: C7_10  and  C8_11 
REMARK    8  A    between atoms: C8_11  and  C9_12 
REMARK    9  A    between atoms: C9_12  and  C10_13 
REMARK   10  A    between atoms: C10_13  and  C11_14 
REMARK   11  A    between atoms: C11_14  and  S2_15 
REMARK       I    between atoms: C12_16  and  N3_18 
REMARK   12  A    between atoms: N3_18  and  C13_19 
ROOT
ATOM      1  C6  NON d   1     -43.699  17.970  -4.309  0.00  0.00     0.176 C 
ENDROOT
BRANCH   1   2
ATOM      2  N2  NON d   1     -44.627  17.062  -3.518  0.00  0.00    -0.354 N 
ATOM      3  H11 NON d   1     -44.177  16.453  -2.850  0.00  0.00     0.162 HD
BRANCH   2   4
ATOM      4  C5  NON d   1     -45.886  16.712  -4.009  0.00  0.00     0.168 C 
ATOM      5  S1  NON d   1     -46.234  16.602  -5.635  0.00  0.00    -0.041 SA
BRANCH   4   6
ATOM      6  N1  NON d   1     -46.766  16.515  -2.971  0.00  0.00    -0.359 N 
ATOM      7  H10 NON d   1     -46.463  16.940  -2.104  0.00  0.00     0.162 HD
BRANCH   6   8
ATOM      8  C2  NON d   1     -48.241  16.326  -3.001  0.00  0.00     0.021 C 
ATOM      9  C1  NON d   1     -49.030  17.256  -3.934  0.00  0.00     0.037 C 
ATOM     10  C3  NON d   1     -48.505  14.882  -3.465  0.00  0.00     0.037 C 
ATOM     11  C4  NON d   1     -48.758  16.504  -1.566  0.00  0.00     0.037 C 
ENDBRANCH   6   8
ENDBRANCH   4   6
ENDBRANCH   2   4
ENDBRANCH   1   2
BRANCH   1  12
ATOM     12  C7  NON d   1     -42.771  17.207  -5.412  0.00  0.00     0.035 C 
BRANCH  12  13
ATOM     13  C8  NON d   1     -41.410  17.796  -5.810  0.00  0.00     0.002 C 
BRANCH  13  14
ATOM     14  C9  NON d   1     -41.416  19.278  -6.232  0.00  0.00     0.001 C 
BRANCH  14  15
ATOM     15  C10 NON d   1     -40.073  19.843  -6.742  0.00  0.00     0.010 C 
BRANCH  15  16
ATOM     16  C11 NON d   1     -39.933  19.850  -8.266  0.00  0.00     0.070 C 
BRANCH  16  17
ATOM     17  S2  NON d   1     -39.676  21.541  -8.886  0.00  0.00    -0.182 SA
ATOM     18  H23 NON d   1     -40.739  21.564  -9.705  0.00  0.00     0.101 HD
ENDBRANCH  16  17
ENDBRANCH  15  16
ENDBRANCH  14  15
ENDBRANCH  13  14
ENDBRANCH  12  13
ENDBRANCH   1  12
BRANCH   1  19
ATOM     19  C12 NON d   1     -42.542  17.981  -3.293  0.00  0.00     0.240 C 
ATOM     20  O1  NON d   1     -42.213  16.886  -2.810  0.00  0.00    -0.271 OA
ATOM     21  N3  NON d   1     -41.812  19.105  -2.967  0.00  0.00    -0.355 N 
ATOM     22  H24 NON d   1     -41.930  19.859  -3.634  0.00  0.00     0.162 HD
BRANCH  21  23
ATOM     23  C13 NON d   1     -40.489  18.909  -2.397  0.00  0.00     0.084 C 
ATOM     24  C14 NON d   1     -39.620  17.933  -3.177  0.00  0.00     0.025 C 
ATOM     25  C15 NON d   1     -38.198  18.225  -2.702  0.00  0.00     0.002 C 
ATOM     26  C16 NON d   1     -38.216  19.644  -2.135  0.00  0.00     0.002 C 
ATOM     27  C17 NON d   1     -39.624  20.172  -2.383  0.00  0.00     0.025 C 
ENDBRANCH  21  23
ENDBRANCH   1  19
TORSDOF 12
ENDMDL
MODEL 6
REMARK VINA RESULT:   -13.773      3.075      7.029
REMARK INTER + INTRA:         -19.604
REMARK INTER:                 -17.352
REMARK INTRA:                  -2.252
REMARK CONF_INDEPENDENT:        3.580
REMARK UNBOUND:                -2.252
REMARK  12 active torsions:
REMARK  status: ('A' for Active; 'I' for Inactive)
REMARK    1  A    between atoms: C2_2  and  N1_5 
REMARK    2  A    between atoms: N1_5  and  C5_6 
REMARK    3  A    between atoms: C5_6  and  N2_8 
REMARK    4  A    between atoms: C6_9  and  N2_8 
REMARK    5  A    between atoms: C6_9  and  C7_10 
REMARK    6  A    between atoms: C6_9  and  C12_16 
REMARK    7  A    between atoms: C7_10  and  C8_11 
REMARK    8  A    between atoms: C8_11  and  C9_12 
REMARK    9  A    between atoms: C9_12  and  C10_13 
REMARK   10  A    between atoms: C10_13  and  C11_14 
REMARK   11  A    between atoms: C11_14  and  S2_15 
REMARK       I    between atoms: C12_16  and  N3_18 
REMARK   12  A    between atoms: N3_18  and  C13_19 
ROOT
ATOM      1  C6  NON d   1     -41.045  19.544  -2.690  0.00  0.00     0.176 C 
ENDROOT
BRANCH   1   2
ATOM      2  N2  NON d   1     -39.899  19.889  -1.753  0.00  0.00    -0.354 N 
ATOM      3  H11 NON d   1     -39.446  19.104  -1.309  0.00  0.00     0.162 HD
BRANCH   2   4
ATOM      4  C5  NON d   1     -39.810  21.146  -1.153  0.00  0.00     0.168 C 
ATOM      5  S1  NON d   1     -39.896  21.380   0.495  0.00  0.00    -0.041 SA
BRANCH   4   6
ATOM      6  N1  NON d   1     -39.680  22.125  -2.110  0.00  0.00    -0.359 N 
ATOM      7  H10 NON d   1     -39.265  21.790  -2.970  0.00  0.00     0.162 HD
BRANCH   6   8
ATOM      8  C2  NON d   1     -40.500  23.344  -2.337  0.00  0.00     0.021 C 
ATOM      9  C1  NON d   1     -41.440  23.758  -1.196  0.00  0.00     0.037 C 
ATOM     10  C3  NON d   1     -39.524  24.512  -2.570  0.00  0.00     0.037 C 
ATOM     11  C4  NON d   1     -41.331  23.111  -3.607  0.00  0.00     0.037 C 
ENDBRANCH   6   8
ENDBRANCH   4   6
ENDBRANCH   2   4
ENDBRANCH   1   2
BRANCH   1  12
ATOM     12  C7  NON d   1     -41.100  17.983  -3.159  0.00  0.00     0.035 C 
BRANCH  12  13
ATOM     13  C8  NON d   1     -42.057  17.550  -4.280  0.00  0.00     0.002 C 
BRANCH  13  14
ATOM     14  C9  NON d   1     -43.395  16.938  -3.821  0.00  0.00     0.001 C 
BRANCH  14  15
ATOM     15  C10 NON d   1     -44.578  17.082  -4.802  0.00  0.00     0.010 C 
BRANCH  15  16
ATOM     16  C11 NON d   1     -45.952  16.867  -4.165  0.00  0.00     0.070 C 
BRANCH  16  17
ATOM     17  S2  NON d   1     -47.217  16.563  -5.437  0.00  0.00    -0.182 SA
ATOM     18  H23 NON d   1     -47.979  17.630  -5.150  0.00  0.00     0.101 HD
ENDBRANCH  16  17
ENDBRANCH  15  16
ENDBRANCH  14  15
ENDBRANCH  13  14
ENDBRANCH  12  13
ENDBRANCH   1  12
BRANCH   1  19
ATOM     19  C12 NON d   1     -40.342  19.949  -3.998  0.00  0.00     0.240 C 
ATOM     20  O1  NON d   1     -39.102  19.886  -4.007  0.00  0.00    -0.271 OA
ATOM     21  N3  NON d   1     -41.006  20.285  -5.159  0.00  0.00    -0.355 N 
ATOM     22  H24 NON d   1     -41.977  19.997  -5.155  0.00  0.00     0.162 HD
BRANCH  21  23
ATOM     23  C13 NON d   1     -40.275  20.175  -6.411  0.00  0.00     0.084 C 
ATOM     24  C14 NON d   1     -39.868  18.752  -6.764  0.00  0.00     0.025 C 
ATOM     25  C15 NON d   1     -39.551  18.806  -8.258  0.00  0.00     0.002 C 
ATOM     26  C16 NON d   1     -40.285  20.027  -8.810  0.00  0.00     0.002 C 
ATOM     27  C17 NON d   1     -41.082  20.596  -7.642  0.00  0.00     0.025 C 
ENDBRANCH  21  23
ENDBRANCH   1  19
TORSDOF 12
ENDMDL
MODEL 7
REMARK VINA RESULT:   -13.710      2.984      6.917
REMARK INTER + INTRA:         -19.721
REMARK INTER:                 -17.289
REMARK INTRA:                  -2.431
REMARK CONF_INDEPENDENT:        3.580
REMARK UNBOUND:                -2.431
REMARK  12 active torsions:
REMARK  status: ('A' for Active; 'I' for Inactive)
REMARK    1  A    between atoms: C2_2  and  N1_5 
REMARK    2  A    between atoms: N1_5  and  C5_6 
REMARK    3  A    between atoms: C5_6  and  N2_8 
REMARK    4  A    between atoms: C6_9  and  N2_8 
REMARK    5  A    between atoms: C6_9  and  C7_10 
REMARK    6  A    between atoms: C6_9  and  C12_16 
REMARK    7  A    between atoms: C7_10  and  C8_11 
REMARK    8  A    between atoms: C8_11  and  C9_12 
REMARK    9  A    between atoms: C9_12  and  C10_13 
REMARK   10  A    between atoms: C10_13  and  C11_14 
REMARK   11  A    between atoms: C11_14  and  S2_15 
REMARK       I    between atoms: C12_16  and  N3_18 
REMARK   12  A    between atoms: N3_18  and  C13_19 
ROOT
ATOM      1  C6  NON d   1     -41.816  19.854  -4.365  0.00  0.00     0.176 C 
ENDROOT
BRANCH   1   2
ATOM      2  N2  NON d   1     -40.674  20.182  -3.416  0.00  0.00    -0.354 N 
ATOM      3  H11 NON d   1     -39.995  20.844  -3.763  0.00  0.00     0.162 HD
BRANCH   2   4
ATOM      4  C5  NON d   1     -40.298  19.297  -2.405  0.00  0.00     0.168 C 
ATOM      5  S1  NON d   1     -41.390  18.380  -1.541  0.00  0.00    -0.041 SA
BRANCH   4   6
ATOM      6  N1  NON d   1     -38.936  19.330  -2.221  0.00  0.00    -0.359 N 
ATOM      7  H10 NON d   1     -38.664  19.320  -1.247  0.00  0.00     0.162 HD
BRANCH   6   8
ATOM      8  C2  NON d   1     -37.848  18.820  -3.098  0.00  0.00     0.021 C 
ATOM      9  C1  NON d   1     -38.258  18.384  -4.512  0.00  0.00     0.037 C 
ATOM     10  C3  NON d   1     -36.819  19.954  -3.251  0.00  0.00     0.037 C 
ATOM     11  C4  NON d   1     -37.196  17.630  -2.379  0.00  0.00     0.037 C 
ENDBRANCH   6   8
ENDBRANCH   4   6
ENDBRANCH   2   4
ENDBRANCH   1   2
BRANCH   1  12
ATOM     12  C7  NON d   1     -41.897  18.291  -4.823  0.00  0.00     0.035 C 
BRANCH  12  13
ATOM     13  C8  NON d   1     -43.263  17.630  -5.060  0.00  0.00     0.002 C 
BRANCH  13  14
ATOM     14  C9  NON d   1     -44.015  17.169  -3.797  0.00  0.00     0.001 C 
BRANCH  14  15
ATOM     15  C10 NON d   1     -45.535  16.952  -3.955  0.00  0.00     0.010 C 
BRANCH  15  16
ATOM     16  C11 NON d   1     -46.023  16.957  -5.405  0.00  0.00     0.070 C 
BRANCH  16  17
ATOM     17  S2  NON d   1     -47.368  15.754  -5.642  0.00  0.00    -0.182 SA
ATOM     18  H23 NON d   1     -47.600  16.040  -6.933  0.00  0.00     0.101 HD
ENDBRANCH  16  17
ENDBRANCH  15  16
ENDBRANCH  14  15
ENDBRANCH  13  14
ENDBRANCH  12  13
ENDBRANCH   1  12
BRANCH   1  19
ATOM     19  C12 NON d   1     -41.088  20.234  -5.668  0.00  0.00     0.240 C 
ATOM     20  O1  NON d   1     -39.975  20.772  -5.548  0.00  0.00    -0.271 OA
ATOM     21  N3  NON d   1     -41.558  19.934  -6.929  0.00  0.00    -0.355 N 
ATOM     22  H24 NON d   1     -42.283  19.227  -6.922  0.00  0.00     0.162 HD
BRANCH  21  23
ATOM     23  C13 NON d   1     -40.595  19.904  -8.018  0.00  0.00     0.084 C 
ATOM     24  C14 NON d   1     -39.960  21.254  -8.316  0.00  0.00     0.025 C 
ATOM     25  C15 NON d   1     -38.708  20.916  -9.125  0.00  0.00     0.002 C 
ATOM     26  C16 NON d   1     -38.366  19.462  -8.802  0.00  0.00     0.002 C 
ATOM     27  C17 NON d   1     -39.372  19.025  -7.744  0.00  0.00     0.025 C 
ENDBRANCH  21  23
ENDBRANCH   1  19
TORSDOF 12
ENDMDL
MODEL 8
REMARK VINA RESULT:   -13.670      2.829      7.134
REMARK INTER + INTRA:         -19.635
REMARK INTER:                 -17.250
REMARK INTRA:                  -2.385
REMARK CONF_INDEPENDENT:        3.580
REMARK UNBOUND:                -2.385
REMARK  12 active torsions:
REMARK  status: ('A' for Active; 'I' for Inactive)
REMARK    1  A    between atoms: C2_2  and  N1_5 
REMARK    2  A    between atoms: N1_5  and  C5_6 
REMARK    3  A    between atoms: C5_6  and  N2_8 
REMARK    4  A    between atoms: C6_9  and  N2_8 
REMARK    5  A    between atoms: C6_9  and  C7_10 
REMARK    6  A    between atoms: C6_9  and  C12_16 
REMARK    7  A    between atoms: C7_10  and  C8_11 
REMARK    8  A    between atoms: C8_11  and  C9_12 
REMARK    9  A    between atoms: C9_12  and  C10_13 
REMARK   10  A    between atoms: C10_13  and  C11_14 
REMARK   11  A    between atoms: C11_14  and  S2_15 
REMARK       I    between atoms: C12_16  and  N3_18 
REMARK   12  A    between atoms: N3_18  and  C13_19 
ROOT
ATOM      1  C6  NON d   1     -40.927  18.916  -2.537  0.00  0.00     0.176 C 
ENDROOT
BRANCH   1   2
ATOM      2  N2  NON d   1     -39.416  18.833  -2.399  0.00  0.00    -0.354 N 
ATOM      3  H11 NON d   1     -39.077  18.415  -1.545  0.00  0.00     0.162 HD
BRANCH   2   4
ATOM      4  C5  NON d   1     -38.577  19.697  -3.105  0.00  0.00     0.168 C 
ATOM      5  S1  NON d   1     -37.524  19.182  -4.290  0.00  0.00    -0.041 SA
BRANCH   4   6
ATOM      6  N1  NON d   1     -38.732  20.987  -2.656  0.00  0.00    -0.359 N 
ATOM      7  H10 NON d   1     -39.391  21.525  -3.203  0.00  0.00     0.162 HD
BRANCH   6   8
ATOM      8  C2  NON d   1     -38.587  21.536  -1.281  0.00  0.00     0.021 C 
ATOM      9  C1  NON d   1     -37.453  20.951  -0.427  0.00  0.00     0.037 C 
ATOM     10  C3  NON d   1     -38.320  23.046  -1.421  0.00  0.00     0.037 C 
ATOM     11  C4  NON d   1     -39.922  21.318  -0.554  0.00  0.00     0.037 C 
ENDBRANCH   6   8
ENDBRANCH   4   6
ENDBRANCH   2   4
ENDBRANCH   1   2
BRANCH   1  12
ATOM     12  C7  NON d   1     -41.642  17.549  -3.069  0.00  0.00     0.035 C 
BRANCH  12  13
ATOM     13  C8  NON d   1     -43.154  17.528  -3.337  0.00  0.00     0.002 C 
BRANCH  13  14
ATOM     14  C9  NON d   1     -43.605  18.117  -4.688  0.00  0.00     0.001 C 
BRANCH  14  15
ATOM     15  C10 NON d   1     -45.100  17.947  -5.035  0.00  0.00     0.010 C 
BRANCH  15  16
ATOM     16  C11 NON d   1     -45.627  16.521  -4.863  0.00  0.00     0.070 C 
BRANCH  16  17
ATOM     17  S2  NON d   1     -47.161  16.277  -5.810  0.00  0.00    -0.182 SA
ATOM     18  H23 NON d   1     -46.744  16.886  -6.931  0.00  0.00     0.101 HD
ENDBRANCH  16  17
ENDBRANCH  15  16
ENDBRANCH  14  15
ENDBRANCH  13  14
ENDBRANCH  12  13
ENDBRANCH   1  12
BRANCH   1  19
ATOM     19  C12 NON d   1     -40.950  19.519  -3.954  0.00  0.00     0.240 C 
ATOM     20  O1  NON d   1     -41.206  20.731  -4.039  0.00  0.00    -0.271 OA
ATOM     21  N3  NON d   1     -40.622  18.820  -5.095  0.00  0.00    -0.355 N 
ATOM     22  H24 NON d   1     -40.122  17.960  -4.902  0.00  0.00     0.162 HD
BRANCH  21  23
ATOM     23  C13 NON d   1     -40.218  19.585  -6.264  0.00  0.00     0.084 C 
ATOM     24  C14 NON d   1     -39.544  18.752  -7.344  0.00  0.00     0.025 C 
ATOM     25  C15 NON d   1     -39.630  19.615  -8.601  0.00  0.00     0.002 C 
ATOM     26  C16 NON d   1     -40.777  20.599  -8.371  0.00  0.00     0.002 C 
ATOM     27  C17 NON d   1     -41.385  20.218  -7.026  0.00  0.00     0.025 C 
ENDBRANCH  21  23
ENDBRANCH   1  19
TORSDOF 12
ENDMDL
MODEL 9
REMARK VINA RESULT:   -13.586      3.286      7.570
REMARK INTER + INTRA:         -19.335
REMARK INTER:                 -17.165
REMARK INTRA:                  -2.170
REMARK CONF_INDEPENDENT:        3.580
REMARK UNBOUND:                -2.170
REMARK  12 active torsions:
REMARK  status: ('A' for Active; 'I' for Inactive)
REMARK    1  A    between atoms: C2_2  and  N1_5 
REMARK    2  A    between atoms: N1_5  and  C5_6 
REMARK    3  A    between atoms: C5_6  and  N2_8 
REMARK    4  A    between atoms: C6_9  and  N2_8 
REMARK    5  A    between atoms: C6_9  and  C7_10 
REMARK    6  A    between atoms: C6_9  and  C12_16 
REMARK    7  A    between atoms: C7_10  and  C8_11 
REMARK    8  A    between atoms: C8_11  and  C9_12 
REMARK    9  A    between atoms: C9_12  and  C10_13 
REMARK   10  A    between atoms: C10_13  and  C11_14 
REMARK   11  A    between atoms: C11_14  and  S2_15 
REMARK       I    between atoms: C12_16  and  N3_18 
REMARK   12  A    between atoms: N3_18  and  C13_19 
ROOT
ATOM      1  C6  NON d   1     -40.005  18.797  -3.838  0.00  0.00     0.176 C 
ENDROOT
BRANCH   1   2
ATOM      2  N2  NON d   1     -39.244  19.385  -5.015  0.00  0.00    -0.354 N 
ATOM      3  H11 NON d   1     -38.446  19.955  -4.778  0.00  0.00     0.162 HD
BRANCH   2   4
ATOM      4  C5  NON d   1     -39.860  19.569  -6.254  0.00  0.00     0.168 C 
ATOM      5  S1  NON d   1     -39.938  18.381  -7.420  0.00  0.00    -0.041 SA
BRANCH   4   6
ATOM      6  N1  NON d   1     -40.341  20.852  -6.363  0.00  0.00    -0.359 N 
ATOM      7  H10 NON d   1     -40.953  21.116  -5.602  0.00  0.00     0.162 HD
BRANCH   6   8
ATOM      8  C2  NON d   1     -39.728  22.043  -7.009  0.00  0.00     0.021 C 
ATOM      9  C1  NON d   1     -39.916  23.385  -6.286  0.00  0.00     0.037 C 
ATOM     10  C3  NON d   1     -38.214  21.783  -7.101  0.00  0.00     0.037 C 
ATOM     11  C4  NON d   1     -40.315  22.154  -8.424  0.00  0.00     0.037 C 
ENDBRANCH   6   8
ENDBRANCH   4   6
ENDBRANCH   2   4
ENDBRANCH   1   2
BRANCH   1  12
ATOM     12  C7  NON d   1     -41.617  18.671  -4.059  0.00  0.00     0.035 C 
BRANCH  12  13
ATOM     13  C8  NON d   1     -42.365  17.424  -3.565  0.00  0.00     0.002 C 
BRANCH  13  14
ATOM     14  C9  NON d   1     -43.436  16.861  -4.519  0.00  0.00     0.001 C 
BRANCH  14  15
ATOM     15  C10 NON d   1     -44.775  17.628  -4.562  0.00  0.00     0.010 C 
BRANCH  15  16
ATOM     16  C11 NON d   1     -45.987  16.798  -4.133  0.00  0.00     0.070 C 
BRANCH  16  17
ATOM     17  S2  NON d   1     -47.104  16.505  -5.540  0.00  0.00    -0.182 SA
ATOM     18  H23 NON d   1     -47.785  17.657  -5.433  0.00  0.00     0.101 HD
ENDBRANCH  16  17
ENDBRANCH  15  16
ENDBRANCH  14  15
ENDBRANCH  13  14
ENDBRANCH  12  13
ENDBRANCH   1  12
BRANCH   1  19
ATOM     19  C12 NON d   1     -40.180  20.111  -3.056  0.00  0.00     0.240 C 
ATOM     20  O1  NON d   1     -40.871  20.992  -3.593  0.00  0.00    -0.271 OA
ATOM     21  N3  NON d   1     -39.695  20.322  -1.783  0.00  0.00    -0.355 N 
ATOM     22  H24 NON d   1     -39.440  19.463  -1.310  0.00  0.00     0.162 HD
BRANCH  21  23
ATOM     23  C13 NON d   1     -40.315  21.371  -0.989  0.00  0.00     0.084 C 
ATOM     24  C14 NON d   1     -39.850  21.403   0.459  0.00  0.00     0.025 C 
ATOM     25  C15 NON d   1     -40.243  22.793   0.956  0.00  0.00     0.002 C 
ATOM     26  C16 NON d   1     -40.390  23.669  -0.288  0.00  0.00     0.002 C 
ATOM     27  C17 NON d   1     -39.987  22.788  -1.465  0.00  0.00     0.025 C 
ENDBRANCH  21  23
ENDBRANCH   1  19
TORSDOF 12
ENDMDL
