MODEL 1
REMARK VINA RESULT:   -31.613      0.000      0.000
REMARK INTER + INTRA:         -35.753
REMARK INTER:                 -34.596
REMARK INTRA:                  -1.157
REMARK CONF_INDEPENDENT:        2.983
REMARK UNBOUND:                -1.157
REMARK  10 active torsions:
REMARK  status: ('A' for Active; 'I' for Inactive)
REMARK    1  A    between atoms: C2_2  and  S1_3 
REMARK    2  A    between atoms: S1_3  and  C3_4 
REMARK    3  A    between atoms: C3_4  and  S3_6 
REMARK    4  A    between atoms: S3_6  and  C4_7 
REMARK    5  A    between atoms: C4_7  and  C5_8 
REMARK    6  A    between atoms: C5_8  and  C6_10 
REMARK    7  A    between atoms: C9_13  and  C10_14 
REMARK    8  A    between atoms: C13_17  and  C14_18 
REMARK    9  A    between atoms: C14_18  and  N1_19 
REMARK   10  A    between atoms: N1_19  and  C15_20 
ROOT
ATOM      1  C10 NON d   1     -46.259  16.853  -4.725  0.00  0.00     0.073 A 
ATOM      2  C11 NON d   1     -46.589  16.134  -3.580  0.00  0.00     0.033 A 
ATOM      3  C12 NON d   1     -47.780  15.395  -3.549  0.00  0.00     0.012 A 
ATOM      4  C13 NON d   1     -48.624  15.372  -4.661  0.00  0.00    -0.027 A 
ATOM      5  C24 NON d   1     -48.208  16.126  -5.756  0.00  0.00     0.125 A 
ATOM      6  N3  NON d   1     -47.065  16.851  -5.810  0.00  0.00    -0.259 NA
ENDROOT
BRANCH   1   7
ATOM      7  C9  NON d   1     -45.023  17.663  -4.835  0.00  0.00     0.034 A 
ATOM      8  C8  NON d   1     -44.813  18.895  -5.434  0.00  0.00     0.023 A 
ATOM      9  C7  NON d   1     -43.459  19.354  -5.334  0.00  0.00     0.024 A 
ATOM     10  C6  NON d   1     -42.648  18.466  -4.655  0.00  0.00     0.052 A 
ATOM     11  S4  NON d   1     -43.548  17.096  -4.150  0.00  0.00    -0.084 SA
BRANCH  10  12
ATOM     12  C5  NON d   1     -41.221  18.533  -4.321  0.00  0.00     0.175 C 
ATOM     13  O1  NON d   1     -40.652  17.645  -3.684  0.00  0.00    -0.291 OA
BRANCH  12  14
ATOM     14  C4  NON d   1     -40.477  19.802  -4.751  0.00  0.00     0.165 C 
BRANCH  14  15
ATOM     15  S3  NON d   1     -39.079  19.422  -5.856  0.00  0.00    -0.104 SA
BRANCH  15  16
ATOM     16  C3  NON d   1     -39.762  19.560  -7.481  0.00  0.00     0.104 C 
ATOM     17  S2  NON d   1     -41.246  20.257  -7.817  0.00  0.00    -0.065 SA
BRANCH  16  18
ATOM     18  S1  NON d   1     -38.660  18.836  -8.657  0.00  0.00    -0.112 SA
BRANCH  18  19
ATOM     19  C2  NON d   1     -37.185  19.889  -8.704  0.00  0.00     0.076 C 
ATOM     20  C1  NON d   1     -36.555  19.900 -10.087  0.00  0.00     0.016 C 
ENDBRANCH  18  19
ENDBRANCH  16  18
ENDBRANCH  15  16
ENDBRANCH  14  15
ENDBRANCH  12  14
ENDBRANCH  10  12
ENDBRANCH   1   7
BRANCH   4  21
ATOM     21  C14 NON d   1     -49.919  14.598  -4.780  0.00  0.00     0.132 C 
BRANCH  21  22
ATOM     22  N1  NON d   1     -50.558  14.307  -3.497  0.00  0.00    -0.287 NA
ATOM     23  H14 NON d   1     -51.190  13.511  -3.553  0.00  0.00     0.128 HD
BRANCH  22  24
ATOM     24  C15 NON d   1     -51.159  15.338  -2.765  0.00  0.00     0.027 A 
ATOM     25  C16 NON d   1     -50.366  16.201  -2.009  0.00  0.00     0.140 A 
ATOM     26  N2  NON d   1     -50.806  17.256  -1.280  0.00  0.00    -0.259 NA
ATOM     27  C17 NON d   1     -52.121  17.519  -1.303  0.00  0.00     0.066 A 
ATOM     28  C18 NON d   1     -52.619  18.584  -0.559  0.00  0.00     0.032 A 
ATOM     29  C22 NON d   1     -53.025  16.750  -2.063  0.00  0.00    -0.006 A 
ATOM     30  C19 NON d   1     -53.979  18.899  -0.548  0.00  0.00     0.002 A 
ATOM     31  C20 NON d   1     -54.870  18.139  -1.295  0.00  0.00     0.001 A 
ATOM     32  C21 NON d   1     -54.397  17.070  -2.053  0.00  0.00     0.014 A 
ATOM     33  C23 NON d   1     -52.515  15.668  -2.811  0.00  0.00     0.038 A 
ENDBRANCH  22  24
ENDBRANCH  21  22
ENDBRANCH   4  21
TORSDOF 10
ENDMDL
MODEL 2
REMARK VINA RESULT:   -31.610      5.404      8.259
REMARK INTER + INTRA:         -35.677
REMARK INTER:                 -34.593
REMARK INTRA:                  -1.084
REMARK CONF_INDEPENDENT:        2.983
REMARK UNBOUND:                -1.084
REMARK  10 active torsions:
REMARK  status: ('A' for Active; 'I' for Inactive)
REMARK    1  A    between atoms: C2_2  and  S1_3 
REMARK    2  A    between atoms: S1_3  and  C3_4 
REMARK    3  A    between atoms: C3_4  and  S3_6 
REMARK    4  A    between atoms: S3_6  and  C4_7 
REMARK    5  A    between atoms: C4_7  and  C5_8 
REMARK    6  A    between atoms: C5_8  and  C6_10 
REMARK    7  A    between atoms: C9_13  and  C10_14 
REMARK    8  A    between atoms: C13_17  and  C14_18 
REMARK    9  A    between atoms: C14_18  and  N1_19 
REMARK   10  A    between atoms: N1_19  and  C15_20 
ROOT
ATOM      1  C10 NON d   1     -39.861  19.319  -2.615  0.00  0.00     0.073 A 
ATOM      2  C11 NON d   1     -39.787  19.264  -4.004  0.00  0.00     0.033 A 
ATOM      3  C12 NON d   1     -40.788  18.593  -4.722  0.00  0.00     0.012 A 
ATOM      4  C13 NON d   1     -41.854  17.993  -4.050  0.00  0.00    -0.027 A 
ATOM      5  C24 NON d   1     -41.836  18.100  -2.661  0.00  0.00     0.125 A 
ATOM      6  N3  NON d   1     -40.881  18.739  -1.944  0.00  0.00    -0.259 NA
ENDROOT
BRANCH   1   7
ATOM      7  C9  NON d   1     -38.841  20.002  -1.784  0.00  0.00     0.034 A 
ATOM      8  C8  NON d   1     -37.475  19.788  -1.693  0.00  0.00     0.023 A 
ATOM      9  C7  NON d   1     -36.824  20.660  -0.760  0.00  0.00     0.024 A 
ATOM     10  C6  NON d   1     -37.702  21.534  -0.150  0.00  0.00     0.052 A 
ATOM     11  S4  NON d   1     -39.297  21.282  -0.725  0.00  0.00    -0.084 SA
BRANCH  10  12
ATOM     12  C5  NON d   1     -37.472  22.585   0.848  0.00  0.00     0.175 C 
ATOM     13  O1  NON d   1     -36.838  22.380   1.884  0.00  0.00    -0.291 OA
BRANCH  12  14
ATOM     14  C4  NON d   1     -38.116  23.947   0.568  0.00  0.00     0.165 C 
BRANCH  14  15
ATOM     15  S3  NON d   1     -38.833  24.676   2.076  0.00  0.00    -0.104 SA
BRANCH  15  16
ATOM     16  C3  NON d   1     -40.568  24.367   1.922  0.00  0.00     0.104 C 
ATOM     17  S2  NON d   1     -41.289  23.730   0.552  0.00  0.00    -0.065 SA
BRANCH  16  18
ATOM     18  S1  NON d   1     -41.396  24.855   3.405  0.00  0.00    -0.112 SA
BRANCH  18  19
ATOM     19  C2  NON d   1     -41.874  26.590   3.187  0.00  0.00     0.076 C 
ATOM     20  C1  NON d   1     -41.076  27.249   2.074  0.00  0.00     0.016 C 
ENDBRANCH  18  19
ENDBRANCH  16  18
ENDBRANCH  15  16
ENDBRANCH  14  15
ENDBRANCH  12  14
ENDBRANCH  10  12
ENDBRANCH   1   7
BRANCH   4  21
ATOM     21  C14 NON d   1     -43.015  17.266  -4.693  0.00  0.00     0.132 C 
BRANCH  21  22
ATOM     22  N1  NON d   1     -44.245  18.053  -4.766  0.00  0.00    -0.287 NA
ATOM     23  H14 NON d   1     -44.219  18.867  -4.155  0.00  0.00     0.128 HD
BRANCH  22  24
ATOM     24  C15 NON d   1     -45.489  17.419  -4.657  0.00  0.00     0.027 A 
ATOM     25  C16 NON d   1     -46.051  16.805  -5.777  0.00  0.00     0.140 A 
ATOM     26  N2  NON d   1     -47.226  16.131  -5.810  0.00  0.00    -0.259 NA
ATOM     27  C17 NON d   1     -47.906  16.015  -4.660  0.00  0.00     0.066 A 
ATOM     28  C18 NON d   1     -49.125  15.343  -4.651  0.00  0.00     0.032 A 
ATOM     29  C22 NON d   1     -47.427  16.552  -3.449  0.00  0.00    -0.006 A 
ATOM     30  C19 NON d   1     -49.873  15.196  -3.481  0.00  0.00     0.002 A 
ATOM     31  C20 NON d   1     -49.400  15.728  -2.288  0.00  0.00     0.001 A 
ATOM     32  C21 NON d   1     -48.181  16.401  -2.269  0.00  0.00     0.014 A 
ATOM     33  C23 NON d   1     -46.193  17.237  -3.466  0.00  0.00     0.038 A 
ENDBRANCH  22  24
ENDBRANCH  21  22
ENDBRANCH   4  21
TORSDOF 10
ENDMDL
MODEL 3
REMARK VINA RESULT:   -31.022      4.767      7.500
REMARK INTER + INTRA:         -35.776
REMARK INTER:                 -34.005
REMARK INTRA:                  -1.771
REMARK CONF_INDEPENDENT:        2.983
REMARK UNBOUND:                -1.771
REMARK  10 active torsions:
REMARK  status: ('A' for Active; 'I' for Inactive)
REMARK    1  A    between atoms: C2_2  and  S1_3 
REMARK    2  A    between atoms: S1_3  and  C3_4 
REMARK    3  A    between atoms: C3_4  and  S3_6 
REMARK    4  A    between atoms: S3_6  and  C4_7 
REMARK    5  A    between atoms: C4_7  and  C5_8 
REMARK    6  A    between atoms: C5_8  and  C6_10 
REMARK    7  A    between atoms: C9_13  and  C10_14 
REMARK    8  A    between atoms: C13_17  and  C14_18 
REMARK    9  A    between atoms: C14_18  and  N1_19 
REMARK   10  A    between atoms: N1_19  and  C15_20 
ROOT
ATOM      1  C10 NON d   1     -40.320  19.751  -2.252  0.00  0.00     0.073 A 
ATOM      2  C11 NON d   1     -40.472  18.482  -1.702  0.00  0.00     0.033 A 
ATOM      3  C12 NON d   1     -41.332  17.561  -2.318  0.00  0.00     0.012 A 
ATOM      4  C13 NON d   1     -42.022  17.911  -3.480  0.00  0.00    -0.027 A 
ATOM      5  C24 NON d   1     -41.805  19.204  -3.950  0.00  0.00     0.125 A 
ATOM      6  N3  NON d   1     -40.984  20.113  -3.372  0.00  0.00    -0.259 NA
ENDROOT
BRANCH   1   7
ATOM      7  C9  NON d   1     -39.437  20.783  -1.658  0.00  0.00     0.034 A 
ATOM      8  C8  NON d   1     -38.372  21.475  -2.214  0.00  0.00     0.023 A 
ATOM      9  C7  NON d   1     -37.757  22.398  -1.307  0.00  0.00     0.024 A 
ATOM     10  C6  NON d   1     -38.363  22.404  -0.066  0.00  0.00     0.052 A 
ATOM     11  S4  NON d   1     -39.666  21.291  -0.028  0.00  0.00    -0.084 SA
BRANCH  10  12
ATOM     12  C5  NON d   1     -38.069  23.184   1.142  0.00  0.00     0.175 C 
ATOM     13  O1  NON d   1     -38.007  22.669   2.259  0.00  0.00    -0.291 OA
BRANCH  12  14
ATOM     14  C4  NON d   1     -37.904  24.696   0.954  0.00  0.00     0.165 C 
BRANCH  14  15
ATOM     15  S3  NON d   1     -39.434  25.471   0.339  0.00  0.00    -0.104 SA
BRANCH  15  16
ATOM     16  C3  NON d   1     -40.723  24.419   0.939  0.00  0.00     0.104 C 
ATOM     17  S2  NON d   1     -40.979  24.083   2.559  0.00  0.00    -0.065 SA
BRANCH  16  18
ATOM     18  S1  NON d   1     -41.654  23.778  -0.419  0.00  0.00    -0.112 SA
BRANCH  18  19
ATOM     19  C2  NON d   1     -40.736  24.200  -1.923  0.00  0.00     0.076 C 
ATOM     20  C1  NON d   1     -41.159  23.328  -3.095  0.00  0.00     0.016 C 
ENDBRANCH  18  19
ENDBRANCH  16  18
ENDBRANCH  15  16
ENDBRANCH  14  15
ENDBRANCH  12  14
ENDBRANCH  10  12
ENDBRANCH   1   7
BRANCH   4  21
ATOM     21  C14 NON d   1     -42.954  17.014  -4.265  0.00  0.00     0.132 C 
BRANCH  21  22
ATOM     22  N1  NON d   1     -44.093  17.713  -4.859  0.00  0.00    -0.287 NA
ATOM     23  H14 NON d   1     -44.091  18.707  -4.643  0.00  0.00     0.128 HD
BRANCH  22  24
ATOM     24  C15 NON d   1     -45.386  17.198  -4.706  0.00  0.00     0.027 A 
ATOM     25  C16 NON d   1     -46.061  16.686  -5.816  0.00  0.00     0.140 A 
ATOM     26  N2  NON d   1     -47.297  16.131  -5.809  0.00  0.00    -0.259 NA
ATOM     27  C17 NON d   1     -47.927  16.033  -4.630  0.00  0.00     0.066 A 
ATOM     28  C18 NON d   1     -49.204  15.482  -4.579  0.00  0.00     0.032 A 
ATOM     29  C22 NON d   1     -47.337  16.472  -3.428  0.00  0.00    -0.006 A 
ATOM     30  C19 NON d   1     -49.903  15.360  -3.377  0.00  0.00     0.002 A 
ATOM     31  C20 NON d   1     -49.322  15.795  -2.192  0.00  0.00     0.001 A 
ATOM     32  C21 NON d   1     -48.042  16.346  -2.214  0.00  0.00     0.014 A 
ATOM     33  C23 NON d   1     -46.045  17.035  -3.486  0.00  0.00     0.038 A 
ENDBRANCH  22  24
ENDBRANCH  21  22
ENDBRANCH   4  21
TORSDOF 10
ENDMDL
MODEL 4
REMARK VINA RESULT:   -30.505      4.959      7.881
REMARK INTER + INTRA:         -34.898
REMARK INTER:                 -33.488
REMARK INTRA:                  -1.410
REMARK CONF_INDEPENDENT:        2.983
REMARK UNBOUND:                -1.410
REMARK  10 active torsions:
REMARK  status: ('A' for Active; 'I' for Inactive)
REMARK    1  A    between atoms: C2_2  and  S1_3 
REMARK    2  A    between atoms: S1_3  and  C3_4 
REMARK    3  A    between atoms: C3_4  and  S3_6 
REMARK    4  A    between atoms: S3_6  and  C4_7 
REMARK    5  A    between atoms: C4_7  and  C5_8 
REMARK    6  A    between atoms: C5_8  and  C6_10 
REMARK    7  A    between atoms: C9_13  and  C10_14 
REMARK    8  A    between atoms: C13_17  and  C14_18 
REMARK    9  A    between atoms: C14_18  and  N1_19 
REMARK   10  A    between atoms: N1_19  and  C15_20 
ROOT
ATOM      1  C10 NON d   1     -40.093  19.849  -2.648  0.00  0.00     0.073 A 
ATOM      2  C11 NON d   1     -40.842  19.098  -1.747  0.00  0.00     0.033 A 
ATOM      3  C12 NON d   1     -41.809  18.205  -2.231  0.00  0.00     0.012 A 
ATOM      4  C13 NON d   1     -42.013  18.064  -3.604  0.00  0.00    -0.027 A 
ATOM      5  C24 NON d   1     -41.217  18.862  -4.422  0.00  0.00     0.125 A 
ATOM      6  N3  NON d   1     -40.280  19.734  -3.981  0.00  0.00    -0.259 NA
ENDROOT
BRANCH   1   7
ATOM      7  C9  NON d   1     -39.057  20.818  -2.218  0.00  0.00     0.034 A 
ATOM      8  C8  NON d   1     -37.727  20.614  -1.884  0.00  0.00     0.023 A 
ATOM      9  C7  NON d   1     -37.044  21.817  -1.509  0.00  0.00     0.024 A 
ATOM     10  C6  NON d   1     -37.861  22.929  -1.564  0.00  0.00     0.052 A 
ATOM     11  S4  NON d   1     -39.438  22.491  -2.072  0.00  0.00    -0.084 SA
BRANCH  10  12
ATOM     12  C5  NON d   1     -37.581  24.340  -1.275  0.00  0.00     0.175 C 
ATOM     13  O1  NON d   1     -36.446  24.746  -1.017  0.00  0.00    -0.291 OA
BRANCH  12  14
ATOM     14  C4  NON d   1     -38.787  25.285  -1.247  0.00  0.00     0.165 C 
BRANCH  14  15
ATOM     15  S3  NON d   1     -38.831  26.276   0.282  0.00  0.00    -0.104 SA
BRANCH  15  16
ATOM     16  C3  NON d   1     -39.305  25.119   1.534  0.00  0.00     0.104 C 
ATOM     17  S2  NON d   1     -38.291  24.599   2.760  0.00  0.00    -0.065 SA
BRANCH  16  18
ATOM     18  S1  NON d   1     -40.972  24.597   1.267  0.00  0.00    -0.112 SA
BRANCH  18  19
ATOM     19  C2  NON d   1     -41.037  22.835   1.685  0.00  0.00     0.076 C 
ATOM     20  C1  NON d   1     -40.117  22.018   0.791  0.00  0.00     0.016 C 
ENDBRANCH  18  19
ENDBRANCH  16  18
ENDBRANCH  15  16
ENDBRANCH  14  15
ENDBRANCH  12  14
ENDBRANCH  10  12
ENDBRANCH   1   7
BRANCH   4  21
ATOM     21  C14 NON d   1     -42.996  17.121  -4.266  0.00  0.00     0.132 C 
BRANCH  21  22
ATOM     22  N1  NON d   1     -44.149  17.789  -4.867  0.00  0.00    -0.287 NA
ATOM     23  H14 NON d   1     -44.169  18.786  -4.660  0.00  0.00     0.128 HD
BRANCH  22  24
ATOM     24  C15 NON d   1     -45.430  17.247  -4.712  0.00  0.00     0.027 A 
ATOM     25  C16 NON d   1     -46.092  16.713  -5.818  0.00  0.00     0.140 A 
ATOM     26  N2  NON d   1     -47.316  16.130  -5.810  0.00  0.00    -0.259 NA
ATOM     27  C17 NON d   1     -47.946  16.028  -4.630  0.00  0.00     0.066 A 
ATOM     28  C18 NON d   1     -49.210  15.449  -4.577  0.00  0.00     0.032 A 
ATOM     29  C22 NON d   1     -47.367  16.489  -3.431  0.00  0.00    -0.006 A 
ATOM     30  C19 NON d   1     -49.908  15.322  -3.375  0.00  0.00     0.002 A 
ATOM     31  C20 NON d   1     -49.338  15.778  -2.193  0.00  0.00     0.001 A 
ATOM     32  C21 NON d   1     -48.071  16.358  -2.218  0.00  0.00     0.014 A 
ATOM     33  C23 NON d   1     -46.087  17.080  -3.492  0.00  0.00     0.038 A 
ENDBRANCH  22  24
ENDBRANCH  21  22
ENDBRANCH   4  21
TORSDOF 10
ENDMDL
MODEL 5
REMARK VINA RESULT:   -30.107      3.914      7.035
REMARK INTER + INTRA:         -34.295
REMARK INTER:                 -33.090
REMARK INTRA:                  -1.204
REMARK CONF_INDEPENDENT:        2.983
REMARK UNBOUND:                -1.204
REMARK  10 active torsions:
REMARK  status: ('A' for Active; 'I' for Inactive)
REMARK    1  A    between atoms: C2_2  and  S1_3 
REMARK    2  A    between atoms: S1_3  and  C3_4 
REMARK    3  A    between atoms: C3_4  and  S3_6 
REMARK    4  A    between atoms: S3_6  and  C4_7 
REMARK    5  A    between atoms: C4_7  and  C5_8 
REMARK    6  A    between atoms: C5_8  and  C6_10 
REMARK    7  A    between atoms: C9_13  and  C10_14 
REMARK    8  A    between atoms: C13_17  and  C14_18 
REMARK    9  A    between atoms: C14_18  and  N1_19 
REMARK   10  A    between atoms: N1_19  and  C15_20 
ROOT
ATOM      1  C10 NON d   1     -40.182  19.980  -6.723  0.00  0.00     0.073 A 
ATOM      2  C11 NON d   1     -39.718  18.869  -6.025  0.00  0.00     0.033 A 
ATOM      3  C12 NON d   1     -40.630  18.055  -5.337  0.00  0.00     0.012 A 
ATOM      4  C13 NON d   1     -41.994  18.351  -5.360  0.00  0.00    -0.027 A 
ATOM      5  C24 NON d   1     -42.358  19.485  -6.082  0.00  0.00     0.125 A 
ATOM      6  N3  NON d   1     -41.497  20.289  -6.751  0.00  0.00    -0.259 NA
ENDROOT
BRANCH   1   7
ATOM      7  C9  NON d   1     -39.283  20.892  -7.468  0.00  0.00     0.034 A 
ATOM      8  C8  NON d   1     -38.122  20.621  -8.175  0.00  0.00     0.023 A 
ATOM      9  C7  NON d   1     -37.526  21.785  -8.760  0.00  0.00     0.024 A 
ATOM     10  C6  NON d   1     -38.244  22.936  -8.497  0.00  0.00     0.052 A 
ATOM     11  S4  NON d   1     -39.626  22.578  -7.548  0.00  0.00    -0.084 SA
BRANCH  10  12
ATOM     12  C5  NON d   1     -38.006  24.327  -8.898  0.00  0.00     0.175 C 
ATOM     13  O1  NON d   1     -37.005  24.952  -8.546  0.00  0.00    -0.291 OA
BRANCH  12  14
ATOM     14  C4  NON d   1     -39.104  24.994  -9.734  0.00  0.00     0.165 C 
BRANCH  14  15
ATOM     15  S3  NON d   1     -40.032  23.777 -10.722  0.00  0.00    -0.104 SA
BRANCH  15  16
ATOM     16  C3  NON d   1     -38.947  23.391 -12.064  0.00  0.00     0.104 C 
ATOM     17  S2  NON d   1     -37.940  22.054 -12.100  0.00  0.00    -0.065 SA
BRANCH  16  18
ATOM     18  S1  NON d   1     -39.077  24.631 -13.316  0.00  0.00    -0.112 SA
BRANCH  18  19
ATOM     19  C2  NON d   1     -40.705  24.424 -14.085  0.00  0.00     0.076 C 
ATOM     20  C1  NON d   1     -40.789  25.157 -15.414  0.00  0.00     0.016 C 
ENDBRANCH  18  19
ENDBRANCH  16  18
ENDBRANCH  15  16
ENDBRANCH  14  15
ENDBRANCH  12  14
ENDBRANCH  10  12
ENDBRANCH   1   7
BRANCH   4  21
ATOM     21  C14 NON d   1     -43.089  17.549  -4.693  0.00  0.00     0.132 C 
BRANCH  21  22
ATOM     22  N1  NON d   1     -44.372  18.246  -4.609  0.00  0.00    -0.287 NA
ATOM     23  H14 NON d   1     -44.377  18.960  -3.883  0.00  0.00     0.128 HD
BRANCH  22  24
ATOM     24  C15 NON d   1     -45.564  17.515  -4.562  0.00  0.00     0.027 A 
ATOM     25  C16 NON d   1     -46.039  16.892  -5.717  0.00  0.00     0.140 A 
ATOM     26  N2  NON d   1     -47.156  16.130  -5.810  0.00  0.00    -0.259 NA
ATOM     27  C17 NON d   1     -47.862  15.926  -4.689  0.00  0.00     0.066 A 
ATOM     28  C18 NON d   1     -49.024  15.161  -4.741  0.00  0.00     0.032 A 
ATOM     29  C22 NON d   1     -47.467  16.463  -3.448  0.00  0.00    -0.006 A 
ATOM     30  C19 NON d   1     -49.796  14.921  -3.603  0.00  0.00     0.002 A 
ATOM     31  C20 NON d   1     -49.406  15.452  -2.380  0.00  0.00     0.001 A 
ATOM     32  C21 NON d   1     -48.245  16.218  -2.299  0.00  0.00     0.014 A 
ATOM     33  C23 NON d   1     -46.292  17.242  -3.402  0.00  0.00     0.038 A 
ENDBRANCH  22  24
ENDBRANCH  21  22
ENDBRANCH   4  21
TORSDOF 10
ENDMDL
MODEL 6
REMARK VINA RESULT:   -29.733      4.664      7.544
REMARK INTER + INTRA:         -34.208
REMARK INTER:                 -32.716
REMARK INTRA:                  -1.491
REMARK CONF_INDEPENDENT:        2.983
REMARK UNBOUND:                -1.491
REMARK  10 active torsions:
REMARK  status: ('A' for Active; 'I' for Inactive)
REMARK    1  A    between atoms: C2_2  and  S1_3 
REMARK    2  A    between atoms: S1_3  and  C3_4 
REMARK    3  A    between atoms: C3_4  and  S3_6 
REMARK    4  A    between atoms: S3_6  and  C4_7 
REMARK    5  A    between atoms: C4_7  and  C5_8 
REMARK    6  A    between atoms: C5_8  and  C6_10 
REMARK    7  A    between atoms: C9_13  and  C10_14 
REMARK    8  A    between atoms: C13_17  and  C14_18 
REMARK    9  A    between atoms: C14_18  and  N1_19 
REMARK   10  A    between atoms: N1_19  and  C15_20 
ROOT
ATOM      1  C10 NON d   1     -40.084  20.244  -3.327  0.00  0.00     0.073 A 
ATOM      2  C11 NON d   1     -40.397  19.373  -2.288  0.00  0.00     0.033 A 
ATOM      3  C12 NON d   1     -41.406  18.416  -2.469  0.00  0.00     0.012 A 
ATOM      4  C13 NON d   1     -42.086  18.332  -3.685  0.00  0.00    -0.027 A 
ATOM      5  C24 NON d   1     -41.704  19.249  -4.660  0.00  0.00     0.125 A 
ATOM      6  N3  NON d   1     -40.736  20.184  -4.510  0.00  0.00    -0.259 NA
ENDROOT
BRANCH   1   7
ATOM      7  C9  NON d   1     -39.036  21.285  -3.214  0.00  0.00     0.034 A 
ATOM      8  C8  NON d   1     -37.865  21.456  -3.936  0.00  0.00     0.023 A 
ATOM      9  C7  NON d   1     -37.101  22.595  -3.520  0.00  0.00     0.024 A 
ATOM     10  C6  NON d   1     -37.700  23.285  -2.484  0.00  0.00     0.052 A 
ATOM     11  S4  NON d   1     -39.178  22.538  -2.041  0.00  0.00    -0.084 SA
BRANCH  10  12
ATOM     12  C5  NON d   1     -37.278  24.492  -1.766  0.00  0.00     0.175 C 
ATOM     13  O1  NON d   1     -37.423  24.618  -0.548  0.00  0.00    -0.291 OA
BRANCH  12  14
ATOM     14  C4  NON d   1     -36.699  25.627  -2.617  0.00  0.00     0.165 C 
BRANCH  14  15
ATOM     15  S3  NON d   1     -37.695  27.147  -2.480  0.00  0.00    -0.104 SA
BRANCH  15  16
ATOM     16  C3  NON d   1     -39.368  26.575  -2.533  0.00  0.00     0.104 C 
ATOM     17  S2  NON d   1     -40.118  26.002  -3.915  0.00  0.00    -0.065 SA
BRANCH  16  18
ATOM     18  S1  NON d   1     -40.104  26.729  -0.935  0.00  0.00    -0.112 SA
BRANCH  18  19
ATOM     19  C2  NON d   1     -41.038  25.204  -0.643  0.00  0.00     0.076 C 
ATOM     20  C1  NON d   1     -41.311  24.994   0.837  0.00  0.00     0.016 C 
ENDBRANCH  18  19
ENDBRANCH  16  18
ENDBRANCH  15  16
ENDBRANCH  14  15
ENDBRANCH  12  14
ENDBRANCH  10  12
ENDBRANCH   1   7
BRANCH   4  21
ATOM     21  C14 NON d   1     -43.172  17.335  -4.030  0.00  0.00     0.132 C 
BRANCH  21  22
ATOM     22  N1  NON d   1     -44.306  17.915  -4.747  0.00  0.00    -0.287 NA
ATOM     23  H14 NON d   1     -44.383  18.919  -4.601  0.00  0.00     0.128 HD
BRANCH  22  24
ATOM     24  C15 NON d   1     -45.572  17.323  -4.649  0.00  0.00     0.027 A 
ATOM     25  C16 NON d   1     -46.160  16.760  -5.782  0.00  0.00     0.140 A 
ATOM     26  N2  NON d   1     -47.360  16.130  -5.827  0.00  0.00    -0.259 NA
ATOM     27  C17 NON d   1     -48.039  16.007  -4.677  0.00  0.00     0.066 A 
ATOM     28  C18 NON d   1     -49.281  15.380  -4.679  0.00  0.00     0.032 A 
ATOM     29  C22 NON d   1     -47.535  16.495  -3.455  0.00  0.00    -0.006 A 
ATOM     30  C19 NON d   1     -50.028  15.229  -3.510  0.00  0.00     0.002 A 
ATOM     31  C20 NON d   1     -49.532  15.711  -2.305  0.00  0.00     0.001 A 
ATOM     32  C21 NON d   1     -48.288  16.339  -2.274  0.00  0.00     0.014 A 
ATOM     33  C23 NON d   1     -46.277  17.135  -3.460  0.00  0.00     0.038 A 
ENDBRANCH  22  24
ENDBRANCH  21  22
ENDBRANCH   4  21
TORSDOF 10
ENDMDL
MODEL 7
REMARK VINA RESULT:   -29.695      3.946      7.167
REMARK INTER + INTRA:         -34.155
REMARK INTER:                 -32.678
REMARK INTRA:                  -1.478
REMARK CONF_INDEPENDENT:        2.983
REMARK UNBOUND:                -1.478
REMARK  10 active torsions:
REMARK  status: ('A' for Active; 'I' for Inactive)
REMARK    1  A    between atoms: C2_2  and  S1_3 
REMARK    2  A    between atoms: S1_3  and  C3_4 
REMARK    3  A    between atoms: C3_4  and  S3_6 
REMARK    4  A    between atoms: S3_6  and  C4_7 
REMARK    5  A    between atoms: C4_7  and  C5_8 
REMARK    6  A    between atoms: C5_8  and  C6_10 
REMARK    7  A    between atoms: C9_13  and  C10_14 
REMARK    8  A    between atoms: C13_17  and  C14_18 
REMARK    9  A    between atoms: C14_18  and  N1_19 
REMARK   10  A    between atoms: N1_19  and  C15_20 
ROOT
ATOM      1  C10 NON d   1     -40.039  20.265  -6.290  0.00  0.00     0.073 A 
ATOM      2  C11 NON d   1     -39.754  18.918  -6.490  0.00  0.00     0.033 A 
ATOM      3  C12 NON d   1     -40.684  17.948  -6.090  0.00  0.00     0.012 A 
ATOM      4  C13 NON d   1     -41.891  18.330  -5.503  0.00  0.00    -0.027 A 
ATOM      5  C24 NON d   1     -42.082  19.700  -5.342  0.00  0.00     0.125 A 
ATOM      6  N3  NON d   1     -41.199  20.656  -5.716  0.00  0.00    -0.259 NA
ENDROOT
BRANCH   1   7
ATOM      7  C9  NON d   1     -39.107  21.349  -6.679  0.00  0.00     0.034 A 
ATOM      8  C8  NON d   1     -37.855  21.281  -7.269  0.00  0.00     0.023 A 
ATOM      9  C7  NON d   1     -37.257  22.566  -7.485  0.00  0.00     0.024 A 
ATOM     10  C6  NON d   1     -38.063  23.603  -7.060  0.00  0.00     0.052 A 
ATOM     11  S4  NON d   1     -39.530  22.997  -6.410  0.00  0.00    -0.084 SA
BRANCH  10  12
ATOM     12  C5  NON d   1     -37.855  25.055  -7.094  0.00  0.00     0.175 C 
ATOM     13  O1  NON d   1     -36.783  25.559  -7.430  0.00  0.00    -0.291 OA
BRANCH  12  14
ATOM     14  C4  NON d   1     -39.028  25.925  -6.626  0.00  0.00     0.165 C 
BRANCH  14  15
ATOM     15  S3  NON d   1     -38.989  26.194  -4.824  0.00  0.00    -0.104 SA
BRANCH  15  16
ATOM     16  C3  NON d   1     -40.686  26.090  -4.335  0.00  0.00     0.104 C 
ATOM     17  S2  NON d   1     -41.927  26.940  -5.070  0.00  0.00    -0.065 SA
BRANCH  16  18
ATOM     18  S1  NON d   1     -40.847  24.990  -2.962  0.00  0.00    -0.112 SA
BRANCH  18  19
ATOM     19  C2  NON d   1     -41.396  23.398  -3.633  0.00  0.00     0.076 C 
ATOM     20  C1  NON d   1     -40.405  22.290  -3.315  0.00  0.00     0.016 C 
ENDBRANCH  18  19
ENDBRANCH  16  18
ENDBRANCH  15  16
ENDBRANCH  14  15
ENDBRANCH  12  14
ENDBRANCH  10  12
ENDBRANCH   1   7
BRANCH   4  21
ATOM     21  C14 NON d   1     -42.995  17.399  -5.052  0.00  0.00     0.132 C 
BRANCH  21  22
ATOM     22  N1  NON d   1     -44.187  18.085  -4.556  0.00  0.00    -0.287 NA
ATOM     23  H14 NON d   1     -44.025  18.542  -3.661  0.00  0.00     0.128 HD
BRANCH  22  24
ATOM     24  C15 NON d   1     -45.418  17.418  -4.530  0.00  0.00     0.027 A 
ATOM     25  C16 NON d   1     -45.910  16.830  -5.696  0.00  0.00     0.140 A 
ATOM     26  N2  NON d   1     -47.065  16.130  -5.810  0.00  0.00    -0.259 NA
ATOM     27  C17 NON d   1     -47.797  15.958  -4.700  0.00  0.00     0.066 A 
ATOM     28  C18 NON d   1     -48.997  15.257  -4.773  0.00  0.00     0.032 A 
ATOM     29  C22 NON d   1     -47.390  16.464  -3.449  0.00  0.00    -0.006 A 
ATOM     30  C19 NON d   1     -49.797  15.052  -3.647  0.00  0.00     0.002 A 
ATOM     31  C20 NON d   1     -49.397  15.553  -2.415  0.00  0.00     0.001 A 
ATOM     32  C21 NON d   1     -48.197  16.254  -2.313  0.00  0.00     0.014 A 
ATOM     33  C23 NON d   1     -46.175  17.178  -3.382  0.00  0.00     0.038 A 
ENDBRANCH  22  24
ENDBRANCH  21  22
ENDBRANCH   4  21
TORSDOF 10
ENDMDL
MODEL 8
REMARK VINA RESULT:   -29.375      3.585      6.486
REMARK INTER + INTRA:         -34.106
REMARK INTER:                 -32.358
REMARK INTRA:                  -1.748
REMARK CONF_INDEPENDENT:        2.983
REMARK UNBOUND:                -1.748
REMARK  10 active torsions:
REMARK  status: ('A' for Active; 'I' for Inactive)
REMARK    1  A    between atoms: C2_2  and  S1_3 
REMARK    2  A    between atoms: S1_3  and  C3_4 
REMARK    3  A    between atoms: C3_4  and  S3_6 
REMARK    4  A    between atoms: S3_6  and  C4_7 
REMARK    5  A    between atoms: C4_7  and  C5_8 
REMARK    6  A    between atoms: C5_8  and  C6_10 
REMARK    7  A    between atoms: C9_13  and  C10_14 
REMARK    8  A    between atoms: C13_17  and  C14_18 
REMARK    9  A    between atoms: C14_18  and  N1_19 
REMARK   10  A    between atoms: N1_19  and  C15_20 
ROOT
ATOM      1  C10 NON d   1     -40.107  20.339  -5.413  0.00  0.00     0.073 A 
ATOM      2  C11 NON d   1     -39.676  19.042  -5.153  0.00  0.00     0.033 A 
ATOM      3  C12 NON d   1     -40.622  18.019  -4.994  0.00  0.00     0.012 A 
ATOM      4  C13 NON d   1     -41.985  18.298  -5.106  0.00  0.00    -0.027 A 
ATOM      5  C24 NON d   1     -42.315  19.626  -5.363  0.00  0.00     0.125 A 
ATOM      6  N3  NON d   1     -41.422  20.632  -5.517  0.00  0.00    -0.259 NA
ENDROOT
BRANCH   1   7
ATOM      7  C9  NON d   1     -39.171  21.475  -5.587  0.00  0.00     0.034 A 
ATOM      8  C8  NON d   1     -37.788  21.512  -5.513  0.00  0.00     0.023 A 
ATOM      9  C7  NON d   1     -37.240  22.818  -5.738  0.00  0.00     0.024 A 
ATOM     10  C6  NON d   1     -38.214  23.765  -5.984  0.00  0.00     0.052 A 
ATOM     11  S4  NON d   1     -39.772  23.050  -5.942  0.00  0.00    -0.084 SA
BRANCH  10  12
ATOM     12  C5  NON d   1     -38.106  25.200  -6.268  0.00  0.00     0.175 C 
ATOM     13  O1  NON d   1     -37.922  26.034  -5.379  0.00  0.00    -0.291 OA
BRANCH  12  14
ATOM     14  C4  NON d   1     -38.298  25.626  -7.727  0.00  0.00     0.165 C 
BRANCH  14  15
ATOM     15  S3  NON d   1     -37.521  24.447  -8.880  0.00  0.00    -0.104 SA
BRANCH  15  16
ATOM     16  C3  NON d   1     -38.874  23.811  -9.825  0.00  0.00     0.104 C 
ATOM     17  S2  NON d   1     -40.228  24.703 -10.241  0.00  0.00    -0.065 SA
BRANCH  16  18
ATOM     18  S1  NON d   1     -38.580  22.115 -10.224  0.00  0.00    -0.112 SA
BRANCH  18  19
ATOM     19  C2  NON d   1     -39.331  21.131  -8.899  0.00  0.00     0.076 C 
ATOM     20  C1  NON d   1     -38.635  19.789  -8.742  0.00  0.00     0.016 C 
ENDBRANCH  18  19
ENDBRANCH  16  18
ENDBRANCH  15  16
ENDBRANCH  14  15
ENDBRANCH  12  14
ENDBRANCH  10  12
ENDBRANCH   1   7
BRANCH   4  21
ATOM     21  C14 NON d   1     -43.111  17.293  -4.989  0.00  0.00     0.132 C 
BRANCH  21  22
ATOM     22  N1  NON d   1     -44.210  17.728  -4.128  0.00  0.00    -0.287 NA
ATOM     23  H14 NON d   1     -43.948  17.741  -3.144  0.00  0.00     0.128 HD
BRANCH  22  24
ATOM     24  C15 NON d   1     -45.480  17.156  -4.272  0.00  0.00     0.027 A 
ATOM     25  C16 NON d   1     -45.905  16.727  -5.530  0.00  0.00     0.140 A 
ATOM     26  N2  NON d   1     -47.090  16.131  -5.810  0.00  0.00    -0.259 NA
ATOM     27  C17 NON d   1     -47.926  15.902  -4.787  0.00  0.00     0.066 A 
ATOM     28  C18 NON d   1     -49.158  15.304  -5.030  0.00  0.00     0.032 A 
ATOM     29  C22 NON d   1     -47.597  16.247  -3.461  0.00  0.00    -0.006 A 
ATOM     30  C19 NON d   1     -50.065  15.046  -4.000  0.00  0.00     0.002 A 
ATOM     31  C20 NON d   1     -49.742  15.389  -2.693  0.00  0.00     0.001 A 
ATOM     32  C21 NON d   1     -48.511  15.984  -2.421  0.00  0.00     0.014 A 
ATOM     33  C23 NON d   1     -46.348  16.858  -3.220  0.00  0.00     0.038 A 
ENDBRANCH  22  24
ENDBRANCH  21  22
ENDBRANCH   4  21
TORSDOF 10
ENDMDL
MODEL 9
REMARK VINA RESULT:   -29.182      1.490      2.087
REMARK INTER + INTRA:         -33.068
REMARK INTER:                 -32.165
REMARK INTRA:                  -0.903
REMARK CONF_INDEPENDENT:        2.983
REMARK UNBOUND:                -0.903
REMARK  10 active torsions:
REMARK  status: ('A' for Active; 'I' for Inactive)
REMARK    1  A    between atoms: C2_2  and  S1_3 
REMARK    2  A    between atoms: S1_3  and  C3_4 
REMARK    3  A    between atoms: C3_4  and  S3_6 
REMARK    4  A    between atoms: S3_6  and  C4_7 
REMARK    5  A    between atoms: C4_7  and  C5_8 
REMARK    6  A    between atoms: C5_8  and  C6_10 
REMARK    7  A    between atoms: C9_13  and  C10_14 
REMARK    8  A    between atoms: C13_17  and  C14_18 
REMARK    9  A    between atoms: C14_18  and  N1_19 
REMARK   10  A    between atoms: N1_19  and  C15_20 
ROOT
ATOM      1  C10 NON d   1     -46.311  16.815  -4.697  0.00  0.00     0.073 A 
ATOM      2  C11 NON d   1     -46.712  16.271  -3.480  0.00  0.00     0.033 A 
ATOM      3  C12 NON d   1     -47.919  15.561  -3.405  0.00  0.00     0.012 A 
ATOM      4  C13 NON d   1     -48.709  15.393  -4.544  0.00  0.00    -0.027 A 
ATOM      5  C24 NON d   1     -48.224  15.978  -5.712  0.00  0.00     0.125 A 
ATOM      6  N3  NON d   1     -47.065  16.671  -5.810  0.00  0.00    -0.259 NA
ENDROOT
BRANCH   1   7
ATOM      7  C9  NON d   1     -45.055  17.583  -4.858  0.00  0.00     0.034 A 
ATOM      8  C8  NON d   1     -44.836  18.829  -5.426  0.00  0.00     0.023 A 
ATOM      9  C7  NON d   1     -43.461  19.234  -5.397  0.00  0.00     0.024 A 
ATOM     10  C6  NON d   1     -42.644  18.293  -4.803  0.00  0.00     0.052 A 
ATOM     11  S4  NON d   1     -43.562  16.939  -4.290  0.00  0.00    -0.084 SA
BRANCH  10  12
ATOM     12  C5  NON d   1     -41.197  18.295  -4.559  0.00  0.00     0.175 C 
ATOM     13  O1  NON d   1     -40.676  17.600  -3.686  0.00  0.00    -0.291 OA
BRANCH  12  14
ATOM     14  C4  NON d   1     -40.363  19.259  -5.409  0.00  0.00     0.165 C 
BRANCH  14  15
ATOM     15  S3  NON d   1     -38.798  19.701  -4.586  0.00  0.00    -0.104 SA
BRANCH  15  16
ATOM     16  C3  NON d   1     -38.244  21.140  -5.454  0.00  0.00     0.104 C 
ATOM     17  S2  NON d   1     -39.182  21.994  -6.546  0.00  0.00    -0.065 SA
BRANCH  16  18
ATOM     18  S1  NON d   1     -36.573  21.501  -5.008  0.00  0.00    -0.112 SA
BRANCH  18  19
ATOM     19  C2  NON d   1     -36.572  21.838  -3.227  0.00  0.00     0.076 C 
ATOM     20  C1  NON d   1     -36.702  20.557  -2.419  0.00  0.00     0.016 C 
ENDBRANCH  18  19
ENDBRANCH  16  18
ENDBRANCH  15  16
ENDBRANCH  14  15
ENDBRANCH  12  14
ENDBRANCH  10  12
ENDBRANCH   1   7
BRANCH   4  21
ATOM     21  C14 NON d   1     -50.013  14.629  -4.617  0.00  0.00     0.132 C 
BRANCH  21  22
ATOM     22  N1  NON d   1     -50.632  14.383  -3.316  0.00  0.00    -0.287 NA
ATOM     23  H14 NON d   1     -51.250  13.574  -3.330  0.00  0.00     0.128 HD
BRANCH  22  24
ATOM     24  C15 NON d   1     -51.243  15.434  -2.621  0.00  0.00     0.027 A 
ATOM     25  C16 NON d   1     -50.463  16.299  -1.852  0.00  0.00     0.140 A 
ATOM     26  N2  NON d   1     -50.913  17.371  -1.156  0.00  0.00    -0.259 NA
ATOM     27  C17 NON d   1     -52.222  17.653  -1.229  0.00  0.00     0.066 A 
ATOM     28  C18 NON d   1     -52.729  18.737  -0.520  0.00  0.00     0.032 A 
ATOM     29  C22 NON d   1     -53.110  16.883  -2.006  0.00  0.00    -0.006 A 
ATOM     30  C19 NON d   1     -54.084  19.071  -0.560  0.00  0.00     0.002 A 
ATOM     31  C20 NON d   1     -54.960  18.311  -1.325  0.00  0.00     0.001 A 
ATOM     32  C21 NON d   1     -54.477  17.223  -2.049  0.00  0.00     0.014 A 
ATOM     33  C23 NON d   1     -52.591  15.782  -2.719  0.00  0.00     0.038 A 
ENDBRANCH  22  24
ENDBRANCH  21  22
ENDBRANCH   4  21
TORSDOF 10
ENDMDL
