MODEL 1
REMARK VINA RESULT:   -33.401      0.000      0.000
REMARK INTER + INTRA:         -36.181
REMARK INTER:                 -35.191
REMARK INTRA:                  -0.990
REMARK CONF_INDEPENDENT:        1.790
REMARK UNBOUND:                -0.990
REMARK  6 active torsions:
REMARK  status: ('A' for Active; 'I' for Inactive)
REMARK    1  A    between atoms: N1_1  and  C1_2 
REMARK    2  A    between atoms: C6_7  and  N2_8 
REMARK       I    between atoms: N2_8  and  C7_9 
REMARK    3  A    between atoms: C7_9  and  C8_11 
REMARK    4  A    between atoms: C11_14  and  C12_15 
REMARK    5  A    between atoms: C12_15  and  N3_16 
REMARK    6  A    between atoms: N3_16  and  C13_17 
ROOT
ATOM      1  C8  NON d   1     -44.025  17.791  -4.652  0.00  0.00     0.032 A 
ATOM      2  C9  NON d   1     -43.037  17.423  -3.725  0.00  0.00     0.017 A 
ATOM      3  C10 NON d   1     -41.857  18.162  -3.587  0.00  0.00     0.009 A 
ATOM      4  C11 NON d   1     -41.633  19.309  -4.358  0.00  0.00    -0.045 A 
ATOM      5  C18 NON d   1     -42.622  19.677  -5.287  0.00  0.00     0.009 A 
ATOM      6  C19 NON d   1     -43.803  18.930  -5.435  0.00  0.00     0.017 A 
ENDROOT
BRANCH   1   7
ATOM      7  C7  NON d   1     -45.238  16.906  -4.751  0.00  0.00     0.256 C 
ATOM      8  N2  NON d   1     -46.228  17.074  -3.801  0.00  0.00    -0.321 N 
ATOM      9  H7  NON d   1     -46.099  17.733  -3.047  0.00  0.00     0.169 HD
ATOM     10  O1  NON d   1     -45.282  16.102  -5.678  0.00  0.00    -0.267 OA
BRANCH   8  11
ATOM     11  C6  NON d   1     -47.440  16.348  -3.684  0.00  0.00     0.056 A 
ATOM     12  C5  NON d   1     -48.053  16.045  -2.466  0.00  0.00     0.031 A 
ATOM     13  C4  NON d   1     -49.286  15.387  -2.436  0.00  0.00     0.002 A 
ATOM     14  C3  NON d   1     -49.921  15.036  -3.624  0.00  0.00     0.002 A 
ATOM     15  C2  NON d   1     -49.315  15.323  -4.848  0.00  0.00     0.025 A 
ATOM     16  C1  NON d   1     -48.062  15.945  -4.888  0.00  0.00     0.033 A 
BRANCH  16  17
ATOM     17  N1  NON d   1     -47.440  16.197  -6.138  0.00  0.00    -0.301 NA
ATOM     18  H1  NON d   1     -46.852  15.419  -6.428  0.00  0.00     0.124 HD
ATOM     19  H2  NON d   1     -46.881  17.046  -6.078  0.00  0.00     0.124 HD
ENDBRANCH  16  17
ENDBRANCH   8  11
ENDBRANCH   1   7
BRANCH   4  20
ATOM     20  C12 NON d   1     -40.360  20.139  -4.267  0.00  0.00     0.132 C 
BRANCH  20  21
ATOM     21  N3  NON d   1     -40.066  20.825  -5.522  0.00  0.00    -0.273 NA
ATOM     22  H12 NON d   1     -40.912  21.190  -5.949  0.00  0.00     0.129 HD
BRANCH  21  23
ATOM     23  C13 NON d   1     -39.382  20.055  -6.476  0.00  0.00     0.106 A 
ATOM     24  C14 NON d   1     -38.015  20.296  -6.639  0.00  0.00     0.044 A 
ATOM     25  C15 NON d   1     -37.288  19.556  -7.567  0.00  0.00     0.008 A 
ATOM     26  C16 NON d   1     -37.945  18.590  -8.313  0.00  0.00     0.063 A 
ATOM     27  C17 NON d   1     -39.296  18.407  -8.087  0.00  0.00     0.211 A 
ATOM     28  F1  NON d   1     -39.941  17.479  -8.809  0.00  0.00    -0.184 F 
ATOM     29  N4  NON d   1     -40.022  19.109  -7.188  0.00  0.00    -0.208 NA
ENDBRANCH  21  23
ENDBRANCH  20  21
ENDBRANCH   4  20
TORSDOF 6
ENDMDL
MODEL 2
REMARK VINA RESULT:   -33.056      1.374      1.646
REMARK INTER + INTRA:         -36.035
REMARK INTER:                 -34.846
REMARK INTRA:                  -1.189
REMARK CONF_INDEPENDENT:        1.790
REMARK UNBOUND:                -1.189
REMARK  6 active torsions:
REMARK  status: ('A' for Active; 'I' for Inactive)
REMARK    1  A    between atoms: N1_1  and  C1_2 
REMARK    2  A    between atoms: C6_7  and  N2_8 
REMARK       I    between atoms: N2_8  and  C7_9 
REMARK    3  A    between atoms: C7_9  and  C8_11 
REMARK    4  A    between atoms: C11_14  and  C12_15 
REMARK    5  A    between atoms: C12_15  and  N3_16 
REMARK    6  A    between atoms: N3_16  and  C13_17 
ROOT
ATOM      1  C8  NON d   1     -43.999  17.794  -4.612  0.00  0.00     0.032 A 
ATOM      2  C9  NON d   1     -43.012  17.403  -3.694  0.00  0.00     0.017 A 
ATOM      3  C10 NON d   1     -41.827  18.132  -3.545  0.00  0.00     0.009 A 
ATOM      4  C11 NON d   1     -41.598  19.292  -4.295  0.00  0.00    -0.045 A 
ATOM      5  C18 NON d   1     -42.586  19.684  -5.214  0.00  0.00     0.009 A 
ATOM      6  C19 NON d   1     -43.772  18.946  -5.373  0.00  0.00     0.017 A 
ENDROOT
BRANCH   1   7
ATOM      7  C7  NON d   1     -45.217  16.919  -4.724  0.00  0.00     0.256 C 
ATOM      8  N2  NON d   1     -46.208  17.080  -3.773  0.00  0.00    -0.321 N 
ATOM      9  H7  NON d   1     -46.076  17.727  -3.010  0.00  0.00     0.169 HD
ATOM     10  O1  NON d   1     -45.265  16.127  -5.662  0.00  0.00    -0.267 OA
BRANCH   8  11
ATOM     11  C6  NON d   1     -47.424  16.360  -3.668  0.00  0.00     0.056 A 
ATOM     12  C5  NON d   1     -48.033  16.031  -2.455  0.00  0.00     0.031 A 
ATOM     13  C4  NON d   1     -49.271  15.381  -2.435  0.00  0.00     0.002 A 
ATOM     14  C3  NON d   1     -49.916  15.066  -3.628  0.00  0.00     0.002 A 
ATOM     15  C2  NON d   1     -49.314  15.379  -4.846  0.00  0.00     0.025 A 
ATOM     16  C1  NON d   1     -48.056  15.993  -4.878  0.00  0.00     0.033 A 
BRANCH  16  17
ATOM     17  N1  NON d   1     -47.440  16.273  -6.125  0.00  0.00    -0.301 NA
ATOM     18  H1  NON d   1     -46.772  15.550  -6.384  0.00  0.00     0.124 HD
ATOM     19  H2  NON d   1     -46.970  17.175  -6.081  0.00  0.00     0.124 HD
ENDBRANCH  16  17
ENDBRANCH   8  11
ENDBRANCH   1   7
BRANCH   4  20
ATOM     20  C12 NON d   1     -40.319  20.112  -4.191  0.00  0.00     0.132 C 
BRANCH  20  21
ATOM     21  N3  NON d   1     -39.320  19.691  -5.169  0.00  0.00    -0.273 NA
ATOM     22  H12 NON d   1     -38.401  20.054  -4.936  0.00  0.00     0.129 HD
BRANCH  21  23
ATOM     23  C13 NON d   1     -39.610  20.030  -6.501  0.00  0.00     0.106 A 
ATOM     24  C14 NON d   1     -39.469  19.029  -7.466  0.00  0.00     0.044 A 
ATOM     25  C15 NON d   1     -39.750  19.310  -8.800  0.00  0.00     0.008 A 
ATOM     26  C16 NON d   1     -40.165  20.588  -9.140  0.00  0.00     0.063 A 
ATOM     27  C17 NON d   1     -40.286  21.519  -8.126  0.00  0.00     0.211 A 
ATOM     28  F1  NON d   1     -40.682  22.760  -8.447  0.00  0.00    -0.184 F 
ATOM     29  N4  NON d   1     -40.026  21.269  -6.824  0.00  0.00    -0.208 NA
ENDBRANCH  21  23
ENDBRANCH  20  21
ENDBRANCH   4  20
TORSDOF 6
ENDMDL
MODEL 3
REMARK VINA RESULT:   -33.004      2.529      3.781
REMARK INTER + INTRA:         -35.822
REMARK INTER:                 -34.794
REMARK INTRA:                  -1.028
REMARK CONF_INDEPENDENT:        1.790
REMARK UNBOUND:                -1.028
REMARK  6 active torsions:
REMARK  status: ('A' for Active; 'I' for Inactive)
REMARK    1  A    between atoms: N1_1  and  C1_2 
REMARK    2  A    between atoms: C6_7  and  N2_8 
REMARK       I    between atoms: N2_8  and  C7_9 
REMARK    3  A    between atoms: C7_9  and  C8_11 
REMARK    4  A    between atoms: C11_14  and  C12_15 
REMARK    5  A    between atoms: C12_15  and  N3_16 
REMARK    6  A    between atoms: N3_16  and  C13_17 
ROOT
ATOM      1  C8  NON d   1     -43.927  17.771  -4.891  0.00  0.00     0.032 A 
ATOM      2  C9  NON d   1     -42.759  17.212  -4.349  0.00  0.00     0.017 A 
ATOM      3  C10 NON d   1     -41.546  17.910  -4.358  0.00  0.00     0.009 A 
ATOM      4  C11 NON d   1     -41.464  19.202  -4.890  0.00  0.00    -0.045 A 
ATOM      5  C18 NON d   1     -42.634  19.763  -5.432  0.00  0.00     0.009 A 
ATOM      6  C19 NON d   1     -43.850  19.059  -5.435  0.00  0.00     0.017 A 
ENDROOT
BRANCH   1   7
ATOM      7  C7  NON d   1     -45.169  16.922  -4.869  0.00  0.00     0.256 C 
ATOM      8  N2  NON d   1     -46.119  17.208  -3.906  0.00  0.00    -0.321 N 
ATOM      9  H7  NON d   1     -45.943  17.927  -3.220  0.00  0.00     0.169 HD
ATOM     10  O1  NON d   1     -45.270  16.040  -5.717  0.00  0.00    -0.267 OA
BRANCH   8  11
ATOM     11  C6  NON d   1     -47.347  16.536  -3.684  0.00  0.00     0.056 A 
ATOM     12  C5  NON d   1     -47.926  16.364  -2.424  0.00  0.00     0.031 A 
ATOM     13  C4  NON d   1     -49.175  15.753  -2.294  0.00  0.00     0.002 A 
ATOM     14  C3  NON d   1     -49.864  15.319  -3.424  0.00  0.00     0.002 A 
ATOM     15  C2  NON d   1     -49.293  15.474  -4.687  0.00  0.00     0.025 A 
ATOM     16  C1  NON d   1     -48.024  16.048  -4.825  0.00  0.00     0.033 A 
BRANCH  16  17
ATOM     17  N1  NON d   1     -47.440  16.166  -6.113  0.00  0.00    -0.301 NA
ATOM     18  H1  NON d   1     -46.706  15.476  -6.257  0.00  0.00     0.124 HD
ATOM     19  H2  NON d   1     -47.059  17.103  -6.232  0.00  0.00     0.124 HD
ENDBRANCH  16  17
ENDBRANCH   8  11
ENDBRANCH   1   7
BRANCH   4  20
ATOM     20  C12 NON d   1     -40.169  20.000  -4.947  0.00  0.00     0.132 C 
BRANCH  20  21
ATOM     21  N3  NON d   1     -39.542  20.117  -3.633  0.00  0.00    -0.273 NA
ATOM     22  H12 NON d   1     -39.686  19.277  -3.081  0.00  0.00     0.129 HD
BRANCH  21  23
ATOM     23  C13 NON d   1     -39.951  21.226  -2.874  0.00  0.00     0.106 A 
ATOM     24  C14 NON d   1     -39.894  21.111  -1.483  0.00  0.00     0.044 A 
ATOM     25  C15 NON d   1     -40.281  22.182  -0.684  0.00  0.00     0.008 A 
ATOM     26  C16 NON d   1     -40.719  23.347  -1.295  0.00  0.00     0.063 A 
ATOM     27  C17 NON d   1     -40.739  23.383  -2.677  0.00  0.00     0.211 A 
ATOM     28  F1  NON d   1     -41.167  24.504  -3.276  0.00  0.00    -0.184 F 
ATOM     29  N4  NON d   1     -40.362  22.359  -3.473  0.00  0.00    -0.208 NA
ENDBRANCH  21  23
ENDBRANCH  20  21
ENDBRANCH   4  20
TORSDOF 6
ENDMDL
MODEL 4
REMARK VINA RESULT:   -32.486      2.816      4.004
REMARK INTER + INTRA:         -35.412
REMARK INTER:                 -34.275
REMARK INTRA:                  -1.136
REMARK CONF_INDEPENDENT:        1.790
REMARK UNBOUND:                -1.136
REMARK  6 active torsions:
REMARK  status: ('A' for Active; 'I' for Inactive)
REMARK    1  A    between atoms: N1_1  and  C1_2 
REMARK    2  A    between atoms: C6_7  and  N2_8 
REMARK       I    between atoms: N2_8  and  C7_9 
REMARK    3  A    between atoms: C7_9  and  C8_11 
REMARK    4  A    between atoms: C11_14  and  C12_15 
REMARK    5  A    between atoms: C12_15  and  N3_16 
REMARK    6  A    between atoms: N3_16  and  C13_17 
ROOT
ATOM      1  C8  NON d   1     -43.731  18.006  -4.679  0.00  0.00     0.032 A 
ATOM      2  C9  NON d   1     -43.317  19.118  -5.428  0.00  0.00     0.017 A 
ATOM      3  C10 NON d   1     -41.982  19.537  -5.431  0.00  0.00     0.009 A 
ATOM      4  C11 NON d   1     -41.009  18.844  -4.701  0.00  0.00    -0.045 A 
ATOM      5  C18 NON d   1     -41.424  17.730  -3.950  0.00  0.00     0.009 A 
ATOM      6  C19 NON d   1     -42.767  17.314  -3.937  0.00  0.00     0.017 A 
ENDROOT
BRANCH   1   7
ATOM      7  C7  NON d   1     -45.196  17.663  -4.712  0.00  0.00     0.256 C 
ATOM      8  N2  NON d   1     -45.734  17.058  -3.592  0.00  0.00    -0.321 N 
ATOM      9  H7  NON d   1     -45.139  16.816  -2.813  0.00  0.00     0.169 HD
ATOM     10  O1  NON d   1     -45.826  17.955  -5.725  0.00  0.00    -0.267 OA
BRANCH   8  11
ATOM     11  C6  NON d   1     -47.073  16.632  -3.404  0.00  0.00     0.056 A 
ATOM     12  C5  NON d   1     -47.731  16.646  -2.171  0.00  0.00     0.031 A 
ATOM     13  C4  NON d   1     -49.075  16.277  -2.080  0.00  0.00     0.002 A 
ATOM     14  C3  NON d   1     -49.777  15.901  -3.222  0.00  0.00     0.002 A 
ATOM     15  C2  NON d   1     -49.131  15.871  -4.457  0.00  0.00     0.025 A 
ATOM     16  C1  NON d   1     -47.773  16.200  -4.553  0.00  0.00     0.033 A 
BRANCH  16  17
ATOM     17  N1  NON d   1     -47.119  16.130  -5.810  0.00  0.00    -0.301 NA
ATOM     18  H1  NON d   1     -46.111  16.029  -5.704  0.00  0.00     0.124 HD
ATOM     19  H2  NON d   1     -47.324  16.968  -6.351  0.00  0.00     0.124 HD
ENDBRANCH  16  17
ENDBRANCH   8  11
ENDBRANCH   1   7
BRANCH   4  20
ATOM     20  C12 NON d   1     -39.548  19.266  -4.648  0.00  0.00     0.132 C 
BRANCH  20  21
ATOM     21  N3  NON d   1     -39.075  19.423  -3.276  0.00  0.00    -0.273 NA
ATOM     22  H12 NON d   1     -39.302  18.609  -2.713  0.00  0.00     0.129 HD
BRANCH  21  23
ATOM     23  C13 NON d   1     -39.541  20.570  -2.612  0.00  0.00     0.106 A 
ATOM     24  C14 NON d   1     -39.924  21.659  -3.399  0.00  0.00     0.044 A 
ATOM     25  C15 NON d   1     -40.400  22.818  -2.794  0.00  0.00     0.008 A 
ATOM     26  C16 NON d   1     -40.482  22.862  -1.410  0.00  0.00     0.063 A 
ATOM     27  C17 NON d   1     -40.091  21.740  -0.704  0.00  0.00     0.211 A 
ATOM     28  F1  NON d   1     -40.162  21.777   0.635  0.00  0.00    -0.184 F 
ATOM     29  N4  NON d   1     -39.632  20.602  -1.270  0.00  0.00    -0.208 NA
ENDBRANCH  21  23
ENDBRANCH  20  21
ENDBRANCH   4  20
TORSDOF 6
ENDMDL
MODEL 5
REMARK VINA RESULT:   -31.050      2.496      2.740
REMARK INTER + INTRA:         -33.781
REMARK INTER:                 -32.840
REMARK INTRA:                  -0.941
REMARK CONF_INDEPENDENT:        1.790
REMARK UNBOUND:                -0.941
REMARK  6 active torsions:
REMARK  status: ('A' for Active; 'I' for Inactive)
REMARK    1  A    between atoms: N1_1  and  C1_2 
REMARK    2  A    between atoms: C6_7  and  N2_8 
REMARK       I    between atoms: N2_8  and  C7_9 
REMARK    3  A    between atoms: C7_9  and  C8_11 
REMARK    4  A    between atoms: C11_14  and  C12_15 
REMARK    5  A    between atoms: C12_15  and  N3_16 
REMARK    6  A    between atoms: N3_16  and  C13_17 
ROOT
ATOM      1  C8  NON d   1     -43.328  17.939  -4.737  0.00  0.00     0.032 A 
ATOM      2  C9  NON d   1     -42.174  17.212  -5.066  0.00  0.00     0.017 A 
ATOM      3  C10 NON d   1     -41.115  17.804  -5.764  0.00  0.00     0.009 A 
ATOM      4  C11 NON d   1     -41.166  19.152  -6.139  0.00  0.00    -0.045 A 
ATOM      5  C18 NON d   1     -42.323  19.880  -5.810  0.00  0.00     0.009 A 
ATOM      6  C19 NON d   1     -43.392  19.284  -5.119  0.00  0.00     0.017 A 
ENDROOT
BRANCH   1   7
ATOM      7  C7  NON d   1     -44.425  17.198  -4.021  0.00  0.00     0.256 C 
ATOM      8  N2  NON d   1     -45.725  17.436  -4.427  0.00  0.00    -0.321 N 
ATOM      9  H7  NON d   1     -45.914  18.124  -5.141  0.00  0.00     0.169 HD
ATOM     10  O1  NON d   1     -44.098  16.416  -3.133  0.00  0.00    -0.267 OA
BRANCH   8  11
ATOM     11  C6  NON d   1     -46.910  16.873  -3.890  0.00  0.00     0.056 A 
ATOM     12  C5  NON d   1     -47.260  16.933  -2.539  0.00  0.00     0.031 A 
ATOM     13  C4  NON d   1     -48.481  16.416  -2.099  0.00  0.00     0.002 A 
ATOM     14  C3  NON d   1     -49.369  15.845  -3.008  0.00  0.00     0.002 A 
ATOM     15  C2  NON d   1     -49.027  15.769  -4.358  0.00  0.00     0.025 A 
ATOM     16  C1  NON d   1     -47.789  16.247  -4.803  0.00  0.00     0.033 A 
BRANCH  16  17
ATOM     17  N1  NON d   1     -47.440  16.130  -6.173  0.00  0.00    -0.301 NA
ATOM     18  H1  NON d   1     -46.738  15.408  -6.321  0.00  0.00     0.124 HD
ATOM     19  H2  NON d   1     -47.092  17.023  -6.516  0.00  0.00     0.124 HD
ENDBRANCH  16  17
ENDBRANCH   8  11
ENDBRANCH   1   7
BRANCH   4  20
ATOM     20  C12 NON d   1     -40.057  19.843  -6.919  0.00  0.00     0.132 C 
BRANCH  20  21
ATOM     21  N3  NON d   1     -40.330  19.865  -8.353  0.00  0.00    -0.273 NA
ATOM     22  H12 NON d   1     -39.865  19.098  -8.828  0.00  0.00     0.129 HD
BRANCH  21  23
ATOM     23  C13 NON d   1     -39.993  21.063  -9.005  0.00  0.00     0.106 A 
ATOM     24  C14 NON d   1     -40.238  22.258  -8.324  0.00  0.00     0.044 A 
ATOM     25  C15 NON d   1     -39.917  23.473  -8.921  0.00  0.00     0.008 A 
ATOM     26  C16 NON d   1     -39.358  23.466 -10.190  0.00  0.00     0.063 A 
ATOM     27  C17 NON d   1     -39.140  22.242 -10.793  0.00  0.00     0.211 A 
ATOM     28  F1  NON d   1     -38.605  22.226 -12.023  0.00  0.00    -0.184 F 
ATOM     29  N4  NON d   1     -39.438  21.050 -10.231  0.00  0.00    -0.208 NA
ENDBRANCH  21  23
ENDBRANCH  20  21
ENDBRANCH   4  20
TORSDOF 6
ENDMDL
