MODEL 1
REMARK VINA RESULT:   -34.917      0.000      0.000
REMARK INTER + INTRA:         -37.606
REMARK INTER:                 -36.707
REMARK INTRA:                  -0.899
REMARK CONF_INDEPENDENT:        1.790
REMARK UNBOUND:                -0.899
REMARK  6 active torsions:
REMARK  status: ('A' for Active; 'I' for Inactive)
REMARK    1  A    between atoms: N1_1  and  C1_2 
REMARK    2  A    between atoms: C6_7  and  N2_8 
REMARK       I    between atoms: N2_8  and  C7_9 
REMARK    3  A    between atoms: C7_9  and  C8_11 
REMARK    4  A    between atoms: C11_14  and  C12_15 
REMARK    5  A    between atoms: C12_15  and  N3_16 
REMARK    6  A    between atoms: N3_16  and  C13_17 
ROOT
ATOM      1  C8  NON d   1     -43.900  17.746  -4.942  0.00  0.00     0.032 A 
ATOM      2  C9  NON d   1     -42.751  17.149  -4.405  0.00  0.00     0.017 A 
ATOM      3  C10 NON d   1     -41.531  17.832  -4.348  0.00  0.00     0.010 A 
ATOM      4  C11 NON d   1     -41.413  19.139  -4.835  0.00  0.00    -0.040 A 
ATOM      5  C20 NON d   1     -42.566  19.734  -5.381  0.00  0.00     0.010 A 
ATOM      6  C21 NON d   1     -43.796  19.053  -5.431  0.00  0.00     0.017 A 
ENDROOT
BRANCH   1   7
ATOM      7  C7  NON d   1     -45.163  16.932  -4.922  0.00  0.00     0.256 C 
ATOM      8  N2  NON d   1     -46.091  17.217  -3.938  0.00  0.00    -0.321 N 
ATOM      9  H7  NON d   1     -45.932  17.986  -3.302  0.00  0.00     0.169 HD
ATOM     10  O1  NON d   1     -45.287  16.055  -5.772  0.00  0.00    -0.267 OA
BRANCH   8  11
ATOM     11  C6  NON d   1     -47.354  16.602  -3.746  0.00  0.00     0.056 A 
ATOM     12  C5  NON d   1     -47.961  16.439  -2.497  0.00  0.00     0.031 A 
ATOM     13  C4  NON d   1     -49.172  15.753  -2.378  0.00  0.00     0.002 A 
ATOM     14  C3  NON d   1     -49.784  15.215  -3.507  0.00  0.00     0.002 A 
ATOM     15  C2  NON d   1     -49.198  15.379  -4.761  0.00  0.00     0.025 A 
ATOM     16  C1  NON d   1     -48.006  16.103  -4.897  0.00  0.00     0.033 A 
BRANCH  16  17
ATOM     17  N1  NON d   1     -47.440  16.287  -6.184  0.00  0.00    -0.301 NA
ATOM     18  H1  NON d   1     -47.039  17.216  -6.289  0.00  0.00     0.124 HD
ATOM     19  H2  NON d   1     -46.724  15.582  -6.348  0.00  0.00     0.124 HD
ENDBRANCH  16  17
ENDBRANCH   8  11
ENDBRANCH   1   7
BRANCH   4  20
ATOM     20  C12 NON d   1     -40.110  19.929  -4.835  0.00  0.00     0.161 C 
BRANCH  20  21
ATOM     21  N3  NON d   1     -40.292  21.338  -4.553  0.00  0.00    -0.350 N 
ATOM     22  H12 NON d   1     -40.981  21.806  -5.126  0.00  0.00     0.163 HD
BRANCH  21  23
ATOM     23  C13 NON d   1     -40.314  21.789  -3.289  0.00  0.00     0.248 A 
ATOM     24  N4  NON d   1     -40.884  22.899  -2.878  0.00  0.00    -0.206 NA
ATOM     25  C14 NON d   1     -40.654  22.909  -1.529  0.00  0.00     0.096 A 
ATOM     26  C15 NON d   1     -41.010  23.840  -0.546  0.00  0.00     0.058 A 
ATOM     27  C19 NON d   1     -39.956  21.768  -1.168  0.00  0.00     0.108 A 
ATOM     28  C16 NON d   1     -40.644  23.556   0.775  0.00  0.00     0.036 A 
ATOM     29 Cl1  NON d   1     -41.065  24.673   2.018  0.00  0.00    -0.084 Cl
ATOM     30  C17 NON d   1     -39.947  22.388   1.111  0.00  0.00     0.026 A 
ATOM     31  C18 NON d   1     -39.579  21.453   0.132  0.00  0.00     0.041 A 
ATOM     32  O2  NON d   1     -39.727  21.043  -2.303  0.00  0.00    -0.276 OA
ENDBRANCH  21  23
ENDBRANCH  20  21
ENDBRANCH   4  20
TORSDOF 6
ENDMDL
MODEL 2
REMARK VINA RESULT:   -34.666      0.995      1.383
REMARK INTER + INTRA:         -37.440
REMARK INTER:                 -36.455
REMARK INTRA:                  -0.984
REMARK CONF_INDEPENDENT:        1.790
REMARK UNBOUND:                -0.984
REMARK  6 active torsions:
REMARK  status: ('A' for Active; 'I' for Inactive)
REMARK    1  A    between atoms: N1_1  and  C1_2 
REMARK    2  A    between atoms: C6_7  and  N2_8 
REMARK       I    between atoms: N2_8  and  C7_9 
REMARK    3  A    between atoms: C7_9  and  C8_11 
REMARK    4  A    between atoms: C11_14  and  C12_15 
REMARK    5  A    between atoms: C12_15  and  N3_16 
REMARK    6  A    between atoms: N3_16  and  C13_17 
ROOT
ATOM      1  C8  NON d   1     -43.859  18.034  -4.734  0.00  0.00     0.032 A 
ATOM      2  C9  NON d   1     -43.020  17.245  -3.934  0.00  0.00     0.017 A 
ATOM      3  C10 NON d   1     -41.655  17.524  -3.811  0.00  0.00     0.010 A 
ATOM      4  C11 NON d   1     -41.074  18.602  -4.491  0.00  0.00    -0.040 A 
ATOM      5  C20 NON d   1     -41.917  19.388  -5.299  0.00  0.00     0.010 A 
ATOM      6  C21 NON d   1     -43.292  19.115  -5.418  0.00  0.00     0.017 A 
ENDROOT
BRANCH   1   7
ATOM      7  C7  NON d   1     -45.315  17.663  -4.766  0.00  0.00     0.256 C 
ATOM      8  N2  NON d   1     -45.857  17.104  -3.625  0.00  0.00    -0.321 N 
ATOM      9  H7  NON d   1     -45.294  17.011  -2.792  0.00  0.00     0.169 HD
ATOM     10  O1  NON d   1     -45.930  17.866  -5.810  0.00  0.00    -0.267 OA
BRANCH   8  11
ATOM     11  C6  NON d   1     -47.204  16.706  -3.420  0.00  0.00     0.056 A 
ATOM     12  C5  NON d   1     -47.860  16.778  -2.187  0.00  0.00     0.031 A 
ATOM     13  C4  NON d   1     -49.163  16.295  -2.046  0.00  0.00     0.002 A 
ATOM     14  C3  NON d   1     -49.820  15.727  -3.133  0.00  0.00     0.002 A 
ATOM     15  C2  NON d   1     -49.183  15.659  -4.372  0.00  0.00     0.025 A 
ATOM     16  C1  NON d   1     -47.893  16.180  -4.536  0.00  0.00     0.033 A 
BRANCH  16  17
ATOM     17  N1  NON d   1     -47.273  16.131  -5.810  0.00  0.00    -0.301 NA
ATOM     18  H1  NON d   1     -47.274  17.041  -6.265  0.00  0.00     0.124 HD
ATOM     19  H2  NON d   1     -46.317  15.795  -5.715  0.00  0.00     0.124 HD
ENDBRANCH  16  17
ENDBRANCH   8  11
ENDBRANCH   1   7
BRANCH   4  20
ATOM     20  C12 NON d   1     -39.590  18.942  -4.428  0.00  0.00     0.161 C 
BRANCH  20  21
ATOM     21  N3  NON d   1     -39.329  20.367  -4.391  0.00  0.00    -0.350 N 
ATOM     22  H12 NON d   1     -39.472  20.854  -5.266  0.00  0.00     0.163 HD
BRANCH  21  23
ATOM     23  C13 NON d   1     -39.720  21.111  -3.345  0.00  0.00     0.248 A 
ATOM     24  N4  NON d   1     -39.620  20.772  -2.079  0.00  0.00    -0.206 NA
ATOM     25  C14 NON d   1     -40.128  21.851  -1.407  0.00  0.00     0.096 A 
ATOM     26  C15 NON d   1     -40.296  22.080  -0.037  0.00  0.00     0.058 A 
ATOM     27  C19 NON d   1     -40.505  22.829  -2.314  0.00  0.00     0.108 A 
ATOM     28  C16 NON d   1     -40.834  23.312   0.351  0.00  0.00     0.036 A 
ATOM     29 Cl1  NON d   1     -41.054  23.638   2.029  0.00  0.00    -0.084 Cl
ATOM     30  C17 NON d   1     -41.195  24.286  -0.589  0.00  0.00     0.026 A 
ATOM     31  C18 NON d   1     -41.039  24.063  -1.965  0.00  0.00     0.041 A 
ATOM     32  O2  NON d   1     -40.249  22.353  -3.569  0.00  0.00    -0.276 OA
ENDBRANCH  21  23
ENDBRANCH  20  21
ENDBRANCH   4  20
TORSDOF 6
ENDMDL
MODEL 3
REMARK VINA RESULT:   -34.615      4.175      5.425
REMARK INTER + INTRA:         -37.247
REMARK INTER:                 -36.405
REMARK INTRA:                  -0.841
REMARK CONF_INDEPENDENT:        1.790
REMARK UNBOUND:                -0.841
REMARK  6 active torsions:
REMARK  status: ('A' for Active; 'I' for Inactive)
REMARK    1  A    between atoms: N1_1  and  C1_2 
REMARK    2  A    between atoms: C6_7  and  N2_8 
REMARK       I    between atoms: N2_8  and  C7_9 
REMARK    3  A    between atoms: C7_9  and  C8_11 
REMARK    4  A    between atoms: C11_14  and  C12_15 
REMARK    5  A    between atoms: C12_15  and  N3_16 
REMARK    6  A    between atoms: N3_16  and  C13_17 
ROOT
ATOM      1  C8  NON d   1     -43.889  17.975  -4.744  0.00  0.00     0.032 A 
ATOM      2  C9  NON d   1     -43.505  19.130  -5.439  0.00  0.00     0.017 A 
ATOM      3  C10 NON d   1     -42.166  19.532  -5.503  0.00  0.00     0.010 A 
ATOM      4  C11 NON d   1     -41.160  18.796  -4.864  0.00  0.00    -0.040 A 
ATOM      5  C20 NON d   1     -41.551  17.642  -4.160  0.00  0.00     0.010 A 
ATOM      6  C21 NON d   1     -42.895  17.230  -4.102  0.00  0.00     0.017 A 
ENDROOT
BRANCH   1   7
ATOM      7  C7  NON d   1     -45.350  17.620  -4.770  0.00  0.00     0.256 C 
ATOM      8  N2  NON d   1     -45.893  17.068  -3.626  0.00  0.00    -0.321 N 
ATOM      9  H7  NON d   1     -45.328  16.968  -2.795  0.00  0.00     0.169 HD
ATOM     10  O1  NON d   1     -45.967  17.830  -5.811  0.00  0.00    -0.267 OA
BRANCH   8  11
ATOM     11  C6  NON d   1     -47.243  16.685  -3.416  0.00  0.00     0.056 A 
ATOM     12  C5  NON d   1     -47.890  16.754  -2.178  0.00  0.00     0.031 A 
ATOM     13  C4  NON d   1     -49.198  16.286  -2.032  0.00  0.00     0.002 A 
ATOM     14  C3  NON d   1     -49.869  15.735  -3.120  0.00  0.00     0.002 A 
ATOM     15  C2  NON d   1     -49.242  15.670  -4.363  0.00  0.00     0.025 A 
ATOM     16  C1  NON d   1     -47.947  16.177  -4.531  0.00  0.00     0.033 A 
BRANCH  16  17
ATOM     17  N1  NON d   1     -47.336  16.130  -5.810  0.00  0.00    -0.301 NA
ATOM     18  H1  NON d   1     -47.341  17.041  -6.263  0.00  0.00     0.124 HD
ATOM     19  H2  NON d   1     -46.379  15.795  -5.722  0.00  0.00     0.124 HD
ENDBRANCH  16  17
ENDBRANCH   8  11
ENDBRANCH   1   7
BRANCH   4  20
ATOM     20  C12 NON d   1     -39.690  19.194  -4.864  0.00  0.00     0.161 C 
BRANCH  20  21
ATOM     21  N3  NON d   1     -39.066  19.086  -6.168  0.00  0.00    -0.350 N 
ATOM     22  H12 NON d   1     -39.129  18.175  -6.601  0.00  0.00     0.163 HD
BRANCH  21  23
ATOM     23  C13 NON d   1     -39.187  20.071  -7.072  0.00  0.00     0.248 A 
ATOM     24  N4  NON d   1     -39.017  19.950  -8.369  0.00  0.00    -0.206 NA
ATOM     25  C14 NON d   1     -39.263  21.207  -8.853  0.00  0.00     0.096 A 
ATOM     26  C15 NON d   1     -39.231  21.707 -10.159  0.00  0.00     0.058 A 
ATOM     27  C19 NON d   1     -39.599  22.051  -7.807  0.00  0.00     0.108 A 
ATOM     28  C16 NON d   1     -39.558  23.056 -10.342  0.00  0.00     0.036 A 
ATOM     29 Cl1  NON d   1     -39.535  23.713 -11.935  0.00  0.00    -0.084 Cl
ATOM     30  C17 NON d   1     -39.904  23.882  -9.265  0.00  0.00     0.026 A 
ATOM     31  C18 NON d   1     -39.931  23.392  -7.951  0.00  0.00     0.041 A 
ATOM     32  O2  NON d   1     -39.544  21.323  -6.651  0.00  0.00    -0.276 OA
ENDBRANCH  21  23
ENDBRANCH  20  21
ENDBRANCH   4  20
TORSDOF 6
ENDMDL
