MODEL 1
REMARK VINA RESULT:   -10.880      0.000      0.000
REMARK INTER + INTRA:         -11.710
REMARK INTER:                 -11.178
REMARK INTRA:                  -0.532
REMARK CONF_INDEPENDENT:        0.298
REMARK UNBOUND:                -0.532
REMARK  1 active torsions:
REMARK  status: ('A' for Active; 'I' for Inactive)
REMARK    1  A    between atoms: O1_1  and  C1_2 
ROOT
ATOM      1  C1  NON d   1     -47.441  15.576  -5.242  0.00  0.00     0.134 A 
ATOM      2  C2  NON d   1     -48.241  15.144  -4.250  0.00  0.00     0.043 A 
ATOM      3  C3  NON d   1     -48.221  15.765  -2.944  0.00  0.00     0.020 A 
ATOM      4  C4  NON d   1     -47.396  16.790  -2.704  0.00  0.00     0.091 A 
ATOM      5  N1  NON d   1     -46.567  17.255  -3.691  0.00  0.00    -0.331 N 
ATOM      6  C5  NON d   1     -46.511  16.733  -4.965  0.00  0.00     0.278 A 
ATOM      7  O2  NON d   1     -45.748  17.191  -5.810  0.00  0.00    -0.265 OA
ATOM      8  H5  NON d   1     -45.941  18.030  -3.514  0.00  0.00     0.168 HD
ENDROOT
BRANCH   1   9
ATOM      9  O1  NON d   1     -47.435  15.005  -6.499  0.00  0.00    -0.356 OA
ATOM     10  H1  NON d   1     -46.833  15.510  -7.068  0.00  0.00     0.218 HD
ENDBRANCH   1   9
TORSDOF 1
ENDMDL
MODEL 2
REMARK VINA RESULT:   -10.238      1.124      2.217
REMARK INTER + INTRA:         -11.036
REMARK INTER:                 -10.536
REMARK INTRA:                  -0.500
REMARK CONF_INDEPENDENT:        0.298
REMARK UNBOUND:                -0.500
REMARK  1 active torsions:
REMARK  status: ('A' for Active; 'I' for Inactive)
REMARK    1  A    between atoms: O1_1  and  C1_2 
ROOT
ATOM      1  C1  NON d   1     -46.515  16.511  -4.814  0.00  0.00     0.134 A 
ATOM      2  C2  NON d   1     -46.440  17.076  -3.596  0.00  0.00     0.043 A 
ATOM      3  C3  NON d   1     -47.427  16.796  -2.576  0.00  0.00     0.020 A 
ATOM      4  C4  NON d   1     -48.438  15.960  -2.835  0.00  0.00     0.091 A 
ATOM      5  N1  NON d   1     -48.544  15.366  -4.066  0.00  0.00    -0.331 N 
ATOM      6  C5  NON d   1     -47.658  15.568  -5.102  0.00  0.00     0.278 A 
ATOM      7  O2  NON d   1     -47.804  15.008  -6.185  0.00  0.00    -0.265 OA
ATOM      8  H5  NON d   1     -49.308  14.733  -4.267  0.00  0.00     0.168 HD
ENDROOT
BRANCH   1   9
ATOM      9  O1  NON d   1     -45.590  16.757  -5.810  0.00  0.00    -0.356 OA
ATOM     10  H1  NON d   1     -45.941  16.424  -6.651  0.00  0.00     0.218 HD
ENDBRANCH   1   9
TORSDOF 1
ENDMDL
MODEL 3
REMARK VINA RESULT:    -8.361      2.108      3.358
REMARK INTER + INTRA:          -9.175
REMARK INTER:                  -8.659
REMARK INTRA:                  -0.516
REMARK CONF_INDEPENDENT:        0.298
REMARK UNBOUND:                -0.516
REMARK  1 active torsions:
REMARK  status: ('A' for Active; 'I' for Inactive)
REMARK    1  A    between atoms: O1_1  and  C1_2 
ROOT
ATOM      1  C1  NON d   1     -45.464  17.945  -5.736  0.00  0.00     0.134 A 
ATOM      2  C2  NON d   1     -44.367  18.502  -5.192  0.00  0.00     0.043 A 
ATOM      3  C3  NON d   1     -43.822  18.021  -3.941  0.00  0.00     0.020 A 
ATOM      4  C4  NON d   1     -44.410  17.004  -3.303  0.00  0.00     0.091 A 
ATOM      5  N1  NON d   1     -45.528  16.412  -3.829  0.00  0.00    -0.331 N 
ATOM      6  C5  NON d   1     -46.124  16.796  -5.012  0.00  0.00     0.278 A 
ATOM      7  O2  NON d   1     -47.126  16.229  -5.435  0.00  0.00    -0.265 OA
ATOM      8  H5  NON d   1     -45.977  15.642  -3.350  0.00  0.00     0.168 HD
ENDROOT
BRANCH   1   9
ATOM      9  O1  NON d   1     -46.009  18.380  -6.928  0.00  0.00    -0.356 OA
ATOM     10  H1  NON d   1     -46.689  17.747  -7.209  0.00  0.00     0.218 HD
ENDBRANCH   1   9
TORSDOF 1
ENDMDL
MODEL 4
REMARK VINA RESULT:    -8.068      2.319      2.943
REMARK INTER + INTRA:          -8.890
REMARK INTER:                  -8.367
REMARK INTRA:                  -0.524
REMARK CONF_INDEPENDENT:        0.298
REMARK UNBOUND:                -0.524
REMARK  1 active torsions:
REMARK  status: ('A' for Active; 'I' for Inactive)
REMARK    1  A    between atoms: O1_1  and  C1_2 
ROOT
ATOM      1  C1  NON d   1     -45.979  16.815  -5.011  0.00  0.00     0.134 A 
ATOM      2  C2  NON d   1     -45.272  16.505  -3.911  0.00  0.00     0.043 A 
ATOM      3  C3  NON d   1     -44.138  17.302  -3.497  0.00  0.00     0.020 A 
ATOM      4  C4  NON d   1     -43.775  18.371  -4.213  0.00  0.00     0.091 A 
ATOM      5  N1  NON d   1     -44.473  18.717  -5.340  0.00  0.00    -0.331 N 
ATOM      6  C5  NON d   1     -45.565  18.024  -5.817  0.00  0.00     0.278 A 
ATOM      7  O2  NON d   1     -46.153  18.380  -6.834  0.00  0.00    -0.265 OA
ATOM      8  H5  NON d   1     -44.203  19.525  -5.885  0.00  0.00     0.168 HD
ENDROOT
BRANCH   1   9
ATOM      9  O1  NON d   1     -47.066  16.076  -5.434  0.00  0.00    -0.356 OA
ATOM     10  H1  NON d   1     -47.350  16.407  -6.301  0.00  0.00     0.218 HD
ENDBRANCH   1   9
TORSDOF 1
ENDMDL
