MODEL 1
REMARK VINA RESULT:   -28.612      0.000      0.000
REMARK INTER + INTRA:         -30.686
REMARK INTER:                 -30.103
REMARK INTRA:                  -0.583
REMARK CONF_INDEPENDENT:        1.492
REMARK UNBOUND:                -0.583
REMARK  5 active torsions:
REMARK  status: ('A' for Active; 'I' for Inactive)
REMARK    1  A    between atoms: N1_2  and  C2_3 
REMARK       I    between atoms: N1_2  and  C11_14 
REMARK    2  A    between atoms: C2_3  and  C3_4 
REMARK    3  A    between atoms: C11_14  and  C12_16 
REMARK    4  A    between atoms: C15_19  and  C16_20 
REMARK    5  A    between atoms: C16_20  and  C17_22 
ROOT
ATOM      1  C1  NON d   1     -40.866  20.207  -3.501  0.00  0.00     0.153 C 
ATOM      2  N1  NON d   1     -41.686  19.206  -4.178  0.00  0.00    -0.348 N 
ATOM      3  C11 NON d   1     -41.260  18.604  -5.384  0.00  0.00     0.260 C 
ATOM      4  O1  NON d   1     -41.659  17.475  -5.681  0.00  0.00    -0.267 OA
ENDROOT
BRANCH   2   5
ATOM      5  C2  NON d   1     -42.583  18.371  -3.376  0.00  0.00     0.164 C 
BRANCH   5   6
ATOM      6  C3  NON d   1     -43.866  17.851  -3.983  0.00  0.00    -0.038 A 
ATOM      7  C4  NON d   1     -44.272  18.388  -5.212  0.00  0.00     0.011 A 
ATOM      8  C5  NON d   1     -45.475  17.996  -5.801  0.00  0.00     0.034 A 
ATOM      9  C6  NON d   1     -46.299  17.065  -5.195  0.00  0.00     0.085 A 
ATOM     10  N2  NON d   1     -47.440  16.697  -5.810  0.00  0.00    -0.257 NA
ATOM     11  C9  NON d   1     -45.920  16.525  -3.940  0.00  0.00     0.085 A 
ATOM     12  C7  NON d   1     -48.196  15.779  -5.172  0.00  0.00     0.136 A 
ATOM     13  C8  NON d   1     -47.827  15.247  -3.954  0.00  0.00     0.136 A 
ATOM     14  N3  NON d   1     -46.691  15.610  -3.318  0.00  0.00    -0.257 NA
ATOM     15  C10 NON d   1     -44.729  16.946  -3.348  0.00  0.00     0.043 A 
ENDBRANCH   5   6
ENDBRANCH   2   5
BRANCH   3  16
ATOM     16  C12 NON d   1     -40.357  19.336  -6.267  0.00  0.00     0.073 A 
ATOM     17  C13 NON d   1     -38.987  19.502  -6.221  0.00  0.00     0.026 A 
ATOM     18  C14 NON d   1     -38.507  20.374  -7.250  0.00  0.00     0.024 A 
ATOM     19  C15 NON d   1     -39.524  20.863  -8.051  0.00  0.00     0.061 A 
ATOM     20  S1  NON d   1     -41.040  20.230  -7.561  0.00  0.00    -0.081 SA
BRANCH  19  21
ATOM     21  C16 NON d   1     -39.483  21.799  -9.179  0.00  0.00     0.272 C 
ATOM     22  O2  NON d   1     -39.408  21.428 -10.355  0.00  0.00    -0.282 OA
BRANCH  21  23
ATOM     23  C17 NON d   1     -39.508  23.283  -8.821  0.00  0.00     0.456 C 
ATOM     24  F1  NON d   1     -40.168  23.516  -7.649  0.00  0.00    -0.163 F 
ATOM     25  F2  NON d   1     -38.268  23.828  -8.674  0.00  0.00    -0.163 F 
ATOM     26  F3  NON d   1     -40.142  24.042  -9.762  0.00  0.00    -0.163 F 
ENDBRANCH  21  23
ENDBRANCH  19  21
ENDBRANCH   3  16
TORSDOF 5
ENDMDL
MODEL 2
REMARK VINA RESULT:   -27.791      2.437      2.749
REMARK INTER + INTRA:         -29.863
REMARK INTER:                 -29.283
REMARK INTRA:                  -0.581
REMARK CONF_INDEPENDENT:        1.492
REMARK UNBOUND:                -0.581
REMARK  5 active torsions:
REMARK  status: ('A' for Active; 'I' for Inactive)
REMARK    1  A    between atoms: N1_2  and  C2_3 
REMARK       I    between atoms: N1_2  and  C11_14 
REMARK    2  A    between atoms: C2_3  and  C3_4 
REMARK    3  A    between atoms: C11_14  and  C12_16 
REMARK    4  A    between atoms: C15_19  and  C16_20 
REMARK    5  A    between atoms: C16_20  and  C17_22 
ROOT
ATOM      1  C1  NON d   1     -41.915  20.029  -4.583  0.00  0.00     0.153 C 
ATOM      2  N1  NON d   1     -41.732  18.685  -4.043  0.00  0.00    -0.348 N 
ATOM      3  C11 NON d   1     -40.441  18.173  -3.775  0.00  0.00     0.260 C 
ATOM      4  O1  NON d   1     -40.292  17.308  -2.908  0.00  0.00    -0.267 OA
ENDROOT
BRANCH   2   5
ATOM      5  C2  NON d   1     -42.789  18.110  -3.209  0.00  0.00     0.164 C 
BRANCH   5   6
ATOM      6  C3  NON d   1     -44.065  17.614  -3.850  0.00  0.00    -0.038 A 
ATOM      7  C4  NON d   1     -44.337  18.021  -5.163  0.00  0.00     0.011 A 
ATOM      8  C5  NON d   1     -45.523  17.649  -5.796  0.00  0.00     0.034 A 
ATOM      9  C6  NON d   1     -46.463  16.863  -5.152  0.00  0.00     0.085 A 
ATOM     10  N2  NON d   1     -47.583  16.505  -5.809  0.00  0.00    -0.257 NA
ATOM     11  C9  NON d   1     -46.219  16.457  -3.816  0.00  0.00     0.085 A 
ATOM     12  C7  NON d   1     -48.456  15.733  -5.128  0.00  0.00     0.136 A 
ATOM     13  C8  NON d   1     -48.219  15.331  -3.830  0.00  0.00     0.136 A 
ATOM     14  N3  NON d   1     -47.105  15.686  -3.153  0.00  0.00    -0.257 NA
ATOM     15  C10 NON d   1     -45.042  16.861  -3.184  0.00  0.00     0.043 A 
ENDBRANCH   5   6
ENDBRANCH   2   5
BRANCH   3  16
ATOM     16  C12 NON d   1     -39.302  18.674  -4.538  0.00  0.00     0.073 A 
ATOM     17  C13 NON d   1     -38.036  19.043  -4.132  0.00  0.00     0.026 A 
ATOM     18  C14 NON d   1     -37.246  19.561  -5.208  0.00  0.00     0.024 A 
ATOM     19  C15 NON d   1     -37.933  19.584  -6.409  0.00  0.00     0.061 A 
ATOM     20  S1  NON d   1     -39.513  18.948  -6.217  0.00  0.00    -0.081 SA
BRANCH  19  21
ATOM     21  C16 NON d   1     -37.522  20.062  -7.733  0.00  0.00     0.272 C 
ATOM     22  O2  NON d   1     -37.431  21.261  -8.014  0.00  0.00    -0.282 OA
BRANCH  21  23
ATOM     23  C17 NON d   1     -37.234  18.985  -8.776  0.00  0.00     0.456 C 
ATOM     24  F1  NON d   1     -36.219  18.157  -8.392  0.00  0.00    -0.163 F 
ATOM     25  F2  NON d   1     -38.302  18.180  -9.036  0.00  0.00    -0.163 F 
ATOM     26  F3  NON d   1     -36.854  19.504  -9.981  0.00  0.00    -0.163 F 
ENDBRANCH  21  23
ENDBRANCH  19  21
ENDBRANCH   3  16
TORSDOF 5
ENDMDL
MODEL 3
REMARK VINA RESULT:   -26.625      2.168      2.296
REMARK INTER + INTRA:         -28.499
REMARK INTER:                 -28.116
REMARK INTRA:                  -0.383
REMARK CONF_INDEPENDENT:        1.492
REMARK UNBOUND:                -0.383
REMARK  5 active torsions:
REMARK  status: ('A' for Active; 'I' for Inactive)
REMARK    1  A    between atoms: N1_2  and  C2_3 
REMARK       I    between atoms: N1_2  and  C11_14 
REMARK    2  A    between atoms: C2_3  and  C3_4 
REMARK    3  A    between atoms: C11_14  and  C12_16 
REMARK    4  A    between atoms: C15_19  and  C16_20 
REMARK    5  A    between atoms: C16_20  and  C17_22 
ROOT
ATOM      1  C1  NON d   1     -42.198  19.986  -4.818  0.00  0.00     0.153 C 
ATOM      2  N1  NON d   1     -41.836  18.770  -4.096  0.00  0.00    -0.348 N 
ATOM      3  C11 NON d   1     -40.505  18.533  -3.680  0.00  0.00     0.260 C 
ATOM      4  O1  NON d   1     -40.287  17.818  -2.700  0.00  0.00    -0.267 OA
ENDROOT
BRANCH   2   5
ATOM      5  C2  NON d   1     -42.848  18.117  -3.264  0.00  0.00     0.164 C 
BRANCH   5   6
ATOM      6  C3  NON d   1     -44.129  17.617  -3.892  0.00  0.00    -0.038 A 
ATOM      7  C4  NON d   1     -44.431  18.049  -5.190  0.00  0.00     0.011 A 
ATOM      8  C5  NON d   1     -45.624  17.674  -5.810  0.00  0.00     0.034 A 
ATOM      9  C6  NON d   1     -46.540  16.861  -5.166  0.00  0.00     0.085 A 
ATOM     10  N2  NON d   1     -47.668  16.502  -5.810  0.00  0.00    -0.257 NA
ATOM     11  C9  NON d   1     -46.266  16.429  -3.844  0.00  0.00     0.085 A 
ATOM     12  C7  NON d   1     -48.516  15.702  -5.132  0.00  0.00     0.136 A 
ATOM     13  C8  NON d   1     -48.250  15.274  -3.848  0.00  0.00     0.136 A 
ATOM     14  N3  NON d   1     -47.128  15.630  -3.183  0.00  0.00    -0.257 NA
ATOM     15  C10 NON d   1     -45.083  16.835  -3.226  0.00  0.00     0.043 A 
ENDBRANCH   5   6
ENDBRANCH   2   5
BRANCH   3  16
ATOM     16  C12 NON d   1     -39.407  19.138  -4.427  0.00  0.00     0.073 A 
ATOM     17  C13 NON d   1     -38.334  18.563  -5.079  0.00  0.00     0.026 A 
ATOM     18  C14 NON d   1     -37.437  19.538  -5.622  0.00  0.00     0.024 A 
ATOM     19  C15 NON d   1     -37.842  20.835  -5.364  0.00  0.00     0.061 A 
ATOM     20  S1  NON d   1     -39.319  20.848  -4.493  0.00  0.00    -0.081 SA
BRANCH  19  21
ATOM     21  C16 NON d   1     -37.211  22.116  -5.700  0.00  0.00     0.272 C 
ATOM     22  O2  NON d   1     -36.269  22.587  -5.055  0.00  0.00    -0.282 OA
BRANCH  21  23
ATOM     23  C17 NON d   1     -37.805  22.865  -6.890  0.00  0.00     0.456 C 
ATOM     24  F1  NON d   1     -37.953  24.198  -6.635  0.00  0.00    -0.163 F 
ATOM     25  F2  NON d   1     -37.049  22.777  -8.020  0.00  0.00    -0.163 F 
ATOM     26  F3  NON d   1     -39.046  22.412  -7.233  0.00  0.00    -0.163 F 
ENDBRANCH  21  23
ENDBRANCH  19  21
ENDBRANCH   3  16
TORSDOF 5
ENDMDL
MODEL 4
REMARK VINA RESULT:   -26.387      3.905      4.867
REMARK INTER + INTRA:         -27.854
REMARK INTER:                 -27.879
REMARK INTRA:                   0.025
REMARK CONF_INDEPENDENT:        1.492
REMARK UNBOUND:                 0.025
REMARK  5 active torsions:
REMARK  status: ('A' for Active; 'I' for Inactive)
REMARK    1  A    between atoms: N1_2  and  C2_3 
REMARK       I    between atoms: N1_2  and  C11_14 
REMARK    2  A    between atoms: C2_3  and  C3_4 
REMARK    3  A    between atoms: C11_14  and  C12_16 
REMARK    4  A    between atoms: C15_19  and  C16_20 
REMARK    5  A    between atoms: C16_20  and  C17_22 
ROOT
ATOM      1  C1  NON d   1     -41.358  18.828  -3.637  0.00  0.00     0.153 C 
ATOM      2  N1  NON d   1     -41.860  19.668  -4.720  0.00  0.00    -0.348 N 
ATOM      3  C11 NON d   1     -41.044  20.652  -5.323  0.00  0.00     0.260 C 
ATOM      4  O1  NON d   1     -41.256  20.996  -6.488  0.00  0.00    -0.267 OA
ENDROOT
BRANCH   2   5
ATOM      5  C2  NON d   1     -42.904  19.135  -5.599  0.00  0.00     0.164 C 
BRANCH   5   6
ATOM      6  C3  NON d   1     -44.012  18.286  -5.020  0.00  0.00    -0.038 A 
ATOM      7  C4  NON d   1     -43.805  17.716  -3.756  0.00  0.00     0.011 A 
ATOM      8  C5  NON d   1     -44.761  16.874  -3.186  0.00  0.00     0.034 A 
ATOM      9  C6  NON d   1     -45.942  16.581  -3.846  0.00  0.00     0.085 A 
ATOM     10  N2  NON d   1     -46.849  15.784  -3.249  0.00  0.00    -0.257 NA
ATOM     11  C9  NON d   1     -46.163  17.129  -5.134  0.00  0.00     0.085 A 
ATOM     12  C7  NON d   1     -47.982  15.543  -3.940  0.00  0.00     0.136 A 
ATOM     13  C8  NON d   1     -48.204  16.080  -5.192  0.00  0.00     0.136 A 
ATOM     14  N3  NON d   1     -47.303  16.874  -5.810  0.00  0.00    -0.257 NA
ATOM     15  C10 NON d   1     -45.186  17.946  -5.705  0.00  0.00     0.043 A 
ENDBRANCH   5   6
ENDBRANCH   2   5
BRANCH   3  16
ATOM     16  C12 NON d   1     -39.963  21.255  -4.548  0.00  0.00     0.073 A 
ATOM     17  C13 NON d   1     -38.603  21.018  -4.561  0.00  0.00     0.026 A 
ATOM     18  C14 NON d   1     -37.906  21.782  -3.570  0.00  0.00     0.024 A 
ATOM     19  C15 NON d   1     -38.753  22.577  -2.818  0.00  0.00     0.061 A 
ATOM     20  S1  NON d   1     -40.375  22.406  -3.347  0.00  0.00    -0.081 SA
BRANCH  19  21
ATOM     21  C16 NON d   1     -38.470  23.475  -1.694  0.00  0.00     0.272 C 
ATOM     22  O2  NON d   1     -38.747  24.678  -1.712  0.00  0.00    -0.282 OA
BRANCH  21  23
ATOM     23  C17 NON d   1     -37.776  22.844  -0.489  0.00  0.00     0.456 C 
ATOM     24  F1  NON d   1     -38.512  22.975   0.653  0.00  0.00    -0.163 F 
ATOM     25  F2  NON d   1     -37.537  21.511  -0.636  0.00  0.00    -0.163 F 
ATOM     26  F3  NON d   1     -36.565  23.414  -0.219  0.00  0.00    -0.163 F 
ENDBRANCH  21  23
ENDBRANCH  19  21
ENDBRANCH   3  16
TORSDOF 5
ENDMDL
MODEL 5
REMARK VINA RESULT:   -26.347      1.566      2.075
REMARK INTER + INTRA:         -28.401
REMARK INTER:                 -27.839
REMARK INTRA:                  -0.563
REMARK CONF_INDEPENDENT:        1.492
REMARK UNBOUND:                -0.563
REMARK  5 active torsions:
REMARK  status: ('A' for Active; 'I' for Inactive)
REMARK    1  A    between atoms: N1_2  and  C2_3 
REMARK       I    between atoms: N1_2  and  C11_14 
REMARK    2  A    between atoms: C2_3  and  C3_4 
REMARK    3  A    between atoms: C11_14  and  C12_16 
REMARK    4  A    between atoms: C15_19  and  C16_20 
REMARK    5  A    between atoms: C16_20  and  C17_22 
ROOT
ATOM      1  C1  NON d   1     -42.103  19.966  -4.490  0.00  0.00     0.153 C 
ATOM      2  N1  NON d   1     -41.946  18.905  -5.480  0.00  0.00    -0.348 N 
ATOM      3  C11 NON d   1     -40.918  18.954  -6.450  0.00  0.00     0.260 C 
ATOM      4  O1  NON d   1     -40.479  17.908  -6.933  0.00  0.00    -0.267 OA
ENDROOT
BRANCH   2   5
ATOM      5  C2  NON d   1     -42.380  17.550  -5.136  0.00  0.00     0.164 C 
BRANCH   5   6
ATOM      6  C3  NON d   1     -43.797  17.311  -4.666  0.00  0.00    -0.038 A 
ATOM      7  C4  NON d   1     -44.077  17.514  -3.308  0.00  0.00     0.011 A 
ATOM      8  C5  NON d   1     -45.349  17.257  -2.795  0.00  0.00     0.034 A 
ATOM      9  C6  NON d   1     -46.371  16.802  -3.608  0.00  0.00     0.085 A 
ATOM     10  N2  NON d   1     -47.591  16.590  -3.076  0.00  0.00    -0.257 NA
ATOM     11  C9  NON d   1     -46.105  16.569  -4.981  0.00  0.00     0.085 A 
ATOM     12  C7  NON d   1     -48.547  16.153  -3.923  0.00  0.00     0.136 A 
ATOM     13  C8  NON d   1     -48.292  15.932  -5.261  0.00  0.00     0.136 A 
ATOM     14  N3  NON d   1     -47.074  16.130  -5.811  0.00  0.00    -0.257 NA
ATOM     15  C10 NON d   1     -44.822  16.801  -5.476  0.00  0.00     0.043 A 
ENDBRANCH   5   6
ENDBRANCH   2   5
BRANCH   3  16
ATOM     16  C12 NON d   1     -40.397  20.251  -6.871  0.00  0.00     0.073 A 
ATOM     17  C13 NON d   1     -39.812  21.269  -6.144  0.00  0.00     0.026 A 
ATOM     18  C14 NON d   1     -39.515  22.415  -6.949  0.00  0.00     0.024 A 
ATOM     19  C15 NON d   1     -39.890  22.249  -8.270  0.00  0.00     0.061 A 
ATOM     20  S1  NON d   1     -40.567  20.694  -8.519  0.00  0.00    -0.081 SA
BRANCH  19  21
ATOM     21  C16 NON d   1     -39.804  23.170  -9.408  0.00  0.00     0.272 C 
ATOM     22  O2  NON d   1     -40.574  24.126  -9.555  0.00  0.00    -0.282 OA
BRANCH  21  23
ATOM     23  C17 NON d   1     -38.716  22.869 -10.436  0.00  0.00     0.456 C 
ATOM     24  F1  NON d   1     -38.853  23.626 -11.564  0.00  0.00    -0.163 F 
ATOM     25  F2  NON d   1     -37.455  23.097  -9.976  0.00  0.00    -0.163 F 
ATOM     26  F3  NON d   1     -38.732  21.570 -10.856  0.00  0.00    -0.163 F 
ENDBRANCH  21  23
ENDBRANCH  19  21
ENDBRANCH   3  16
TORSDOF 5
ENDMDL
MODEL 6
REMARK VINA RESULT:   -26.237      4.202      5.345
REMARK INTER + INTRA:         -28.449
REMARK INTER:                 -27.729
REMARK INTRA:                  -0.720
REMARK CONF_INDEPENDENT:        1.492
REMARK UNBOUND:                -0.720
REMARK  5 active torsions:
REMARK  status: ('A' for Active; 'I' for Inactive)
REMARK    1  A    between atoms: N1_2  and  C2_3 
REMARK       I    between atoms: N1_2  and  C11_14 
REMARK    2  A    between atoms: C2_3  and  C3_4 
REMARK    3  A    between atoms: C11_14  and  C12_16 
REMARK    4  A    between atoms: C15_19  and  C16_20 
REMARK    5  A    between atoms: C16_20  and  C17_22 
ROOT
ATOM      1  C1  NON d   1     -41.936  19.702  -5.240  0.00  0.00     0.153 C 
ATOM      2  N1  NON d   1     -41.516  18.404  -4.721  0.00  0.00    -0.348 N 
ATOM      3  C11 NON d   1     -40.824  18.293  -3.493  0.00  0.00     0.260 C 
ATOM      4  O1  NON d   1     -40.905  17.254  -2.834  0.00  0.00    -0.267 OA
ENDROOT
BRANCH   2   5
ATOM      5  C2  NON d   1     -42.298  17.218  -5.076  0.00  0.00     0.164 C 
BRANCH   5   6
ATOM      6  C3  NON d   1     -43.740  17.109  -4.633  0.00  0.00    -0.038 A 
ATOM      7  C4  NON d   1     -44.035  17.392  -3.293  0.00  0.00     0.011 A 
ATOM      8  C5  NON d   1     -45.333  17.256  -2.802  0.00  0.00     0.034 A 
ATOM      9  C6  NON d   1     -46.369  16.844  -3.622  0.00  0.00     0.085 A 
ATOM     10  N2  NON d   1     -47.613  16.749  -3.113  0.00  0.00    -0.257 NA
ATOM     11  C9  NON d   1     -46.091  16.531  -4.976  0.00  0.00     0.085 A 
ATOM     12  C7  NON d   1     -48.580  16.350  -3.966  0.00  0.00     0.136 A 
ATOM     13  C8  NON d   1     -48.314  16.050  -5.286  0.00  0.00     0.136 A 
ATOM     14  N3  NON d   1     -47.072  16.131  -5.811  0.00  0.00    -0.257 NA
ATOM     15  C10 NON d   1     -44.782  16.643  -5.447  0.00  0.00     0.043 A 
ENDBRANCH   5   6
ENDBRANCH   2   5
BRANCH   3  16
ATOM     16  C12 NON d   1     -40.014  19.415  -3.028  0.00  0.00     0.073 A 
ATOM     17  C13 NON d   1     -38.955  20.073  -3.623  0.00  0.00     0.026 A 
ATOM     18  C14 NON d   1     -38.389  21.078  -2.775  0.00  0.00     0.024 A 
ATOM     19  C15 NON d   1     -39.024  21.157  -1.547  0.00  0.00     0.061 A 
ATOM     20  S1  NON d   1     -40.314  20.032  -1.457  0.00  0.00    -0.081 SA
BRANCH  19  21
ATOM     21  C16 NON d   1     -38.748  22.008  -0.385  0.00  0.00     0.272 C 
ATOM     22  O2  NON d   1     -37.604  22.336  -0.052  0.00  0.00    -0.282 OA
BRANCH  21  23
ATOM     23  C17 NON d   1     -39.963  22.453   0.425  0.00  0.00     0.456 C 
ATOM     24  F1  NON d   1     -40.880  23.108  -0.345  0.00  0.00    -0.163 F 
ATOM     25  F2  NON d   1     -40.630  21.422   1.015  0.00  0.00    -0.163 F 
ATOM     26  F3  NON d   1     -39.639  23.315   1.432  0.00  0.00    -0.163 F 
ENDBRANCH  21  23
ENDBRANCH  19  21
ENDBRANCH   3  16
TORSDOF 5
ENDMDL
MODEL 7
REMARK VINA RESULT:   -25.984      2.935      3.500
REMARK INTER + INTRA:         -27.980
REMARK INTER:                 -27.476
REMARK INTRA:                  -0.504
REMARK CONF_INDEPENDENT:        1.492
REMARK UNBOUND:                -0.504
REMARK  5 active torsions:
REMARK  status: ('A' for Active; 'I' for Inactive)
REMARK    1  A    between atoms: N1_2  and  C2_3 
REMARK       I    between atoms: N1_2  and  C11_14 
REMARK    2  A    between atoms: C2_3  and  C3_4 
REMARK    3  A    between atoms: C11_14  and  C12_16 
REMARK    4  A    between atoms: C15_19  and  C16_20 
REMARK    5  A    between atoms: C16_20  and  C17_22 
ROOT
ATOM      1  C1  NON d   1     -42.031  19.518  -5.910  0.00  0.00     0.153 C 
ATOM      2  N1  NON d   1     -41.637  18.448  -4.999  0.00  0.00    -0.348 N 
ATOM      3  C11 NON d   1     -41.084  18.733  -3.729  0.00  0.00     0.260 C 
ATOM      4  O1  NON d   1     -41.209  17.922  -2.809  0.00  0.00    -0.267 OA
ENDROOT
BRANCH   2   5
ATOM      5  C2  NON d   1     -42.341  17.166  -5.071  0.00  0.00     0.164 C 
BRANCH   5   6
ATOM      6  C3  NON d   1     -43.785  17.077  -4.631  0.00  0.00    -0.038 A 
ATOM      7  C4  NON d   1     -44.079  17.373  -3.293  0.00  0.00     0.011 A 
ATOM      8  C5  NON d   1     -45.381  17.255  -2.804  0.00  0.00     0.034 A 
ATOM      9  C6  NON d   1     -46.419  16.850  -3.624  0.00  0.00     0.085 A 
ATOM     10  N2  NON d   1     -47.665  16.773  -3.118  0.00  0.00    -0.257 NA
ATOM     11  C9  NON d   1     -46.142  16.524  -4.975  0.00  0.00     0.085 A 
ATOM     12  C7  NON d   1     -48.635  16.379  -3.970  0.00  0.00     0.136 A 
ATOM     13  C8  NON d   1     -48.369  16.068  -5.287  0.00  0.00     0.136 A 
ATOM     14  N3  NON d   1     -47.125  16.130  -5.810  0.00  0.00    -0.257 NA
ATOM     15  C10 NON d   1     -44.831  16.618  -5.444  0.00  0.00     0.043 A 
ENDBRANCH   5   6
ENDBRANCH   2   5
BRANCH   3  16
ATOM     16  C12 NON d   1     -40.362  19.986  -3.530  0.00  0.00     0.073 A 
ATOM     17  C13 NON d   1     -39.108  20.233  -3.008  0.00  0.00     0.026 A 
ATOM     18  C14 NON d   1     -38.818  21.633  -2.920  0.00  0.00     0.024 A 
ATOM     19  C15 NON d   1     -39.863  22.422  -3.368  0.00  0.00     0.061 A 
ATOM     20  S1  NON d   1     -41.165  21.451  -3.917  0.00  0.00    -0.081 SA
BRANCH  19  21
ATOM     21  C16 NON d   1     -40.002  23.881  -3.419  0.00  0.00     0.272 C 
ATOM     22  O2  NON d   1     -40.456  24.543  -2.480  0.00  0.00    -0.282 OA
BRANCH  21  23
ATOM     23  C17 NON d   1     -39.577  24.550  -4.723  0.00  0.00     0.456 C 
ATOM     24  F1  NON d   1     -40.188  25.759  -4.902  0.00  0.00    -0.163 F 
ATOM     25  F2  NON d   1     -38.238  24.787  -4.802  0.00  0.00    -0.163 F 
ATOM     26  F3  NON d   1     -39.892  23.808  -5.825  0.00  0.00    -0.163 F 
ENDBRANCH  21  23
ENDBRANCH  19  21
ENDBRANCH   3  16
TORSDOF 5
ENDMDL
MODEL 8
REMARK VINA RESULT:   -25.916      2.784      3.456
REMARK INTER + INTRA:         -28.023
REMARK INTER:                 -27.407
REMARK INTRA:                  -0.616
REMARK CONF_INDEPENDENT:        1.492
REMARK UNBOUND:                -0.616
REMARK  5 active torsions:
REMARK  status: ('A' for Active; 'I' for Inactive)
REMARK    1  A    between atoms: N1_2  and  C2_3 
REMARK       I    between atoms: N1_2  and  C11_14 
REMARK    2  A    between atoms: C2_3  and  C3_4 
REMARK    3  A    between atoms: C11_14  and  C12_16 
REMARK    4  A    between atoms: C15_19  and  C16_20 
REMARK    5  A    between atoms: C16_20  and  C17_22 
ROOT
ATOM      1  C1  NON d   1     -41.017  18.210  -3.210  0.00  0.00     0.153 C 
ATOM      2  N1  NON d   1     -41.531  18.346  -4.569  0.00  0.00    -0.348 N 
ATOM      3  C11 NON d   1     -40.828  19.085  -5.549  0.00  0.00     0.260 C 
ATOM      4  O1  NON d   1     -40.966  18.809  -6.742  0.00  0.00    -0.267 OA
ENDROOT
BRANCH   2   5
ATOM      5  C2  NON d   1     -42.372  17.278  -5.115  0.00  0.00     0.164 C 
BRANCH   5   6
ATOM      6  C3  NON d   1     -43.807  17.145  -4.658  0.00  0.00    -0.038 A 
ATOM      7  C4  NON d   1     -44.092  17.414  -3.313  0.00  0.00     0.011 A 
ATOM      8  C5  NON d   1     -45.383  17.255  -2.810  0.00  0.00     0.034 A 
ATOM      9  C6  NON d   1     -46.422  16.835  -3.622  0.00  0.00     0.085 A 
ATOM     10  N2  NON d   1     -47.659  16.719  -3.102  0.00  0.00    -0.257 NA
ATOM     11  C9  NON d   1     -46.153  16.537  -4.982  0.00  0.00     0.085 A 
ATOM     12  C7  NON d   1     -48.629  16.313  -3.948  0.00  0.00     0.136 A 
ATOM     13  C8  NON d   1     -48.372  16.028  -5.273  0.00  0.00     0.136 A 
ATOM     14  N3  NON d   1     -47.137  16.130  -5.810  0.00  0.00    -0.257 NA
ATOM     15  C10 NON d   1     -44.851  16.672  -5.465  0.00  0.00     0.043 A 
ENDBRANCH   5   6
ENDBRANCH   2   5
BRANCH   3  16
ATOM     16  C12 NON d   1     -39.950  20.173  -5.127  0.00  0.00     0.073 A 
ATOM     17  C13 NON d   1     -38.673  20.152  -4.604  0.00  0.00     0.026 A 
ATOM     18  C14 NON d   1     -38.206  21.458  -4.248  0.00  0.00     0.024 A 
ATOM     19  C15 NON d   1     -39.143  22.445  -4.499  0.00  0.00     0.061 A 
ATOM     20  S1  NON d   1     -40.561  21.774  -5.191  0.00  0.00    -0.081 SA
BRANCH  19  21
ATOM     21  C16 NON d   1     -39.094  23.890  -4.255  0.00  0.00     0.272 C 
ATOM     22  O2  NON d   1     -38.176  24.607  -4.666  0.00  0.00    -0.282 OA
BRANCH  21  23
ATOM     23  C17 NON d   1     -40.239  24.470  -3.429  0.00  0.00     0.456 C 
ATOM     24  F1  NON d   1     -39.870  25.608  -2.770  0.00  0.00    -0.163 F 
ATOM     25  F2  NON d   1     -41.333  24.798  -4.171  0.00  0.00    -0.163 F 
ATOM     26  F3  NON d   1     -40.683  23.611  -2.465  0.00  0.00    -0.163 F 
ENDBRANCH  21  23
ENDBRANCH  19  21
ENDBRANCH   3  16
TORSDOF 5
ENDMDL
