MODEL 1
REMARK VINA RESULT:   -17.937      0.000      0.000
REMARK INTER + INTRA:         -21.769
REMARK INTER:                 -20.622
REMARK INTRA:                  -1.147
REMARK CONF_INDEPENDENT:        2.685
REMARK UNBOUND:                -1.147
REMARK  9 active torsions:
REMARK  status: ('A' for Active; 'I' for Inactive)
REMARK    1  A    between atoms: C1_2  and  C2_3 
REMARK       I    between atoms: C1_2  and  N1_16 
REMARK    2  A    between atoms: C2_3  and  C3_4 
REMARK    3  A    between atoms: C3_4  and  C4_5 
REMARK    4  A    between atoms: C4_5  and  C5_6 
REMARK    5  A    between atoms: C5_6  and  C6_7 
REMARK    6  A    between atoms: C6_7  and  C7_8 
REMARK    7  A    between atoms: C7_8  and  C8_9 
REMARK    8  A    between atoms: C8_9  and  C9_11 
REMARK    9  A    between atoms: N1_16  and  O3_17 
ROOT
ATOM      1  C5  NON d   1     -49.289  16.694  -1.995  0.00  0.00     0.000 C 
ENDROOT
BRANCH   1   2
ATOM      2  C4  NON d   1     -50.576  16.478  -2.799  0.00  0.00     0.000 C 
BRANCH   2   3
ATOM      3  C3  NON d   1     -51.812  17.109  -2.149  0.00  0.00     0.009 C 
BRANCH   3   4
ATOM      4  C2  NON d   1     -53.092  16.331  -2.454  0.00  0.00     0.105 C 
BRANCH   4   5
ATOM      5  C1  NON d   1     -54.347  17.185  -2.525  0.00  0.00     0.240 C 
ATOM      6  O1  NON d   1     -54.961  17.423  -3.560  0.00  0.00    -0.271 OA
ATOM      7  N1  NON d   1     -54.667  17.717  -1.284  0.00  0.00    -0.237 N 
ATOM      8  H16 NON d   1     -54.381  17.230  -0.441  0.00  0.00     0.197 HD
BRANCH   7   9
ATOM      9  O3  NON d   1     -55.908  18.380  -1.206  0.00  0.00    -0.287 OA
ATOM     10  H17 NON d   1     -56.360  18.064  -2.011  0.00  0.00     0.244 HD
ENDBRANCH   7   9
ENDBRANCH   4   5
ENDBRANCH   3   4
ENDBRANCH   2   3
ENDBRANCH   1   2
BRANCH   1  11
ATOM     11  C6  NON d   1     -47.977  16.518  -2.779  0.00  0.00     0.008 C 
BRANCH  11  12
ATOM     12  C7  NON d   1     -47.984  15.409  -3.837  0.00  0.00     0.084 C 
BRANCH  12  13
ATOM     13  C8  NON d   1     -47.180  15.721  -5.097  0.00  0.00     0.166 C 
ATOM     14  O2  NON d   1     -47.375  15.094  -6.142  0.00  0.00    -0.292 OA
BRANCH  13  15
ATOM     15  C9  NON d   1     -46.153  16.760  -5.023  0.00  0.00     0.050 A 
ATOM     16  C10 NON d   1     -45.181  16.878  -4.043  0.00  0.00     0.023 A 
ATOM     17  C11 NON d   1     -44.334  18.005  -4.243  0.00  0.00     0.009 A 
ATOM     18  C12 NON d   1     -44.668  18.702  -5.381  0.00  0.00     0.050 A 
ATOM     19  S1  NON d   1     -46.008  18.007  -6.185  0.00  0.00    -0.098 SA
ENDBRANCH  13  15
ENDBRANCH  12  13
ENDBRANCH  11  12
ENDBRANCH   1  11
TORSDOF 9
ENDMDL
MODEL 2
REMARK VINA RESULT:   -17.504      5.942     10.018
REMARK INTER + INTRA:         -21.322
REMARK INTER:                 -20.188
REMARK INTRA:                  -1.134
REMARK CONF_INDEPENDENT:        2.685
REMARK UNBOUND:                -1.134
REMARK  9 active torsions:
REMARK  status: ('A' for Active; 'I' for Inactive)
REMARK    1  A    between atoms: C1_2  and  C2_3 
REMARK       I    between atoms: C1_2  and  N1_16 
REMARK    2  A    between atoms: C2_3  and  C3_4 
REMARK    3  A    between atoms: C3_4  and  C4_5 
REMARK    4  A    between atoms: C4_5  and  C5_6 
REMARK    5  A    between atoms: C5_6  and  C6_7 
REMARK    6  A    between atoms: C6_7  and  C7_8 
REMARK    7  A    between atoms: C7_8  and  C8_9 
REMARK    8  A    between atoms: C8_9  and  C9_11 
REMARK    9  A    between atoms: N1_16  and  O3_17 
ROOT
ATOM      1  C5  NON d   1     -42.161  17.949  -4.077  0.00  0.00     0.000 C 
ENDROOT
BRANCH   1   2
ATOM      2  C4  NON d   1     -40.983  18.742  -4.653  0.00  0.00     0.000 C 
BRANCH   2   3
ATOM      3  C3  NON d   1     -41.319  19.465  -5.961  0.00  0.00     0.009 C 
BRANCH   3   4
ATOM      4  C2  NON d   1     -40.091  19.659  -6.852  0.00  0.00     0.105 C 
BRANCH   4   5
ATOM      5  C1  NON d   1     -40.371  20.368  -8.167  0.00  0.00     0.240 C 
ATOM      6  O1  NON d   1     -41.007  19.878  -9.093  0.00  0.00    -0.271 OA
ATOM      7  N1  NON d   1     -39.755  21.612  -8.209  0.00  0.00    -0.237 N 
ATOM      8  H16 NON d   1     -39.569  22.109  -7.345  0.00  0.00     0.197 HD
BRANCH   7   9
ATOM      9  O3  NON d   1     -40.094  22.422  -9.311  0.00  0.00    -0.287 OA
ATOM     10  H17 NON d   1     -40.397  21.764  -9.965  0.00  0.00     0.244 HD
ENDBRANCH   7   9
ENDBRANCH   4   5
ENDBRANCH   3   4
ENDBRANCH   2   3
ENDBRANCH   1   2
BRANCH   1  11
ATOM     11  C6  NON d   1     -43.506  18.136  -4.798  0.00  0.00     0.008 C 
BRANCH  11  12
ATOM     12  C7  NON d   1     -44.623  17.176  -4.373  0.00  0.00     0.084 C 
BRANCH  12  13
ATOM     13  C8  NON d   1     -45.897  17.264  -5.211  0.00  0.00     0.166 C 
ATOM     14  O2  NON d   1     -45.949  17.991  -6.207  0.00  0.00    -0.292 OA
BRANCH  13  15
ATOM     15  C9  NON d   1     -47.061  16.489  -4.784  0.00  0.00     0.050 A 
ATOM     16  C10 NON d   1     -47.661  16.538  -3.536  0.00  0.00     0.023 A 
ATOM     17  C11 NON d   1     -48.771  15.653  -3.425  0.00  0.00     0.009 A 
ATOM     18  C12 NON d   1     -49.001  14.969  -4.597  0.00  0.00     0.050 A 
ATOM     19  S1  NON d   1     -47.869  15.385  -5.810  0.00  0.00    -0.098 SA
ENDBRANCH  13  15
ENDBRANCH  12  13
ENDBRANCH  11  12
ENDBRANCH   1  11
TORSDOF 9
ENDMDL
MODEL 3
REMARK VINA RESULT:   -17.263      5.902      9.697
REMARK INTER + INTRA:         -21.229
REMARK INTER:                 -19.947
REMARK INTRA:                  -1.282
REMARK CONF_INDEPENDENT:        2.685
REMARK UNBOUND:                -1.282
REMARK  9 active torsions:
REMARK  status: ('A' for Active; 'I' for Inactive)
REMARK    1  A    between atoms: C1_2  and  C2_3 
REMARK       I    between atoms: C1_2  and  N1_16 
REMARK    2  A    between atoms: C2_3  and  C3_4 
REMARK    3  A    between atoms: C3_4  and  C4_5 
REMARK    4  A    between atoms: C4_5  and  C5_6 
REMARK    5  A    between atoms: C5_6  and  C6_7 
REMARK    6  A    between atoms: C6_7  and  C7_8 
REMARK    7  A    between atoms: C7_8  and  C8_9 
REMARK    8  A    between atoms: C8_9  and  C9_11 
REMARK    9  A    between atoms: N1_16  and  O3_17 
ROOT
ATOM      1  C5  NON d   1     -42.305  17.332  -3.702  0.00  0.00     0.000 C 
ENDROOT
BRANCH   1   2
ATOM      2  C4  NON d   1     -41.230  17.968  -4.592  0.00  0.00     0.000 C 
BRANCH   2   3
ATOM      3  C3  NON d   1     -41.555  19.408  -5.002  0.00  0.00     0.009 C 
BRANCH   3   4
ATOM      4  C2  NON d   1     -40.472  20.018  -5.894  0.00  0.00     0.105 C 
BRANCH   4   5
ATOM      5  C1  NON d   1     -40.469  19.504  -7.324  0.00  0.00     0.240 C 
ATOM      6  O1  NON d   1     -41.058  20.047  -8.253  0.00  0.00    -0.271 OA
ATOM      7  N1  NON d   1     -39.776  18.306  -7.428  0.00  0.00    -0.237 N 
ATOM      8  H16 NON d   1     -39.035  18.097  -6.768  0.00  0.00     0.197 HD
BRANCH   7   9
ATOM      9  O3  NON d   1     -39.565  17.836  -8.740  0.00  0.00    -0.287 OA
ATOM     10  H17 NON d   1     -40.291  18.265  -9.231  0.00  0.00     0.244 HD
ENDBRANCH   7   9
ENDBRANCH   4   5
ENDBRANCH   3   4
ENDBRANCH   2   3
ENDBRANCH   1   2
BRANCH   1  11
ATOM     11  C6  NON d   1     -43.587  16.885  -4.422  0.00  0.00     0.008 C 
BRANCH  11  12
ATOM     12  C7  NON d   1     -44.703  17.933  -4.496  0.00  0.00     0.084 C 
BRANCH  12  13
ATOM     13  C8  NON d   1     -45.880  17.554  -5.392  0.00  0.00     0.166 C 
ATOM     14  O2  NON d   1     -45.972  18.003  -6.537  0.00  0.00    -0.292 OA
BRANCH  13  15
ATOM     15  C9  NON d   1     -46.910  16.671  -4.844  0.00  0.00     0.050 A 
ATOM     16  C10 NON d   1     -47.296  16.594  -3.516  0.00  0.00     0.023 A 
ATOM     17  C11 NON d   1     -48.319  15.627  -3.298  0.00  0.00     0.009 A 
ATOM     18  C12 NON d   1     -48.699  15.009  -4.467  0.00  0.00     0.050 A 
ATOM     19  S1  NON d   1     -47.811  15.584  -5.810  0.00  0.00    -0.098 SA
ENDBRANCH  13  15
ENDBRANCH  12  13
ENDBRANCH  11  12
ENDBRANCH   1  11
TORSDOF 9
ENDMDL
MODEL 4
REMARK VINA RESULT:   -16.596      5.743      9.366
REMARK INTER + INTRA:         -20.444
REMARK INTER:                 -19.281
REMARK INTRA:                  -1.163
REMARK CONF_INDEPENDENT:        2.685
REMARK UNBOUND:                -1.163
REMARK  9 active torsions:
REMARK  status: ('A' for Active; 'I' for Inactive)
REMARK    1  A    between atoms: C1_2  and  C2_3 
REMARK       I    between atoms: C1_2  and  N1_16 
REMARK    2  A    between atoms: C2_3  and  C3_4 
REMARK    3  A    between atoms: C3_4  and  C4_5 
REMARK    4  A    between atoms: C4_5  and  C5_6 
REMARK    5  A    between atoms: C5_6  and  C6_7 
REMARK    6  A    between atoms: C6_7  and  C7_8 
REMARK    7  A    between atoms: C7_8  and  C8_9 
REMARK    8  A    between atoms: C8_9  and  C9_11 
REMARK    9  A    between atoms: N1_16  and  O3_17 
ROOT
ATOM      1  C5  NON d   1     -42.150  18.388  -4.233  0.00  0.00     0.000 C 
ENDROOT
BRANCH   1   2
ATOM      2  C4  NON d   1     -42.145  17.680  -2.874  0.00  0.00     0.000 C 
BRANCH   2   3
ATOM      3  C3  NON d   1     -40.739  17.472  -2.302  0.00  0.00     0.009 C 
BRANCH   3   4
ATOM      4  C2  NON d   1     -39.729  18.475  -2.861  0.00  0.00     0.105 C 
BRANCH   4   5
ATOM      5  C1  NON d   1     -40.060  19.930  -2.576  0.00  0.00     0.240 C 
ATOM      6  O1  NON d   1     -40.571  20.693  -3.390  0.00  0.00    -0.271 OA
ATOM      7  N1  NON d   1     -39.646  20.302  -1.304  0.00  0.00    -0.237 N 
ATOM      8  H16 NON d   1     -39.578  19.601  -0.575  0.00  0.00     0.197 HD
BRANCH   7   9
ATOM      9  O3  NON d   1     -40.062  21.579  -0.877  0.00  0.00    -0.287 OA
ATOM     10  H17 NON d   1     -40.239  22.031  -1.724  0.00  0.00     0.244 HD
ENDBRANCH   7   9
ENDBRANCH   4   5
ENDBRANCH   3   4
ENDBRANCH   2   3
ENDBRANCH   1   2
BRANCH   1  11
ATOM     11  C6  NON d   1     -43.501  18.410  -4.968  0.00  0.00     0.008 C 
BRANCH  11  12
ATOM     12  C7  NON d   1     -44.463  17.271  -4.613  0.00  0.00     0.084 C 
BRANCH  12  13
ATOM     13  C8  NON d   1     -45.799  17.308  -5.353  0.00  0.00     0.166 C 
ATOM     14  O2  NON d   1     -45.948  18.013  -6.354  0.00  0.00    -0.292 OA
BRANCH  13  15
ATOM     15  C9  NON d   1     -46.905  16.510  -4.823  0.00  0.00     0.050 A 
ATOM     16  C10 NON d   1     -47.297  16.438  -3.496  0.00  0.00     0.023 A 
ATOM     17  C11 NON d   1     -48.403  15.564  -3.297  0.00  0.00     0.009 A 
ATOM     18  C12 NON d   1     -48.838  15.009  -4.479  0.00  0.00     0.050 A 
ATOM     19  S1  NON d   1     -47.901  15.531  -5.811  0.00  0.00    -0.098 SA
ENDBRANCH  13  15
ENDBRANCH  12  13
ENDBRANCH  11  12
ENDBRANCH   1  11
TORSDOF 9
ENDMDL
MODEL 5
REMARK VINA RESULT:   -16.329      5.615      9.296
REMARK INTER + INTRA:         -20.421
REMARK INTER:                 -19.014
REMARK INTRA:                  -1.407
REMARK CONF_INDEPENDENT:        2.685
REMARK UNBOUND:                -1.407
REMARK  9 active torsions:
REMARK  status: ('A' for Active; 'I' for Inactive)
REMARK    1  A    between atoms: C1_2  and  C2_3 
REMARK       I    between atoms: C1_2  and  N1_16 
REMARK    2  A    between atoms: C2_3  and  C3_4 
REMARK    3  A    between atoms: C3_4  and  C4_5 
REMARK    4  A    between atoms: C4_5  and  C5_6 
REMARK    5  A    between atoms: C5_6  and  C6_7 
REMARK    6  A    between atoms: C6_7  and  C7_8 
REMARK    7  A    between atoms: C7_8  and  C8_9 
REMARK    8  A    between atoms: C8_9  and  C9_11 
REMARK    9  A    between atoms: N1_16  and  O3_17 
ROOT
ATOM      1  C5  NON d   1     -42.340  17.673  -5.424  0.00  0.00     0.000 C 
ENDROOT
BRANCH   1   2
ATOM      2  C4  NON d   1     -42.695  19.164  -5.372  0.00  0.00     0.000 C 
BRANCH   2   3
ATOM      3  C3  NON d   1     -41.868  19.950  -4.351  0.00  0.00     0.009 C 
BRANCH   3   4
ATOM      4  C2  NON d   1     -40.415  19.476  -4.289  0.00  0.00     0.105 C 
BRANCH   4   5
ATOM      5  C1  NON d   1     -40.006  18.867  -2.958  0.00  0.00     0.240 C 
ATOM      6  O1  NON d   1     -39.432  19.482  -2.066  0.00  0.00    -0.271 OA
ATOM      7  N1  NON d   1     -40.302  17.511  -2.912  0.00  0.00    -0.237 N 
ATOM      8  H16 NON d   1     -41.064  17.146  -3.473  0.00  0.00     0.197 HD
BRANCH   7   9
ATOM      9  O3  NON d   1     -40.123  16.891  -1.660  0.00  0.00    -0.287 OA
ATOM     10  H17 NON d   1     -39.607  17.560  -1.171  0.00  0.00     0.244 HD
ENDBRANCH   7   9
ENDBRANCH   4   5
ENDBRANCH   3   4
ENDBRANCH   2   3
ENDBRANCH   1   2
BRANCH   1  11
ATOM     11  C6  NON d   1     -43.318  16.730  -4.703  0.00  0.00     0.008 C 
BRANCH  11  12
ATOM     12  C7  NON d   1     -44.599  17.385  -4.176  0.00  0.00     0.084 C 
BRANCH  12  13
ATOM     13  C8  NON d   1     -45.796  17.303  -5.121  0.00  0.00     0.166 C 
ATOM     14  O2  NON d   1     -45.805  17.926  -6.186  0.00  0.00    -0.292 OA
BRANCH  13  15
ATOM     15  C9  NON d   1     -46.943  16.490  -4.716  0.00  0.00     0.050 A 
ATOM     16  C10 NON d   1     -47.469  16.402  -3.437  0.00  0.00     0.023 A 
ATOM     17  C11 NON d   1     -48.581  15.517  -3.361  0.00  0.00     0.009 A 
ATOM     18  C12 NON d   1     -48.887  14.971  -4.586  0.00  0.00     0.050 A 
ATOM     19  S1  NON d   1     -47.823  15.514  -5.810  0.00  0.00    -0.098 SA
ENDBRANCH  13  15
ENDBRANCH  12  13
ENDBRANCH  11  12
ENDBRANCH   1  11
TORSDOF 9
ENDMDL
MODEL 6
REMARK VINA RESULT:   -15.221      5.761      9.652
REMARK INTER + INTRA:         -19.114
REMARK INTER:                 -17.906
REMARK INTRA:                  -1.209
REMARK CONF_INDEPENDENT:        2.685
REMARK UNBOUND:                -1.209
REMARK  9 active torsions:
REMARK  status: ('A' for Active; 'I' for Inactive)
REMARK    1  A    between atoms: C1_2  and  C2_3 
REMARK       I    between atoms: C1_2  and  N1_16 
REMARK    2  A    between atoms: C2_3  and  C3_4 
REMARK    3  A    between atoms: C3_4  and  C4_5 
REMARK    4  A    between atoms: C4_5  and  C5_6 
REMARK    5  A    between atoms: C5_6  and  C6_7 
REMARK    6  A    between atoms: C6_7  and  C7_8 
REMARK    7  A    between atoms: C7_8  and  C8_9 
REMARK    8  A    between atoms: C8_9  and  C9_11 
REMARK    9  A    between atoms: N1_16  and  O3_17 
ROOT
ATOM      1  C5  NON d   1     -42.313  18.808  -4.270  0.00  0.00     0.000 C 
ENDROOT
BRANCH   1   2
ATOM      2  C4  NON d   1     -41.248  18.321  -5.260  0.00  0.00     0.000 C 
BRANCH   2   3
ATOM      3  C3  NON d   1     -40.127  19.338  -5.496  0.00  0.00     0.009 C 
BRANCH   3   4
ATOM      4  C2  NON d   1     -39.604  19.942  -4.192  0.00  0.00     0.105 C 
BRANCH   4   5
ATOM      5  C1  NON d   1     -40.115  21.343  -3.896  0.00  0.00     0.240 C 
ATOM      6  O1  NON d   1     -40.092  21.864  -2.787  0.00  0.00    -0.271 OA
ATOM      7  N1  NON d   1     -40.675  21.924  -5.026  0.00  0.00    -0.237 N 
ATOM      8  H16 NON d   1     -40.358  21.638  -5.946  0.00  0.00     0.197 HD
BRANCH   7   9
ATOM      9  O3  NON d   1     -41.020  23.285  -4.903  0.00  0.00    -0.287 OA
ATOM     10  H17 NON d   1     -41.185  23.369  -3.944  0.00  0.00     0.244 HD
ENDBRANCH   7   9
ENDBRANCH   4   5
ENDBRANCH   3   4
ENDBRANCH   2   3
ENDBRANCH   1   2
BRANCH   1  11
ATOM     11  C6  NON d   1     -43.761  18.784  -4.786  0.00  0.00     0.008 C 
BRANCH  11  12
ATOM     12  C7  NON d   1     -44.465  17.425  -4.717  0.00  0.00     0.084 C 
BRANCH  12  13
ATOM     13  C8  NON d   1     -45.803  17.358  -5.450  0.00  0.00     0.166 C 
ATOM     14  O2  NON d   1     -45.989  18.004  -6.484  0.00  0.00    -0.292 OA
BRANCH  13  15
ATOM     15  C9  NON d   1     -46.866  16.534  -4.875  0.00  0.00     0.050 A 
ATOM     16  C10 NON d   1     -47.251  16.512  -3.544  0.00  0.00     0.023 A 
ATOM     17  C11 NON d   1     -48.312  15.594  -3.295  0.00  0.00     0.009 A 
ATOM     18  C12 NON d   1     -48.720  14.958  -4.445  0.00  0.00     0.050 A 
ATOM     19  S1  NON d   1     -47.813  15.457  -5.806  0.00  0.00    -0.098 SA
ENDBRANCH  13  15
ENDBRANCH  12  13
ENDBRANCH  11  12
ENDBRANCH   1  11
TORSDOF 9
ENDMDL
