MODEL 1
REMARK VINA RESULT:   -11.314      0.000      0.000
REMARK INTER + INTRA:         -14.901
REMARK INTER:                 -13.402
REMARK INTRA:                  -1.498
REMARK CONF_INDEPENDENT:        2.088
REMARK UNBOUND:                -1.498
REMARK  7 active torsions:
REMARK  status: ('A' for Active; 'I' for Inactive)
REMARK    1  A    between atoms: C1_2  and  C2_3 
REMARK       I    between atoms: C1_2  and  N1_12 
REMARK    2  A    between atoms: C2_3  and  C3_4 
REMARK    3  A    between atoms: C3_4  and  C4_5 
REMARK    4  A    between atoms: C4_5  and  C5_6 
REMARK    5  A    between atoms: N1_12  and  C11_13 
REMARK    6  A    between atoms: C13_15  and  C14_16 
REMARK    7  A    between atoms: C22_24  and  O2_25 
ROOT
ATOM      1  C11 NON d   1     -47.871  16.525  -3.779  0.00  0.00     0.069 A 
ATOM      2  C12 NON d   1     -48.937  17.027  -2.996  0.00  0.00     0.044 A 
ATOM      3  C13 NON d   1     -50.216  16.418  -2.961  0.00  0.00    -0.024 A 
ATOM      4  C20 NON d   1     -50.374  15.281  -3.777  0.00  0.00     0.015 A 
ATOM      5  C21 NON d   1     -49.320  14.733  -4.506  0.00  0.00     0.040 A 
ATOM      6  C22 NON d   1     -48.072  15.337  -4.477  0.00  0.00     0.092 A 
ENDROOT
BRANCH   1   7
ATOM      7  N1  NON d   1     -46.650  17.246  -3.758  0.00  0.00    -0.325 N 
ATOM      8  C1  NON d   1     -45.645  17.187  -4.712  0.00  0.00     0.222 C 
ATOM      9  O1  NON d   1     -45.736  16.630  -5.810  0.00  0.00    -0.273 OA
ATOM     10  H12 NON d   1     -46.584  18.000  -3.089  0.00  0.00     0.169 HD
BRANCH   8  11
ATOM     11  C2  NON d   1     -44.428  18.007  -4.308  0.00  0.00     0.103 C 
BRANCH  11  12
ATOM     12  C3  NON d   1     -43.335  17.206  -3.591  0.00  0.00     0.014 C 
BRANCH  12  13
ATOM     13  C4  NON d   1     -42.129  18.080  -3.221  0.00  0.00     0.039 C 
BRANCH  13  14
ATOM     14  C5  NON d   1     -41.443  18.829  -4.345  0.00  0.00    -0.058 A 
ATOM     15  C6  NON d   1     -41.056  20.173  -4.269  0.00  0.00     0.007 A 
ATOM     16  C7  NON d   1     -40.433  20.800  -5.353  0.00  0.00     0.001 A 
ATOM     17  C8  NON d   1     -40.183  20.091  -6.527  0.00  0.00     0.000 A 
ATOM     18  C9  NON d   1     -40.552  18.753  -6.617  0.00  0.00     0.001 A 
ATOM     19  C10 NON d   1     -41.177  18.128  -5.534  0.00  0.00     0.007 A 
ENDBRANCH  13  14
ENDBRANCH  12  13
ENDBRANCH  11  12
ENDBRANCH   8  11
ENDBRANCH   1   7
BRANCH   6  20
ATOM     20  O2  NON d   1     -47.069  14.630  -5.070  0.00  0.00    -0.358 OA
ATOM     21  H21 NON d   1     -46.848  15.114  -5.890  0.00  0.00     0.217 HD
ENDBRANCH   6  20
BRANCH   3  22
ATOM     22  C14 NON d   1     -51.341  16.921  -2.095  0.00  0.00    -0.026 A 
ATOM     23  C15 NON d   1     -52.698  16.750  -2.435  0.00  0.00     0.012 A 
ATOM     24  C16 NON d   1     -53.737  17.256  -1.641  0.00  0.00     0.001 A 
ATOM     25  C17 NON d   1     -53.458  17.942  -0.461  0.00  0.00     0.000 A 
ATOM     26  C18 NON d   1     -52.131  18.126  -0.090  0.00  0.00     0.001 A 
ATOM     27  C19 NON d   1     -51.098  17.630  -0.896  0.00  0.00     0.012 A 
ENDBRANCH   3  22
TORSDOF 7
ENDMDL
MODEL 2
REMARK VINA RESULT:   -10.206      2.260     10.358
REMARK INTER + INTRA:         -13.236
REMARK INTER:                 -12.294
REMARK INTRA:                  -0.942
REMARK CONF_INDEPENDENT:        2.088
REMARK UNBOUND:                -0.942
REMARK  7 active torsions:
REMARK  status: ('A' for Active; 'I' for Inactive)
REMARK    1  A    between atoms: C1_2  and  C2_3 
REMARK       I    between atoms: C1_2  and  N1_12 
REMARK    2  A    between atoms: C2_3  and  C3_4 
REMARK    3  A    between atoms: C3_4  and  C4_5 
REMARK    4  A    between atoms: C4_5  and  C5_6 
REMARK    5  A    between atoms: N1_12  and  C11_13 
REMARK    6  A    between atoms: C13_15  and  C14_16 
REMARK    7  A    between atoms: C22_24  and  O2_25 
ROOT
ATOM      1  C11 NON d   1     -41.610  18.178  -3.733  0.00  0.00     0.069 A 
ATOM      2  C12 NON d   1     -41.097  18.519  -5.007  0.00  0.00     0.044 A 
ATOM      3  C13 NON d   1     -39.752  18.921  -5.209  0.00  0.00    -0.024 A 
ATOM      4  C20 NON d   1     -38.952  18.983  -4.052  0.00  0.00     0.015 A 
ATOM      5  C21 NON d   1     -39.420  18.590  -2.799  0.00  0.00     0.040 A 
ATOM      6  C22 NON d   1     -40.730  18.162  -2.654  0.00  0.00     0.092 A 
ENDROOT
BRANCH   1   7
ATOM      7  N1  NON d   1     -42.982  17.828  -3.655  0.00  0.00    -0.325 N 
ATOM      8  C1  NON d   1     -43.673  17.012  -4.538  0.00  0.00     0.222 C 
ATOM      9  O1  NON d   1     -43.159  16.329  -5.429  0.00  0.00    -0.273 OA
ATOM     10  H12 NON d   1     -43.452  18.041  -2.787  0.00  0.00     0.169 HD
BRANCH   8  11
ATOM     11  C2  NON d   1     -45.158  16.947  -4.210  0.00  0.00     0.103 C 
BRANCH  11  12
ATOM     12  C3  NON d   1     -46.079  16.988  -5.435  0.00  0.00     0.014 C 
BRANCH  12  13
ATOM     13  C4  NON d   1     -47.125  15.865  -5.408  0.00  0.00     0.039 C 
BRANCH  13  14
ATOM     14  C5  NON d   1     -48.122  15.872  -4.267  0.00  0.00    -0.058 A 
ATOM     15  C6  NON d   1     -48.020  16.700  -3.143  0.00  0.00     0.007 A 
ATOM     16  C7  NON d   1     -48.977  16.644  -2.124  0.00  0.00     0.001 A 
ATOM     17  C8  NON d   1     -50.054  15.765  -2.219  0.00  0.00     0.000 A 
ATOM     18  C9  NON d   1     -50.177  14.942  -3.333  0.00  0.00     0.001 A 
ATOM     19  C10 NON d   1     -49.218  14.995  -4.348  0.00  0.00     0.007 A 
ENDBRANCH  13  14
ENDBRANCH  12  13
ENDBRANCH  11  12
ENDBRANCH   8  11
ENDBRANCH   1   7
BRANCH   6  20
ATOM     20  O2  NON d   1     -41.038  17.630  -1.437  0.00  0.00    -0.358 OA
ATOM     21  H21 NON d   1     -40.205  17.628  -0.927  0.00  0.00     0.217 HD
ENDBRANCH   6  20
BRANCH   3  22
ATOM     22  C14 NON d   1     -39.187  19.242  -6.568  0.00  0.00    -0.026 A 
ATOM     23  C15 NON d   1     -39.894  19.991  -7.529  0.00  0.00     0.012 A 
ATOM     24  C16 NON d   1     -39.374  20.252  -8.804  0.00  0.00     0.001 A 
ATOM     25  C17 NON d   1     -38.112  19.784  -9.164  0.00  0.00     0.000 A 
ATOM     26  C18 NON d   1     -37.382  19.045  -8.241  0.00  0.00     0.001 A 
ATOM     27  C19 NON d   1     -37.914  18.777  -6.973  0.00  0.00     0.012 A 
ENDBRANCH   3  22
TORSDOF 7
ENDMDL
MODEL 3
REMARK VINA RESULT:    -8.698      2.831     10.013
REMARK INTER + INTRA:         -11.756
REMARK INTER:                 -10.787
REMARK INTRA:                  -0.969
REMARK CONF_INDEPENDENT:        2.088
REMARK UNBOUND:                -0.969
REMARK  7 active torsions:
REMARK  status: ('A' for Active; 'I' for Inactive)
REMARK    1  A    between atoms: C1_2  and  C2_3 
REMARK       I    between atoms: C1_2  and  N1_12 
REMARK    2  A    between atoms: C2_3  and  C3_4 
REMARK    3  A    between atoms: C3_4  and  C4_5 
REMARK    4  A    between atoms: C4_5  and  C5_6 
REMARK    5  A    between atoms: N1_12  and  C11_13 
REMARK    6  A    between atoms: C13_15  and  C14_16 
REMARK    7  A    between atoms: C22_24  and  O2_25 
ROOT
ATOM      1  C11 NON d   1     -40.931  18.824  -3.242  0.00  0.00     0.069 A 
ATOM      2  C12 NON d   1     -41.067  20.145  -3.729  0.00  0.00     0.044 A 
ATOM      3  C13 NON d   1     -40.166  21.185  -3.388  0.00  0.00    -0.024 A 
ATOM      4  C20 NON d   1     -39.126  20.829  -2.508  0.00  0.00     0.015 A 
ATOM      5  C21 NON d   1     -38.937  19.520  -2.068  0.00  0.00     0.040 A 
ATOM      6  C22 NON d   1     -39.817  18.524  -2.462  0.00  0.00     0.092 A 
ENDROOT
BRANCH   1   7
ATOM      7  N1  NON d   1     -41.918  17.881  -3.626  0.00  0.00    -0.325 N 
ATOM      8  C1  NON d   1     -42.883  18.056  -4.606  0.00  0.00     0.222 C 
ATOM      9  O1  NON d   1     -42.922  18.991  -5.410  0.00  0.00    -0.273 OA
ATOM     10  H12 NON d   1     -41.795  16.938  -3.286  0.00  0.00     0.169 HD
BRANCH   8  11
ATOM     11  C2  NON d   1     -43.848  16.880  -4.671  0.00  0.00     0.103 C 
BRANCH  11  12
ATOM     12  C3  NON d   1     -45.209  17.141  -4.014  0.00  0.00     0.014 C 
BRANCH  12  13
ATOM     13  C4  NON d   1     -46.372  16.632  -4.877  0.00  0.00     0.039 C 
BRANCH  13  14
ATOM     14  C5  NON d   1     -47.640  16.217  -4.159  0.00  0.00    -0.058 A 
ATOM     15  C6  NON d   1     -48.536  15.256  -4.643  0.00  0.00     0.007 A 
ATOM     16  C7  NON d   1     -49.692  14.931  -3.926  0.00  0.00     0.001 A 
ATOM     17  C8  NON d   1     -49.966  15.556  -2.711  0.00  0.00     0.000 A 
ATOM     18  C9  NON d   1     -49.082  16.506  -2.210  0.00  0.00     0.001 A 
ATOM     19  C10 NON d   1     -47.929  16.834  -2.929  0.00  0.00     0.007 A 
ENDBRANCH  13  14
ENDBRANCH  12  13
ENDBRANCH  11  12
ENDBRANCH   8  11
ENDBRANCH   1   7
BRANCH   6  20
ATOM     20  O2  NON d   1     -39.446  17.254  -2.131  0.00  0.00    -0.358 OA
ATOM     21  H21 NON d   1     -38.941  17.331  -1.298  0.00  0.00     0.217 HD
ENDBRANCH   6  20
BRANCH   3  22
ATOM     22  C14 NON d   1     -40.280  22.582  -3.938  0.00  0.00    -0.026 A 
ATOM     23  C15 NON d   1     -41.135  23.553  -3.380  0.00  0.00     0.012 A 
ATOM     24  C16 NON d   1     -41.261  24.840  -3.924  0.00  0.00     0.001 A 
ATOM     25  C17 NON d   1     -40.520  25.211  -5.044  0.00  0.00     0.000 A 
ATOM     26  C18 NON d   1     -39.662  24.282  -5.620  0.00  0.00     0.001 A 
ATOM     27  C19 NON d   1     -39.552  22.994  -5.079  0.00  0.00     0.012 A 
ENDBRANCH   3  22
TORSDOF 7
ENDMDL
MODEL 4
REMARK VINA RESULT:    -8.595      2.712     10.112
REMARK INTER + INTRA:         -11.691
REMARK INTER:                 -10.683
REMARK INTRA:                  -1.008
REMARK CONF_INDEPENDENT:        2.088
REMARK UNBOUND:                -1.008
REMARK  7 active torsions:
REMARK  status: ('A' for Active; 'I' for Inactive)
REMARK    1  A    between atoms: C1_2  and  C2_3 
REMARK       I    between atoms: C1_2  and  N1_12 
REMARK    2  A    between atoms: C2_3  and  C3_4 
REMARK    3  A    between atoms: C3_4  and  C4_5 
REMARK    4  A    between atoms: C4_5  and  C5_6 
REMARK    5  A    between atoms: N1_12  and  C11_13 
REMARK    6  A    between atoms: C13_15  and  C14_16 
REMARK    7  A    between atoms: C22_24  and  O2_25 
ROOT
ATOM      1  C11 NON d   1     -40.764  19.017  -6.155  0.00  0.00     0.069 A 
ATOM      2  C12 NON d   1     -40.843  20.294  -5.553  0.00  0.00     0.044 A 
ATOM      3  C13 NON d   1     -40.048  21.391  -5.974  0.00  0.00    -0.024 A 
ATOM      4  C20 NON d   1     -39.149  21.126  -7.026  0.00  0.00     0.015 A 
ATOM      5  C21 NON d   1     -39.102  19.894  -7.674  0.00  0.00     0.040 A 
ATOM      6  C22 NON d   1     -39.929  18.861  -7.258  0.00  0.00     0.092 A 
ENDROOT
BRANCH   1   7
ATOM      7  N1  NON d   1     -41.584  17.992  -5.620  0.00  0.00    -0.325 N 
ATOM      8  C1  NON d   1     -42.843  18.154  -5.062  0.00  0.00     0.222 C 
ATOM      9  O1  NON d   1     -43.513  19.190  -5.102  0.00  0.00    -0.273 OA
ATOM     10  H12 NON d   1     -41.309  17.042  -5.826  0.00  0.00     0.169 HD
BRANCH   8  11
ATOM     11  C2  NON d   1     -43.383  16.852  -4.485  0.00  0.00     0.103 C 
BRANCH  11  12
ATOM     12  C3  NON d   1     -44.734  16.988  -3.773  0.00  0.00     0.014 C 
BRANCH  12  13
ATOM     13  C4  NON d   1     -45.914  16.753  -4.728  0.00  0.00     0.039 C 
BRANCH  13  14
ATOM     14  C5  NON d   1     -47.226  16.309  -4.115  0.00  0.00    -0.058 A 
ATOM     15  C6  NON d   1     -48.092  15.381  -4.705  0.00  0.00     0.007 A 
ATOM     16  C7  NON d   1     -49.293  15.025  -4.081  0.00  0.00     0.001 A 
ATOM     17  C8  NON d   1     -49.641  15.588  -2.854  0.00  0.00     0.000 A 
ATOM     18  C9  NON d   1     -48.788  16.505  -2.248  0.00  0.00     0.001 A 
ATOM     19  C10 NON d   1     -47.591  16.862  -2.875  0.00  0.00     0.007 A 
ENDBRANCH  13  14
ENDBRANCH  12  13
ENDBRANCH  11  12
ENDBRANCH   8  11
ENDBRANCH   1   7
BRANCH   6  20
ATOM     20  O2  NON d   1     -39.940  17.762  -8.066  0.00  0.00    -0.358 OA
ATOM     21  H21 NON d   1     -40.326  17.041  -7.531  0.00  0.00     0.217 HD
ENDBRANCH   6  20
BRANCH   3  22
ATOM     22  C14 NON d   1     -40.159  22.765  -5.367  0.00  0.00    -0.026 A 
ATOM     23  C15 NON d   1     -39.430  23.870  -5.848  0.00  0.00     0.012 A 
ATOM     24  C16 NON d   1     -39.511  25.137  -5.252  0.00  0.00     0.001 A 
ATOM     25  C17 NON d   1     -40.342  25.351  -4.154  0.00  0.00     0.000 A 
ATOM     26  C18 NON d   1     -41.082  24.285  -3.654  0.00  0.00     0.001 A 
ATOM     27  C19 NON d   1     -40.984  23.020  -4.247  0.00  0.00     0.012 A 
ENDBRANCH   3  22
TORSDOF 7
ENDMDL
MODEL 5
REMARK VINA RESULT:    -8.588      3.206     10.429
REMARK INTER + INTRA:         -11.682
REMARK INTER:                 -10.676
REMARK INTRA:                  -1.005
REMARK CONF_INDEPENDENT:        2.088
REMARK UNBOUND:                -1.005
REMARK  7 active torsions:
REMARK  status: ('A' for Active; 'I' for Inactive)
REMARK    1  A    between atoms: C1_2  and  C2_3 
REMARK       I    between atoms: C1_2  and  N1_12 
REMARK    2  A    between atoms: C2_3  and  C3_4 
REMARK    3  A    between atoms: C3_4  and  C4_5 
REMARK    4  A    between atoms: C4_5  and  C5_6 
REMARK    5  A    between atoms: N1_12  and  C11_13 
REMARK    6  A    between atoms: C13_15  and  C14_16 
REMARK    7  A    between atoms: C22_24  and  O2_25 
ROOT
ATOM      1  C11 NON d   1     -40.336  19.087  -6.861  0.00  0.00     0.069 A 
ATOM      2  C12 NON d   1     -40.432  20.458  -6.528  0.00  0.00     0.044 A 
ATOM      3  C13 NON d   1     -39.723  21.470  -7.224  0.00  0.00    -0.024 A 
ATOM      4  C20 NON d   1     -38.889  21.023  -8.267  0.00  0.00     0.015 A 
ATOM      5  C21 NON d   1     -38.829  19.685  -8.654  0.00  0.00     0.040 A 
ATOM      6  C22 NON d   1     -39.573  18.735  -7.973  0.00  0.00     0.092 A 
ENDROOT
BRANCH   1   7
ATOM      7  N1  NON d   1     -41.066  18.169  -6.066  0.00  0.00    -0.325 N 
ATOM      8  C1  NON d   1     -42.074  18.481  -5.167  0.00  0.00     0.222 C 
ATOM      9  O1  NON d   1     -42.606  19.588  -5.048  0.00  0.00    -0.273 OA
ATOM     10  H12 NON d   1     -40.971  17.192  -6.306  0.00  0.00     0.169 HD
BRANCH   8  11
ATOM     11  C2  NON d   1     -42.556  17.255  -4.403  0.00  0.00     0.103 C 
BRANCH  11  12
ATOM     12  C3  NON d   1     -44.002  17.351  -3.900  0.00  0.00     0.014 C 
BRANCH  12  13
ATOM     13  C4  NON d   1     -45.019  17.048  -5.009  0.00  0.00     0.039 C 
BRANCH  13  14
ATOM     14  C5  NON d   1     -46.383  16.547  -4.582  0.00  0.00    -0.058 A 
ATOM     15  C6  NON d   1     -47.237  15.802  -5.405  0.00  0.00     0.007 A 
ATOM     16  C7  NON d   1     -48.488  15.380  -4.942  0.00  0.00     0.001 A 
ATOM     17  C8  NON d   1     -48.900  15.690  -3.648  0.00  0.00     0.000 A 
ATOM     18  C9  NON d   1     -48.061  16.421  -2.813  0.00  0.00     0.001 A 
ATOM     19  C10 NON d   1     -46.813  16.845  -3.278  0.00  0.00     0.007 A 
ENDBRANCH  13  14
ENDBRANCH  12  13
ENDBRANCH  11  12
ENDBRANCH   8  11
ENDBRANCH   1   7
BRANCH   6  20
ATOM     20  O2  NON d   1     -39.589  17.493  -8.536  0.00  0.00    -0.358 OA
ATOM     21  H21 NON d   1     -40.311  17.006  -8.092  0.00  0.00     0.217 HD
ENDBRANCH   6  20
BRANCH   3  22
ATOM     22  C14 NON d   1     -39.856  22.935  -6.902  0.00  0.00    -0.026 A 
ATOM     23  C15 NON d   1     -39.881  23.933  -7.896  0.00  0.00     0.012 A 
ATOM     24  C16 NON d   1     -39.967  25.297  -7.584  0.00  0.00     0.001 A 
ATOM     25  C17 NON d   1     -40.047  25.717  -6.258  0.00  0.00     0.000 A 
ATOM     26  C18 NON d   1     -40.031  24.760  -5.249  0.00  0.00     0.001 A 
ATOM     27  C19 NON d   1     -39.931  23.400  -5.569  0.00  0.00     0.012 A 
ENDBRANCH   3  22
TORSDOF 7
ENDMDL
MODEL 6
REMARK VINA RESULT:    -8.534      2.656     10.402
REMARK INTER + INTRA:         -12.145
REMARK INTER:                 -10.622
REMARK INTRA:                  -1.523
REMARK CONF_INDEPENDENT:        2.088
REMARK UNBOUND:                -1.523
REMARK  7 active torsions:
REMARK  status: ('A' for Active; 'I' for Inactive)
REMARK    1  A    between atoms: C1_2  and  C2_3 
REMARK       I    between atoms: C1_2  and  N1_12 
REMARK    2  A    between atoms: C2_3  and  C3_4 
REMARK    3  A    between atoms: C3_4  and  C4_5 
REMARK    4  A    between atoms: C4_5  and  C5_6 
REMARK    5  A    between atoms: N1_12  and  C11_13 
REMARK    6  A    between atoms: C13_15  and  C14_16 
REMARK    7  A    between atoms: C22_24  and  O2_25 
ROOT
ATOM      1  C11 NON d   1     -41.250  18.642  -4.963  0.00  0.00     0.069 A 
ATOM      2  C12 NON d   1     -41.136  19.494  -6.086  0.00  0.00     0.044 A 
ATOM      3  C13 NON d   1     -39.958  20.228  -6.375  0.00  0.00    -0.024 A 
ATOM      4  C20 NON d   1     -38.901  20.075  -5.457  0.00  0.00     0.015 A 
ATOM      5  C21 NON d   1     -38.970  19.193  -4.380  0.00  0.00     0.040 A 
ATOM      6  C22 NON d   1     -40.127  18.461  -4.159  0.00  0.00     0.092 A 
ENDROOT
BRANCH   1   7
ATOM      7  N1  NON d   1     -42.493  17.991  -4.761  0.00  0.00    -0.325 N 
ATOM      8  C1  NON d   1     -43.052  17.648  -3.539  0.00  0.00     0.222 C 
ATOM      9  O1  NON d   1     -42.634  18.011  -2.437  0.00  0.00    -0.273 OA
ATOM     10  H12 NON d   1     -43.106  17.934  -5.562  0.00  0.00     0.169 HD
BRANCH   8  11
ATOM     11  C2  NON d   1     -44.343  16.857  -3.706  0.00  0.00     0.103 C 
BRANCH  11  12
ATOM     12  C3  NON d   1     -45.287  17.406  -4.783  0.00  0.00     0.014 C 
BRANCH  12  13
ATOM     13  C4  NON d   1     -46.367  16.388  -5.174  0.00  0.00     0.039 C 
BRANCH  13  14
ATOM     14  C5  NON d   1     -47.513  16.184  -4.203  0.00  0.00    -0.058 A 
ATOM     15  C6  NON d   1     -47.582  16.778  -2.937  0.00  0.00     0.007 A 
ATOM     16  C7  NON d   1     -48.670  16.536  -2.092  0.00  0.00     0.001 A 
ATOM     17  C8  NON d   1     -49.709  15.703  -2.503  0.00  0.00     0.000 A 
ATOM     18  C9  NON d   1     -49.662  15.113  -3.762  0.00  0.00     0.001 A 
ATOM     19  C10 NON d   1     -48.573  15.352  -4.604  0.00  0.00     0.007 A 
ENDBRANCH  13  14
ENDBRANCH  12  13
ENDBRANCH  11  12
ENDBRANCH   8  11
ENDBRANCH   1   7
BRANCH   6  20
ATOM     20  O2  NON d   1     -40.033  17.498  -3.198  0.00  0.00    -0.358 OA
ATOM     21  H21 NON d   1     -40.929  17.412  -2.817  0.00  0.00     0.217 HD
ENDBRANCH   6  20
BRANCH   3  22
ATOM     22  C14 NON d   1     -39.814  21.102  -7.593  0.00  0.00    -0.026 A 
ATOM     23  C15 NON d   1     -39.515  20.586  -8.870  0.00  0.00     0.012 A 
ATOM     24  C16 NON d   1     -39.345  21.412  -9.990  0.00  0.00     0.001 A 
ATOM     25  C17 NON d   1     -39.485  22.794  -9.878  0.00  0.00     0.000 A 
ATOM     26  C18 NON d   1     -39.785  23.340  -8.636  0.00  0.00     0.001 A 
ATOM     27  C19 NON d   1     -39.939  22.509  -7.519  0.00  0.00     0.012 A 
ENDBRANCH   3  22
TORSDOF 7
ENDMDL
MODEL 7
REMARK VINA RESULT:    -8.490      2.846      9.626
REMARK INTER + INTRA:         -11.550
REMARK INTER:                 -10.578
REMARK INTRA:                  -0.972
REMARK CONF_INDEPENDENT:        2.088
REMARK UNBOUND:                -0.972
REMARK  7 active torsions:
REMARK  status: ('A' for Active; 'I' for Inactive)
REMARK    1  A    between atoms: C1_2  and  C2_3 
REMARK       I    between atoms: C1_2  and  N1_12 
REMARK    2  A    between atoms: C2_3  and  C3_4 
REMARK    3  A    between atoms: C3_4  and  C4_5 
REMARK    4  A    between atoms: C4_5  and  C5_6 
REMARK    5  A    between atoms: N1_12  and  C11_13 
REMARK    6  A    between atoms: C13_15  and  C14_16 
REMARK    7  A    between atoms: C22_24  and  O2_25 
ROOT
ATOM      1  C11 NON d   1     -41.384  19.223  -4.970  0.00  0.00     0.069 A 
ATOM      2  C12 NON d   1     -41.290  19.906  -3.734  0.00  0.00     0.044 A 
ATOM      3  C13 NON d   1     -40.245  20.817  -3.438  0.00  0.00    -0.024 A 
ATOM      4  C20 NON d   1     -39.280  20.990  -4.449  0.00  0.00     0.015 A 
ATOM      5  C21 NON d   1     -39.389  20.377  -5.696  0.00  0.00     0.040 A 
ATOM      6  C22 NON d   1     -40.452  19.527  -5.959  0.00  0.00     0.092 A 
ENDROOT
BRANCH   1   7
ATOM      7  N1  NON d   1     -42.456  18.310  -5.132  0.00  0.00    -0.325 N 
ATOM      8  C1  NON d   1     -43.025  17.528  -4.138  0.00  0.00     0.222 C 
ATOM      9  O1  NON d   1     -42.800  17.634  -2.930  0.00  0.00    -0.273 OA
ATOM     10  H12 NON d   1     -42.967  18.366  -6.001  0.00  0.00     0.169 HD
BRANCH   8  11
ATOM     11  C2  NON d   1     -44.079  16.579  -4.694  0.00  0.00     0.103 C 
BRANCH  11  12
ATOM     12  C3  NON d   1     -45.407  17.253  -5.060  0.00  0.00     0.014 C 
BRANCH  12  13
ATOM     13  C4  NON d   1     -46.512  16.228  -5.349  0.00  0.00     0.039 C 
BRANCH  13  14
ATOM     14  C5  NON d   1     -47.599  16.066  -4.306  0.00  0.00    -0.058 A 
ATOM     15  C6  NON d   1     -47.601  16.720  -3.068  0.00  0.00     0.007 A 
ATOM     16  C7  NON d   1     -48.637  16.514  -2.152  0.00  0.00     0.001 A 
ATOM     17  C8  NON d   1     -49.690  15.656  -2.462  0.00  0.00     0.000 A 
ATOM     18  C9  NON d   1     -49.710  15.005  -3.691  0.00  0.00     0.001 A 
ATOM     19  C10 NON d   1     -48.672  15.209  -4.605  0.00  0.00     0.007 A 
ENDBRANCH  13  14
ENDBRANCH  12  13
ENDBRANCH  11  12
ENDBRANCH   8  11
ENDBRANCH   1   7
BRANCH   6  20
ATOM     20  O2  NON d   1     -40.569  19.124  -7.257  0.00  0.00    -0.358 OA
ATOM     21  H21 NON d   1     -39.875  19.604  -7.750  0.00  0.00     0.217 HD
ENDBRANCH   6  20
BRANCH   3  22
ATOM     22  C14 NON d   1     -40.164  21.579  -2.142  0.00  0.00    -0.026 A 
ATOM     23  C15 NON d   1     -39.673  21.008  -0.951  0.00  0.00     0.012 A 
ATOM     24  C16 NON d   1     -39.637  21.715   0.259  0.00  0.00     0.001 A 
ATOM     25  C17 NON d   1     -40.079  23.035   0.321  0.00  0.00     0.000 A 
ATOM     26  C18 NON d   1     -40.566  23.635  -0.835  0.00  0.00     0.001 A 
ATOM     27  C19 NON d   1     -40.612  22.917  -2.036  0.00  0.00     0.012 A 
ENDBRANCH   3  22
TORSDOF 7
ENDMDL
