MODEL 1
REMARK VINA RESULT:   -31.165      0.000      0.000
REMARK INTER + INTRA:         -35.066
REMARK INTER:                 -33.552
REMARK INTRA:                  -1.514
REMARK CONF_INDEPENDENT:        2.386
REMARK UNBOUND:                -1.514
REMARK  8 active torsions:
REMARK  status: ('A' for Active; 'I' for Inactive)
REMARK    1  A    between atoms: O1_2  and  C2_3 
REMARK    2  A    between atoms: C5_6  and  C6_7 
REMARK    3  A    between atoms: C6_7  and  C7_8 
REMARK    4  A    between atoms: C7_8  and  C8_11 
REMARK    5  A    between atoms: N1_9  and  N2_10 
REMARK       I    between atoms: C8_11  and  N3_13 
REMARK    6  A    between atoms: N3_13  and  C9_14 
REMARK    7  A    between atoms: C9_14  and  C10_15 
REMARK    8  A    between atoms: C10_15  and  S1_16 
ROOT
ATOM      1  C7  NON d   1     -46.923  16.617  -4.231  0.00  0.00     0.120 C 
ATOM      2  N1  NON d   1     -47.429  16.505  -5.435  0.00  0.00    -0.203 NA
ENDROOT
BRANCH   1   3
ATOM      3  C6  NON d   1     -45.521  16.505  -3.668  0.00  0.00     0.105 C 
BRANCH   3   4
ATOM      4  C5  NON d   1     -44.358  17.404  -4.027  0.00  0.00    -0.051 C 
ATOM      5  C4  NON d   1     -44.546  18.360  -5.034  0.00  0.00     0.010 C 
ATOM      6  C3  NON d   1     -43.505  19.198  -5.438  0.00  0.00     0.039 C 
ATOM      7  C2  NON d   1     -42.235  19.134  -4.845  0.00  0.00     0.085 C 
ATOM      8  C12 NON d   1     -42.026  18.165  -3.858  0.00  0.00     0.044 C 
ATOM      9  C11 NON d   1     -43.064  17.271  -3.513  0.00  0.00     0.029 C 
ATOM     10 Br1  NON d   1     -40.456  17.993  -2.798  0.00  0.00    -0.048 Br
BRANCH   7  11
ATOM     11  O1  NON d   1     -41.409  20.104  -5.336  0.00  0.00    -0.355 OA
ATOM     12  C1  NON d   1     -41.056  20.116  -6.708  0.00  0.00     0.210 C 
ENDBRANCH   7  11
ENDBRANCH   3   4
ENDBRANCH   1   3
BRANCH   1  13
ATOM     13  C8  NON d   1     -48.000  16.827  -3.139  0.00  0.00     0.267 C 
ATOM     14  O2  NON d   1     -47.707  16.778  -1.955  0.00  0.00    -0.266 OA
ATOM     15  N3  NON d   1     -49.272  16.998  -3.643  0.00  0.00    -0.355 N 
ATOM     16  H10 NON d   1     -49.348  16.809  -4.642  0.00  0.00     0.162 HD
BRANCH  15  17
ATOM     17  C9  NON d   1     -50.448  16.824  -2.820  0.00  0.00     0.133 C 
BRANCH  17  18
ATOM     18  C10 NON d   1     -50.947  15.381  -2.807  0.00  0.00     0.090 C 
BRANCH  18  19
ATOM     19  S1  NON d   1     -49.974  14.320  -3.928  0.00  0.00    -0.181 SA
ATOM     20  H15 NON d   1     -50.458  13.149  -3.490  0.00  0.00     0.101 HD
ENDBRANCH  18  19
ENDBRANCH  17  18
ENDBRANCH  15  17
ENDBRANCH   1  13
BRANCH   2  21
ATOM     21  N2  NON d   1     -46.637  16.233  -6.479  0.00  0.00    -0.226 NA
ATOM     22  H8  NON d   1     -46.900  15.366  -6.953  0.00  0.00     0.145 HD
ATOM     23  H9  NON d   1     -46.712  16.971  -7.184  0.00  0.00     0.145 HD
ENDBRANCH   2  21
TORSDOF 8
ENDMDL
