MODEL 1
REMARK VINA RESULT:   -36.796      0.000      0.000
REMARK INTER + INTRA:         -43.144
REMARK INTER:                 -40.972
REMARK INTRA:                  -2.171
REMARK CONF_INDEPENDENT:        4.176
REMARK UNBOUND:                -2.171
REMARK  14 active torsions:
REMARK  status: ('A' for Active; 'I' for Inactive)
REMARK    1  A    between atoms: O1_2  and  C2_3 
REMARK    2  A    between atoms: C8_10  and  C9_11 
REMARK    3  A    between atoms: C9_11  and  C10_12 
REMARK       I    between atoms: C10_12  and  N2_14 
REMARK    4  A    between atoms: C11_15  and  N2_14 
REMARK    5  A    between atoms: C11_15  and  C12_16 
REMARK    6  A    between atoms: C11_15  and  C16_25 
REMARK    7  A    between atoms: C12_16  and  C13_17 
REMARK    8  A    between atoms: C13_17  and  C14_18 
REMARK    9  A    between atoms: C14_18  and  C15_19 
REMARK   10  A    between atoms: C15_19  and  N3_20 
REMARK   11  A    between atoms: N3_20  and  S1_21 
REMARK   12  A    between atoms: S1_21  and  N4_22 
REMARK       I    between atoms: C16_25  and  N5_27 
REMARK   13  A    between atoms: N5_27  and  C17_28 
REMARK   14  A    between atoms: C18_30  and  C19_31 
ROOT
ATOM      1  C11 NON d   1     -41.720  19.595  -6.006  0.00  0.00     0.177 C 
ENDROOT
BRANCH   1   2
ATOM      2  N2  NON d   1     -41.550  20.682  -4.932  0.00  0.00    -0.348 N 
ATOM      3  C10 NON d   1     -40.385  21.128  -4.288  0.00  0.00     0.222 C 
ATOM      4  O2  NON d   1     -39.278  20.753  -4.667  0.00  0.00    -0.273 OA
ATOM      5  H12 NON d   1     -42.362  21.280  -4.830  0.00  0.00     0.163 HD
BRANCH   3   6
ATOM      6  C9  NON d   1     -40.576  22.175  -3.111  0.00  0.00     0.144 C 
BRANCH   6   7
ATOM      7  C8  NON d   1     -39.854  21.937  -1.744  0.00  0.00    -0.015 A 
ATOM      8  C6  NON d   1     -39.066  20.835  -1.396  0.00  0.00     0.013 A 
ATOM      9  N1  NON d   1     -38.554  21.038  -0.143  0.00  0.00    -0.359 N 
ATOM     10  C7  NON d   1     -38.674  19.576  -2.096  0.00  0.00     0.068 C 
ATOM     11  C5  NON d   1     -39.049  22.171   0.436  0.00  0.00     0.043 A 
ATOM     12  H6  NON d   1     -37.919  20.405   0.324  0.00  0.00     0.166 HD
ATOM     13  C4  NON d   1     -38.795  22.665   1.730  0.00  0.00     0.033 A 
ATOM     14  C26 NON d   1     -39.886  22.790  -0.498  0.00  0.00     0.002 A 
ATOM     15  C3  NON d   1     -39.426  23.833   2.161  0.00  0.00     0.039 A 
ATOM     16  C2  NON d   1     -40.293  24.506   1.321  0.00  0.00     0.069 A 
ATOM     17  C27 NON d   1     -40.514  24.001  -0.018  0.00  0.00     0.051 A 
BRANCH  16  18
ATOM     18  O1  NON d   1     -40.971  25.639   1.722  0.00  0.00    -0.356 OA
ATOM     19  C1  NON d   1     -41.138  26.011   3.207  0.00  0.00     0.210 C 
ENDBRANCH  16  18
ENDBRANCH   6   7
ENDBRANCH   3   6
ENDBRANCH   1   2
BRANCH   1  20
ATOM     20  C12 NON d   1     -41.333  18.165  -5.537  0.00  0.00     0.035 C 
BRANCH  20  21
ATOM     21  C13 NON d   1     -42.389  17.287  -4.825  0.00  0.00     0.004 C 
BRANCH  21  22
ATOM     22  C14 NON d   1     -43.774  17.936  -4.616  0.00  0.00     0.015 C 
BRANCH  22  23
ATOM     23  C15 NON d   1     -44.673  17.200  -3.634  0.00  0.00     0.105 C 
BRANCH  23  24
ATOM     24  N3  NON d   1     -46.043  16.956  -4.147  0.00  0.00    -0.207 NA
ATOM     25  H22 NON d   1     -46.395  16.090  -3.731  0.00  0.00     0.140 HD
BRANCH  24  26
ATOM     26  S1  NON d   1     -46.175  16.750  -5.801  0.00  0.00     0.276 S 
ATOM     27  O3  NON d   1     -45.565  15.508  -6.184  0.00  0.00    -0.194 OA
ATOM     28  O4  NON d   1     -45.943  18.002  -6.469  0.00  0.00    -0.194 OA
BRANCH  26  29
ATOM     29  N4  NON d   1     -47.815  16.505  -5.810  0.00  0.00    -0.216 NA
ATOM     30  H23 NON d   1     -48.233  17.081  -6.545  0.00  0.00     0.137 HD
ATOM     31  H24 NON d   1     -48.000  15.516  -5.970  0.00  0.00     0.137 HD
ENDBRANCH  26  29
ENDBRANCH  24  26
ENDBRANCH  23  24
ENDBRANCH  22  23
ENDBRANCH  21  22
ENDBRANCH  20  21
ENDBRANCH   1  20
BRANCH   1  32
ATOM     32  C16 NON d   1     -41.004  20.048  -7.346  0.00  0.00     0.246 C 
ATOM     33  O5  NON d   1     -41.694  20.230  -8.354  0.00  0.00    -0.271 OA
ATOM     34  N5  NON d   1     -39.619  20.218  -7.282  0.00  0.00    -0.304 N 
ATOM     35  H25 NON d   1     -39.115  20.028  -6.430  0.00  0.00     0.171 HD
BRANCH  34  36
ATOM     36  C17 NON d   1     -38.784  20.782  -8.251  0.00  0.00     0.173 A 
ATOM     37  N6  NON d   1     -39.237  21.480  -9.271  0.00  0.00    -0.223 NA
ATOM     38  C18 NON d   1     -38.178  21.827 -10.138  0.00  0.00     0.076 A 
ATOM     39  C25 NON d   1     -36.939  21.427  -9.673  0.00  0.00     0.085 A 
ATOM     40  S2  NON d   1     -37.094  20.580  -8.195  0.00  0.00    -0.061 SA
BRANCH  38  41
ATOM     41  C19 NON d   1     -38.341  22.494 -11.450  0.00  0.00    -0.007 A 
ATOM     42  C20 NON d   1     -37.286  22.556 -12.365  0.00  0.00     0.014 A 
ATOM     43  C21 NON d   1     -37.407  23.288 -13.561  0.00  0.00     0.001 A 
ATOM     44  C22 NON d   1     -38.588  23.963 -13.867  0.00  0.00     0.000 A 
ATOM     45  C23 NON d   1     -39.658  23.894 -12.982  0.00  0.00     0.001 A 
ATOM     46  C24 NON d   1     -39.537  23.164 -11.789  0.00  0.00     0.014 A 
ENDBRANCH  38  41
ENDBRANCH  34  36
ENDBRANCH   1  32
TORSDOF 14
ENDMDL
MODEL 2
REMARK VINA RESULT:   -36.463      1.584      2.138
REMARK INTER + INTRA:         -43.084
REMARK INTER:                 -40.640
REMARK INTRA:                  -2.444
REMARK CONF_INDEPENDENT:        4.176
REMARK UNBOUND:                -2.444
REMARK  14 active torsions:
REMARK  status: ('A' for Active; 'I' for Inactive)
REMARK    1  A    between atoms: O1_2  and  C2_3 
REMARK    2  A    between atoms: C8_10  and  C9_11 
REMARK    3  A    between atoms: C9_11  and  C10_12 
REMARK       I    between atoms: C10_12  and  N2_14 
REMARK    4  A    between atoms: C11_15  and  N2_14 
REMARK    5  A    between atoms: C11_15  and  C12_16 
REMARK    6  A    between atoms: C11_15  and  C16_25 
REMARK    7  A    between atoms: C12_16  and  C13_17 
REMARK    8  A    between atoms: C13_17  and  C14_18 
REMARK    9  A    between atoms: C14_18  and  C15_19 
REMARK   10  A    between atoms: C15_19  and  N3_20 
REMARK   11  A    between atoms: N3_20  and  S1_21 
REMARK   12  A    between atoms: S1_21  and  N4_22 
REMARK       I    between atoms: C16_25  and  N5_27 
REMARK   13  A    between atoms: N5_27  and  C17_28 
REMARK   14  A    between atoms: C18_30  and  C19_31 
ROOT
ATOM      1  C11 NON d   1     -41.402  19.517  -4.103  0.00  0.00     0.177 C 
ENDROOT
BRANCH   1   2
ATOM      2  N2  NON d   1     -40.809  20.446  -3.031  0.00  0.00    -0.348 N 
ATOM      3  C10 NON d   1     -39.482  20.568  -2.589  0.00  0.00     0.222 C 
ATOM      4  O2  NON d   1     -38.571  19.992  -3.177  0.00  0.00    -0.273 OA
ATOM      5  H12 NON d   1     -41.431  21.199  -2.758  0.00  0.00     0.163 HD
BRANCH   3   6
ATOM      6  C9  NON d   1     -39.227  21.530  -1.352  0.00  0.00     0.144 C 
BRANCH   6   7
ATOM      7  C8  NON d   1     -39.645  23.034  -1.446  0.00  0.00    -0.015 A 
ATOM      8  C6  NON d   1     -39.484  23.878  -2.551  0.00  0.00     0.013 A 
ATOM      9  N1  NON d   1     -40.044  25.093  -2.261  0.00  0.00    -0.359 N 
ATOM     10  C7  NON d   1     -38.888  23.709  -3.909  0.00  0.00     0.068 C 
ATOM     11  C5  NON d   1     -40.474  25.164  -0.967  0.00  0.00     0.043 A 
ATOM     12  H6  NON d   1     -40.096  25.867  -2.909  0.00  0.00     0.166 HD
ATOM     13  C4  NON d   1     -41.044  26.267  -0.303  0.00  0.00     0.033 A 
ATOM     14  C26 NON d   1     -40.248  23.916  -0.379  0.00  0.00     0.002 A 
ATOM     15  C3  NON d   1     -41.393  26.159   1.045  0.00  0.00     0.039 A 
ATOM     16  C2  NON d   1     -41.185  24.974   1.723  0.00  0.00     0.069 A 
ATOM     17  C27 NON d   1     -40.630  23.840   1.013  0.00  0.00     0.051 A 
BRANCH  16  18
ATOM     18  O1  NON d   1     -41.474  24.838   3.066  0.00  0.00    -0.356 OA
ATOM     19  C1  NON d   1     -40.428  25.114   4.161  0.00  0.00     0.210 C 
ENDBRANCH  16  18
ENDBRANCH   6   7
ENDBRANCH   3   6
ENDBRANCH   1   2
BRANCH   1  20
ATOM     20  C12 NON d   1     -41.131  18.006  -3.862  0.00  0.00     0.035 C 
BRANCH  20  21
ATOM     21  C13 NON d   1     -42.296  16.996  -3.990  0.00  0.00     0.004 C 
BRANCH  21  22
ATOM     22  C14 NON d   1     -43.669  17.595  -4.361  0.00  0.00     0.015 C 
BRANCH  22  23
ATOM     23  C15 NON d   1     -44.824  17.099  -3.504  0.00  0.00     0.105 C 
BRANCH  23  24
ATOM     24  N3  NON d   1     -46.153  17.259  -4.144  0.00  0.00    -0.207 NA
ATOM     25  H22 NON d   1     -46.804  16.600  -3.708  0.00  0.00     0.140 HD
BRANCH  24  26
ATOM     26  S1  NON d   1     -46.214  16.939  -5.783  0.00  0.00     0.276 S 
ATOM     27  O3  NON d   1     -45.456  15.755  -6.074  0.00  0.00    -0.194 OA
ATOM     28  O4  NON d   1     -46.108  18.166  -6.525  0.00  0.00    -0.194 OA
BRANCH  26  29
ATOM     29  N4  NON d   1     -47.814  16.505  -5.811  0.00  0.00    -0.216 NA
ATOM     30  H23 NON d   1     -47.998  15.964  -6.660  0.00  0.00     0.137 HD
ATOM     31  H24 NON d   1     -48.023  15.958  -4.977  0.00  0.00     0.137 HD
ENDBRANCH  26  29
ENDBRANCH  24  26
ENDBRANCH  23  24
ENDBRANCH  22  23
ENDBRANCH  21  22
ENDBRANCH  20  21
ENDBRANCH   1  20
BRANCH   1  32
ATOM     32  C16 NON d   1     -40.980  20.024  -5.545  0.00  0.00     0.246 C 
ATOM     33  O5  NON d   1     -41.830  20.037  -6.441  0.00  0.00    -0.271 OA
ATOM     34  N5  NON d   1     -39.653  20.433  -5.695  0.00  0.00    -0.304 N 
ATOM     35  H25 NON d   1     -39.005  20.373  -4.925  0.00  0.00     0.171 HD
BRANCH  34  36
ATOM     36  C17 NON d   1     -39.082  21.087  -6.790  0.00  0.00     0.173 A 
ATOM     37  N6  NON d   1     -39.795  21.679  -7.725  0.00  0.00    -0.223 NA
ATOM     38  C18 NON d   1     -38.955  22.155  -8.756  0.00  0.00     0.076 A 
ATOM     39  C25 NON d   1     -37.611  21.958  -8.499  0.00  0.00     0.085 A 
ATOM     40  S2  NON d   1     -37.394  21.141  -7.012  0.00  0.00    -0.061 SA
BRANCH  38  41
ATOM     41  C19 NON d   1     -39.428  22.752 -10.026  0.00  0.00    -0.007 A 
ATOM     42  C20 NON d   1     -39.223  22.104 -11.248  0.00  0.00     0.014 A 
ATOM     43  C21 NON d   1     -39.570  22.725 -12.463  0.00  0.00     0.001 A 
ATOM     44  C22 NON d   1     -40.136  23.999 -12.477  0.00  0.00     0.000 A 
ATOM     45  C23 NON d   1     -40.371  24.650 -11.270  0.00  0.00     0.001 A 
ATOM     46  C24 NON d   1     -40.024  24.030 -10.059  0.00  0.00     0.014 A 
ENDBRANCH  38  41
ENDBRANCH  34  36
ENDBRANCH   1  32
TORSDOF 14
ENDMDL
MODEL 3
REMARK VINA RESULT:   -36.176      2.483      8.197
REMARK INTER + INTRA:         -42.808
REMARK INTER:                 -40.352
REMARK INTRA:                  -2.457
REMARK CONF_INDEPENDENT:        4.176
REMARK UNBOUND:                -2.457
REMARK  14 active torsions:
REMARK  status: ('A' for Active; 'I' for Inactive)
REMARK    1  A    between atoms: O1_2  and  C2_3 
REMARK    2  A    between atoms: C8_10  and  C9_11 
REMARK    3  A    between atoms: C9_11  and  C10_12 
REMARK       I    between atoms: C10_12  and  N2_14 
REMARK    4  A    between atoms: C11_15  and  N2_14 
REMARK    5  A    between atoms: C11_15  and  C12_16 
REMARK    6  A    between atoms: C11_15  and  C16_25 
REMARK    7  A    between atoms: C12_16  and  C13_17 
REMARK    8  A    between atoms: C13_17  and  C14_18 
REMARK    9  A    between atoms: C14_18  and  C15_19 
REMARK   10  A    between atoms: C15_19  and  N3_20 
REMARK   11  A    between atoms: N3_20  and  S1_21 
REMARK   12  A    between atoms: S1_21  and  N4_22 
REMARK       I    between atoms: C16_25  and  N5_27 
REMARK   13  A    between atoms: N5_27  and  C17_28 
REMARK   14  A    between atoms: C18_30  and  C19_31 
ROOT
ATOM      1  C11 NON d   1     -40.369  19.186  -5.600  0.00  0.00     0.177 C 
ENDROOT
BRANCH   1   2
ATOM      2  N2  NON d   1     -40.330  19.600  -7.080  0.00  0.00    -0.348 N 
ATOM      3  C10 NON d   1     -39.534  20.565  -7.718  0.00  0.00     0.222 C 
ATOM      4  O2  NON d   1     -38.612  21.112  -7.117  0.00  0.00    -0.273 OA
ATOM      5  H12 NON d   1     -40.802  18.948  -7.697  0.00  0.00     0.163 HD
BRANCH   3   6
ATOM      6  C9  NON d   1     -39.847  20.853  -9.247  0.00  0.00     0.144 C 
BRANCH   6   7
ATOM      7  C8  NON d   1     -39.566  22.274  -9.837  0.00  0.00    -0.015 A 
ATOM      8  C6  NON d   1     -39.130  22.569 -11.134  0.00  0.00     0.013 A 
ATOM      9  N1  NON d   1     -39.076  23.929 -11.281  0.00  0.00    -0.359 N 
ATOM     10  C7  NON d   1     -38.769  21.741 -12.322  0.00  0.00     0.068 C 
ATOM     11  C5  NON d   1     -39.337  24.582 -10.110  0.00  0.00     0.043 A 
ATOM     12  H6  NON d   1     -38.829  24.401 -12.139  0.00  0.00     0.166 HD
ATOM     13  C4  NON d   1     -39.313  25.969  -9.868  0.00  0.00     0.033 A 
ATOM     14  C26 NON d   1     -39.641  23.614  -9.147  0.00  0.00     0.002 A 
ATOM     15  C3  NON d   1     -39.576  26.452  -8.585  0.00  0.00     0.039 A 
ATOM     16  C2  NON d   1     -39.863  25.575  -7.557  0.00  0.00     0.069 A 
ATOM     17  C27 NON d   1     -39.916  24.154  -7.834  0.00  0.00     0.051 A 
BRANCH  16  18
ATOM     18  O1  NON d   1     -40.085  26.006  -6.265  0.00  0.00    -0.356 OA
ATOM     19  C1  NON d   1     -40.997  27.205  -5.948  0.00  0.00     0.210 C 
ENDBRANCH  16  18
ENDBRANCH   6   7
ENDBRANCH   3   6
ENDBRANCH   1   2
BRANCH   1  20
ATOM     20  C12 NON d   1     -41.263  17.950  -5.304  0.00  0.00     0.035 C 
BRANCH  20  21
ATOM     21  C13 NON d   1     -42.790  18.138  -5.142  0.00  0.00     0.004 C 
BRANCH  21  22
ATOM     22  C14 NON d   1     -43.574  16.899  -4.658  0.00  0.00     0.015 C 
BRANCH  22  23
ATOM     23  C15 NON d   1     -44.664  17.201  -3.642  0.00  0.00     0.105 C 
BRANCH  23  24
ATOM     24  N3  NON d   1     -46.038  16.971  -4.154  0.00  0.00    -0.207 NA
ATOM     25  H22 NON d   1     -46.403  16.117  -3.727  0.00  0.00     0.140 HD
BRANCH  24  26
ATOM     26  S1  NON d   1     -46.170  16.747  -5.804  0.00  0.00     0.276 S 
ATOM     27  O3  NON d   1     -45.563  15.499  -6.173  0.00  0.00    -0.194 OA
ATOM     28  O4  NON d   1     -45.935  17.990  -6.487  0.00  0.00    -0.194 OA
BRANCH  26  29
ATOM     29  N4  NON d   1     -47.811  16.505  -5.810  0.00  0.00    -0.216 NA
ATOM     30  H23 NON d   1     -48.264  17.291  -5.335  0.00  0.00     0.137 HD
ATOM     31  H24 NON d   1     -48.130  16.428  -6.775  0.00  0.00     0.137 HD
ENDBRANCH  26  29
ENDBRANCH  24  26
ENDBRANCH  23  24
ENDBRANCH  22  23
ENDBRANCH  21  22
ENDBRANCH  20  21
ENDBRANCH   1  20
BRANCH   1  32
ATOM     32  C16 NON d   1     -40.698  20.448  -4.699  0.00  0.00     0.246 C 
ATOM     33  O5  NON d   1     -41.812  20.524  -4.170  0.00  0.00    -0.271 OA
ATOM     34  N5  NON d   1     -39.680  21.394  -4.561  0.00  0.00    -0.304 N 
ATOM     35  H25 NON d   1     -38.801  21.280  -5.042  0.00  0.00     0.171 HD
BRANCH  34  36
ATOM     36  C17 NON d   1     -39.643  22.485  -3.688  0.00  0.00     0.173 A 
ATOM     37  N6  NON d   1     -39.990  22.402  -2.421  0.00  0.00    -0.223 NA
ATOM     38  C18 NON d   1     -39.956  23.679  -1.818  0.00  0.00     0.076 A 
ATOM     39  C25 NON d   1     -39.500  24.671  -2.666  0.00  0.00     0.085 A 
ATOM     40  S2  NON d   1     -39.164  24.032  -4.217  0.00  0.00    -0.061 SA
BRANCH  38  41
ATOM     41  C19 NON d   1     -40.415  23.979  -0.442  0.00  0.00    -0.007 A 
ATOM     42  C20 NON d   1     -40.519  25.296   0.013  0.00  0.00     0.014 A 
ATOM     43  C21 NON d   1     -40.845  25.575   1.354  0.00  0.00     0.001 A 
ATOM     44  C22 NON d   1     -41.080  24.542   2.260  0.00  0.00     0.000 A 
ATOM     45  C23 NON d   1     -41.004  23.224   1.821  0.00  0.00     0.001 A 
ATOM     46  C24 NON d   1     -40.680  22.947   0.484  0.00  0.00     0.014 A 
ENDBRANCH  38  41
ENDBRANCH  34  36
ENDBRANCH   1  32
TORSDOF 14
ENDMDL
MODEL 4
REMARK VINA RESULT:   -36.100      2.348      9.547
REMARK INTER + INTRA:         -42.143
REMARK INTER:                 -40.276
REMARK INTRA:                  -1.867
REMARK CONF_INDEPENDENT:        4.176
REMARK UNBOUND:                -1.867
REMARK  14 active torsions:
REMARK  status: ('A' for Active; 'I' for Inactive)
REMARK    1  A    between atoms: O1_2  and  C2_3 
REMARK    2  A    between atoms: C8_10  and  C9_11 
REMARK    3  A    between atoms: C9_11  and  C10_12 
REMARK       I    between atoms: C10_12  and  N2_14 
REMARK    4  A    between atoms: C11_15  and  N2_14 
REMARK    5  A    between atoms: C11_15  and  C12_16 
REMARK    6  A    between atoms: C11_15  and  C16_25 
REMARK    7  A    between atoms: C12_16  and  C13_17 
REMARK    8  A    between atoms: C13_17  and  C14_18 
REMARK    9  A    between atoms: C14_18  and  C15_19 
REMARK   10  A    between atoms: C15_19  and  N3_20 
REMARK   11  A    between atoms: N3_20  and  S1_21 
REMARK   12  A    between atoms: S1_21  and  N4_22 
REMARK       I    between atoms: C16_25  and  N5_27 
REMARK   13  A    between atoms: N5_27  and  C17_28 
REMARK   14  A    between atoms: C18_30  and  C19_31 
ROOT
ATOM      1  C11 NON d   1     -40.408  19.134  -5.524  0.00  0.00     0.177 C 
ENDROOT
BRANCH   1   2
ATOM      2  N2  NON d   1     -40.114  19.401  -7.009  0.00  0.00    -0.348 N 
ATOM      3  C10 NON d   1     -39.342  20.414  -7.600  0.00  0.00     0.222 C 
ATOM      4  O2  NON d   1     -38.652  21.158  -6.909  0.00  0.00    -0.273 OA
ATOM      5  H12 NON d   1     -40.351  18.623  -7.615  0.00  0.00     0.163 HD
BRANCH   3   6
ATOM      6  C9  NON d   1     -39.360  20.493  -9.186  0.00  0.00     0.144 C 
BRANCH   6   7
ATOM      7  C8  NON d   1     -38.989  21.838  -9.894  0.00  0.00    -0.015 A 
ATOM      8  C6  NON d   1     -39.306  23.128  -9.455  0.00  0.00     0.013 A 
ATOM      9  N1  NON d   1     -38.739  24.035 -10.310  0.00  0.00    -0.359 N 
ATOM     10  C7  NON d   1     -40.065  23.672  -8.291  0.00  0.00     0.068 C 
ATOM     11  C5  NON d   1     -38.150  23.428 -11.383  0.00  0.00     0.043 A 
ATOM     12  H6  NON d   1     -38.785  25.037 -10.192  0.00  0.00     0.166 HD
ATOM     13  C4  NON d   1     -37.523  24.040 -12.486  0.00  0.00     0.033 A 
ATOM     14  C26 NON d   1     -38.274  22.047 -11.207  0.00  0.00     0.002 A 
ATOM     15  C3  NON d   1     -37.004  23.248 -13.513  0.00  0.00     0.039 A 
ATOM     16  C2  NON d   1     -37.100  21.872 -13.445  0.00  0.00     0.069 A 
ATOM     17  C27 NON d   1     -37.717  21.262 -12.285  0.00  0.00     0.051 A 
BRANCH  16  18
ATOM     18  O1  NON d   1     -36.640  21.054 -14.458  0.00  0.00    -0.356 OA
ATOM     19  C1  NON d   1     -37.316  21.005 -15.840  0.00  0.00     0.210 C 
ENDBRANCH  16  18
ENDBRANCH   6   7
ENDBRANCH   3   6
ENDBRANCH   1   2
BRANCH   1  20
ATOM     20  C12 NON d   1     -41.294  17.886  -5.260  0.00  0.00     0.035 C 
BRANCH  20  21
ATOM     21  C13 NON d   1     -42.592  18.036  -4.431  0.00  0.00     0.004 C 
BRANCH  21  22
ATOM     22  C14 NON d   1     -43.612  16.885  -4.561  0.00  0.00     0.015 C 
BRANCH  22  23
ATOM     23  C15 NON d   1     -44.712  16.897  -3.511  0.00  0.00     0.105 C 
BRANCH  23  24
ATOM     24  N3  NON d   1     -46.081  16.837  -4.080  0.00  0.00    -0.207 NA
ATOM     25  H22 NON d   1     -46.544  15.998  -3.722  0.00  0.00     0.140 HD
BRANCH  24  26
ATOM     26  S1  NON d   1     -46.172  16.729  -5.746  0.00  0.00     0.276 S 
ATOM     27  O3  NON d   1     -45.564  15.505  -6.185  0.00  0.00    -0.194 OA
ATOM     28  O4  NON d   1     -45.911  18.015  -6.334  0.00  0.00    -0.194 OA
BRANCH  26  29
ATOM     29  N4  NON d   1     -47.813  16.503  -5.810  0.00  0.00    -0.216 NA
ATOM     30  H23 NON d   1     -48.279  17.346  -5.462  0.00  0.00     0.137 HD
ATOM     31  H24 NON d   1     -48.082  16.308  -6.773  0.00  0.00     0.137 HD
ENDBRANCH  26  29
ENDBRANCH  24  26
ENDBRANCH  23  24
ENDBRANCH  22  23
ENDBRANCH  21  22
ENDBRANCH  20  21
ENDBRANCH   1  20
BRANCH   1  32
ATOM     32  C16 NON d   1     -40.944  20.460  -4.837  0.00  0.00     0.246 C 
ATOM     33  O5  NON d   1     -42.147  20.545  -4.574  0.00  0.00    -0.271 OA
ATOM     34  N5  NON d   1     -39.993  21.447  -4.570  0.00  0.00    -0.304 N 
ATOM     35  H25 NON d   1     -39.029  21.320  -4.835  0.00  0.00     0.171 HD
BRANCH  34  36
ATOM     36  C17 NON d   1     -40.163  22.611  -3.816  0.00  0.00     0.173 A 
ATOM     37  N6  NON d   1     -39.998  22.651  -2.510  0.00  0.00    -0.223 NA
ATOM     38  C18 NON d   1     -40.342  23.926  -2.010  0.00  0.00     0.076 A 
ATOM     39  C25 NON d   1     -40.685  24.826  -3.001  0.00  0.00     0.085 A 
ATOM     40  S2  NON d   1     -40.630  24.081  -4.540  0.00  0.00    -0.061 SA
BRANCH  38  41
ATOM     41  C19 NON d   1     -40.405  24.284  -0.574  0.00  0.00    -0.007 A 
ATOM     42  C20 NON d   1     -40.894  23.381   0.374  0.00  0.00     0.014 A 
ATOM     43  C21 NON d   1     -41.059  23.763   1.719  0.00  0.00     0.001 A 
ATOM     44  C22 NON d   1     -40.731  25.050   2.140  0.00  0.00     0.000 A 
ATOM     45  C23 NON d   1     -40.221  25.957   1.217  0.00  0.00     0.001 A 
ATOM     46  C24 NON d   1     -40.056  25.575  -0.124  0.00  0.00     0.014 A 
ENDBRANCH  38  41
ENDBRANCH  34  36
ENDBRANCH   1  32
TORSDOF 14
ENDMDL
MODEL 5
REMARK VINA RESULT:   -35.856      2.327      3.608
REMARK INTER + INTRA:         -42.839
REMARK INTER:                 -40.032
REMARK INTRA:                  -2.807
REMARK CONF_INDEPENDENT:        4.176
REMARK UNBOUND:                -2.807
REMARK  14 active torsions:
REMARK  status: ('A' for Active; 'I' for Inactive)
REMARK    1  A    between atoms: O1_2  and  C2_3 
REMARK    2  A    between atoms: C8_10  and  C9_11 
REMARK    3  A    between atoms: C9_11  and  C10_12 
REMARK       I    between atoms: C10_12  and  N2_14 
REMARK    4  A    between atoms: C11_15  and  N2_14 
REMARK    5  A    between atoms: C11_15  and  C12_16 
REMARK    6  A    between atoms: C11_15  and  C16_25 
REMARK    7  A    between atoms: C12_16  and  C13_17 
REMARK    8  A    between atoms: C13_17  and  C14_18 
REMARK    9  A    between atoms: C14_18  and  C15_19 
REMARK   10  A    between atoms: C15_19  and  N3_20 
REMARK   11  A    between atoms: N3_20  and  S1_21 
REMARK   12  A    between atoms: S1_21  and  N4_22 
REMARK       I    between atoms: C16_25  and  N5_27 
REMARK   13  A    between atoms: N5_27  and  C17_28 
REMARK   14  A    between atoms: C18_30  and  C19_31 
ROOT
ATOM      1  C11 NON d   1     -41.427  19.604  -5.234  0.00  0.00     0.177 C 
ENDROOT
BRANCH   1   2
ATOM      2  N2  NON d   1     -41.278  20.469  -3.971  0.00  0.00    -0.348 N 
ATOM      3  C10 NON d   1     -40.130  21.065  -3.426  0.00  0.00     0.222 C 
ATOM      4  O2  NON d   1     -39.071  21.067  -4.048  0.00  0.00    -0.273 OA
ATOM      5  H12 NON d   1     -42.161  20.808  -3.606  0.00  0.00     0.163 HD
BRANCH   3   6
ATOM      6  C9  NON d   1     -40.296  21.780  -2.018  0.00  0.00     0.144 C 
BRANCH   6   7
ATOM      7  C8  NON d   1     -40.571  23.318  -1.963  0.00  0.00    -0.015 A 
ATOM      8  C6  NON d   1     -40.875  24.072  -0.824  0.00  0.00     0.013 A 
ATOM      9  N1  NON d   1     -40.972  25.390  -1.182  0.00  0.00    -0.359 N 
ATOM     10  C7  NON d   1     -41.068  23.743   0.618  0.00  0.00     0.068 C 
ATOM     11  C5  NON d   1     -40.868  25.563  -2.533  0.00  0.00     0.043 A 
ATOM     12  H6  NON d   1     -41.143  26.147  -0.535  0.00  0.00     0.166 HD
ATOM     13  C4  NON d   1     -40.977  26.762  -3.263  0.00  0.00     0.033 A 
ATOM     14  C26 NON d   1     -40.629  24.308  -3.101  0.00  0.00     0.002 A 
ATOM     15  C3  NON d   1     -40.877  26.737  -4.656  0.00  0.00     0.039 A 
ATOM     16  C2  NON d   1     -40.667  25.541  -5.315  0.00  0.00     0.069 A 
ATOM     17  C27 NON d   1     -40.523  24.324  -4.543  0.00  0.00     0.051 A 
BRANCH  16  18
ATOM     18  O1  NON d   1     -40.606  25.464  -6.692  0.00  0.00    -0.356 OA
ATOM     19  C1  NON d   1     -40.565  26.720  -7.581  0.00  0.00     0.210 C 
ENDBRANCH  16  18
ENDBRANCH   6   7
ENDBRANCH   3   6
ENDBRANCH   1   2
BRANCH   1  20
ATOM     20  C12 NON d   1     -41.133  18.094  -5.014  0.00  0.00     0.035 C 
BRANCH  20  21
ATOM     21  C13 NON d   1     -42.237  17.182  -4.429  0.00  0.00     0.004 C 
BRANCH  21  22
ATOM     22  C14 NON d   1     -43.690  17.596  -4.746  0.00  0.00     0.015 C 
BRANCH  22  23
ATOM     23  C15 NON d   1     -44.689  17.282  -3.642  0.00  0.00     0.105 C 
BRANCH  23  24
ATOM     24  N3  NON d   1     -46.039  16.924  -4.144  0.00  0.00    -0.207 NA
ATOM     25  H22 NON d   1     -46.307  16.024  -3.737  0.00  0.00     0.140 HD
BRANCH  24  26
ATOM     26  S1  NON d   1     -46.172  16.730  -5.799  0.00  0.00     0.276 S 
ATOM     27  O3  NON d   1     -45.577  15.484  -6.190  0.00  0.00    -0.194 OA
ATOM     28  O4  NON d   1     -45.925  17.984  -6.459  0.00  0.00    -0.194 OA
BRANCH  26  29
ATOM     29  N4  NON d   1     -47.815  16.505  -5.810  0.00  0.00    -0.216 NA
ATOM     30  H23 NON d   1     -48.142  16.497  -6.780  0.00  0.00     0.137 HD
ATOM     31  H24 NON d   1     -48.031  15.625  -5.344  0.00  0.00     0.137 HD
ENDBRANCH  26  29
ENDBRANCH  24  26
ENDBRANCH  23  24
ENDBRANCH  22  23
ENDBRANCH  21  22
ENDBRANCH  20  21
ENDBRANCH   1  20
BRANCH   1  32
ATOM     32  C16 NON d   1     -40.608  20.252  -6.427  0.00  0.00     0.246 C 
ATOM     33  O5  NON d   1     -40.365  19.561  -7.422  0.00  0.00    -0.271 OA
ATOM     34  N5  NON d   1     -40.221  21.583  -6.263  0.00  0.00    -0.304 N 
ATOM     35  H25 NON d   1     -40.432  22.080  -5.411  0.00  0.00     0.171 HD
BRANCH  34  36
ATOM     36  C17 NON d   1     -39.663  22.433  -7.222  0.00  0.00     0.173 A 
ATOM     37  N6  NON d   1     -40.090  22.489  -8.465  0.00  0.00    -0.223 NA
ATOM     38  C18 NON d   1     -39.271  23.352  -9.228  0.00  0.00     0.076 A 
ATOM     39  C25 NON d   1     -38.291  23.975  -8.479  0.00  0.00     0.085 A 
ATOM     40  S2  NON d   1     -38.352  23.455  -6.850  0.00  0.00    -0.061 SA
BRANCH  38  41
ATOM     41  C19 NON d   1     -39.378  23.547 -10.692  0.00  0.00    -0.007 A 
ATOM     42  C20 NON d   1     -38.603  22.794 -11.579  0.00  0.00     0.014 A 
ATOM     43  C21 NON d   1     -38.621  23.059 -12.961  0.00  0.00     0.001 A 
ATOM     44  C22 NON d   1     -39.422  24.075 -13.481  0.00  0.00     0.000 A 
ATOM     45  C23 NON d   1     -40.219  24.820 -12.618  0.00  0.00     0.001 A 
ATOM     46  C24 NON d   1     -40.200  24.555 -11.240  0.00  0.00     0.014 A 
ENDBRANCH  38  41
ENDBRANCH  34  36
ENDBRANCH   1  32
TORSDOF 14
ENDMDL
MODEL 6
REMARK VINA RESULT:   -35.813      2.193      7.854
REMARK INTER + INTRA:         -42.321
REMARK INTER:                 -39.990
REMARK INTRA:                  -2.332
REMARK CONF_INDEPENDENT:        4.176
REMARK UNBOUND:                -2.332
REMARK  14 active torsions:
REMARK  status: ('A' for Active; 'I' for Inactive)
REMARK    1  A    between atoms: O1_2  and  C2_3 
REMARK    2  A    between atoms: C8_10  and  C9_11 
REMARK    3  A    between atoms: C9_11  and  C10_12 
REMARK       I    between atoms: C10_12  and  N2_14 
REMARK    4  A    between atoms: C11_15  and  N2_14 
REMARK    5  A    between atoms: C11_15  and  C12_16 
REMARK    6  A    between atoms: C11_15  and  C16_25 
REMARK    7  A    between atoms: C12_16  and  C13_17 
REMARK    8  A    between atoms: C13_17  and  C14_18 
REMARK    9  A    between atoms: C14_18  and  C15_19 
REMARK   10  A    between atoms: C15_19  and  N3_20 
REMARK   11  A    between atoms: N3_20  and  S1_21 
REMARK   12  A    between atoms: S1_21  and  N4_22 
REMARK       I    between atoms: C16_25  and  N5_27 
REMARK   13  A    between atoms: N5_27  and  C17_28 
REMARK   14  A    between atoms: C18_30  and  C19_31 
ROOT
ATOM      1  C11 NON d   1     -41.027  18.979  -5.551  0.00  0.00     0.177 C 
ENDROOT
BRANCH   1   2
ATOM      2  N2  NON d   1     -39.913  19.551  -6.442  0.00  0.00    -0.348 N 
ATOM      3  C10 NON d   1     -39.325  19.010  -7.597  0.00  0.00     0.222 C 
ATOM      4  O2  NON d   1     -39.794  18.006  -8.127  0.00  0.00    -0.273 OA
ATOM      5  H12 NON d   1     -39.726  20.534  -6.278  0.00  0.00     0.163 HD
BRANCH   3   6
ATOM      6  C9  NON d   1     -38.085  19.795  -8.203  0.00  0.00     0.144 C 
BRANCH   6   7
ATOM      7  C8  NON d   1     -38.210  21.327  -8.492  0.00  0.00    -0.015 A 
ATOM      8  C6  NON d   1     -38.006  21.965  -9.721  0.00  0.00     0.013 A 
ATOM      9  N1  NON d   1     -38.285  23.297  -9.577  0.00  0.00    -0.359 N 
ATOM     10  C7  NON d   1     -37.601  21.497 -11.079  0.00  0.00     0.068 C 
ATOM     11  C5  NON d   1     -38.555  23.627  -8.279  0.00  0.00     0.043 A 
ATOM     12  H6  NON d   1     -38.254  23.972 -10.329  0.00  0.00     0.166 HD
ATOM     13  C4  NON d   1     -38.826  24.903  -7.749  0.00  0.00     0.033 A 
ATOM     14  C26 NON d   1     -38.515  22.449  -7.528  0.00  0.00     0.002 A 
ATOM     15  C3  NON d   1     -39.046  25.050  -6.378  0.00  0.00     0.039 A 
ATOM     16  C2  NON d   1     -39.002  23.949  -5.545  0.00  0.00     0.069 A 
ATOM     17  C27 NON d   1     -38.755  22.640  -6.115  0.00  0.00     0.051 A 
BRANCH  16  18
ATOM     18  O1  NON d   1     -39.169  24.055  -4.179  0.00  0.00    -0.356 OA
ATOM     19  C1  NON d   1     -40.560  24.176  -3.532  0.00  0.00     0.210 C 
ENDBRANCH  16  18
ENDBRANCH   6   7
ENDBRANCH   3   6
ENDBRANCH   1   2
BRANCH   1  20
ATOM     20  C12 NON d   1     -42.465  19.371  -5.992  0.00  0.00     0.035 C 
BRANCH  20  21
ATOM     21  C13 NON d   1     -43.670  18.940  -5.123  0.00  0.00     0.004 C 
BRANCH  21  22
ATOM     22  C14 NON d   1     -43.638  17.489  -4.600  0.00  0.00     0.015 C 
BRANCH  22  23
ATOM     23  C15 NON d   1     -44.736  17.155  -3.601  0.00  0.00     0.105 C 
BRANCH  23  24
ATOM     24  N3  NON d   1     -46.103  17.213  -4.175  0.00  0.00    -0.207 NA
ATOM     25  H22 NON d   1     -46.671  16.488  -3.731  0.00  0.00     0.140 HD
BRANCH  24  26
ATOM     26  S1  NON d   1     -46.213  16.934  -5.819  0.00  0.00     0.276 S 
ATOM     27  O3  NON d   1     -45.468  15.756  -6.161  0.00  0.00    -0.194 OA
ATOM     28  O4  NON d   1     -46.125  18.178  -6.534  0.00  0.00    -0.194 OA
BRANCH  26  29
ATOM     29  N4  NON d   1     -47.815  16.505  -5.810  0.00  0.00    -0.216 NA
ATOM     30  H23 NON d   1     -47.985  15.838  -6.567  0.00  0.00     0.137 HD
ATOM     31  H24 NON d   1     -48.042  16.096  -4.905  0.00  0.00     0.137 HD
ENDBRANCH  26  29
ENDBRANCH  24  26
ENDBRANCH  23  24
ENDBRANCH  22  23
ENDBRANCH  21  22
ENDBRANCH  20  21
ENDBRANCH   1  20
BRANCH   1  32
ATOM     32  C16 NON d   1     -40.713  19.295  -4.030  0.00  0.00     0.246 C 
ATOM     33  O5  NON d   1     -41.175  18.548  -3.162  0.00  0.00    -0.271 OA
ATOM     34  N5  NON d   1     -39.914  20.413  -3.781  0.00  0.00    -0.304 N 
ATOM     35  H25 NON d   1     -39.589  20.994  -4.538  0.00  0.00     0.171 HD
BRANCH  34  36
ATOM     36  C17 NON d   1     -39.342  20.798  -2.565  0.00  0.00     0.173 A 
ATOM     37  N6  NON d   1     -39.951  21.587  -1.704  0.00  0.00    -0.223 NA
ATOM     38  C18 NON d   1     -39.093  21.890  -0.624  0.00  0.00     0.076 A 
ATOM     39  C25 NON d   1     -37.878  21.235  -0.692  0.00  0.00     0.085 A 
ATOM     40  S2  NON d   1     -37.781  20.288  -2.114  0.00  0.00    -0.061 SA
BRANCH  38  41
ATOM     41  C19 NON d   1     -39.400  22.856   0.457  0.00  0.00    -0.007 A 
ATOM     42  C20 NON d   1     -38.407  23.291   1.339  0.00  0.00     0.014 A 
ATOM     43  C21 NON d   1     -38.723  24.118   2.433  0.00  0.00     0.001 A 
ATOM     44  C22 NON d   1     -40.036  24.530   2.659  0.00  0.00     0.000 A 
ATOM     45  C23 NON d   1     -41.035  24.127   1.779  0.00  0.00     0.001 A 
ATOM     46  C24 NON d   1     -40.718  23.303   0.688  0.00  0.00     0.014 A 
ENDBRANCH  38  41
ENDBRANCH  34  36
ENDBRANCH   1  32
TORSDOF 14
ENDMDL
MODEL 7
REMARK VINA RESULT:   -35.591      1.509      2.284
REMARK INTER + INTRA:         -42.177
REMARK INTER:                 -39.767
REMARK INTRA:                  -2.410
REMARK CONF_INDEPENDENT:        4.176
REMARK UNBOUND:                -2.410
REMARK  14 active torsions:
REMARK  status: ('A' for Active; 'I' for Inactive)
REMARK    1  A    between atoms: O1_2  and  C2_3 
REMARK    2  A    between atoms: C8_10  and  C9_11 
REMARK    3  A    between atoms: C9_11  and  C10_12 
REMARK       I    between atoms: C10_12  and  N2_14 
REMARK    4  A    between atoms: C11_15  and  N2_14 
REMARK    5  A    between atoms: C11_15  and  C12_16 
REMARK    6  A    between atoms: C11_15  and  C16_25 
REMARK    7  A    between atoms: C12_16  and  C13_17 
REMARK    8  A    between atoms: C13_17  and  C14_18 
REMARK    9  A    between atoms: C14_18  and  C15_19 
REMARK   10  A    between atoms: C15_19  and  N3_20 
REMARK   11  A    between atoms: N3_20  and  S1_21 
REMARK   12  A    between atoms: S1_21  and  N4_22 
REMARK       I    between atoms: C16_25  and  N5_27 
REMARK   13  A    between atoms: N5_27  and  C17_28 
REMARK   14  A    between atoms: C18_30  and  C19_31 
ROOT
ATOM      1  C11 NON d   1     -41.955  19.256  -5.956  0.00  0.00     0.177 C 
ENDROOT
BRANCH   1   2
ATOM      2  N2  NON d   1     -41.724  20.220  -4.781  0.00  0.00    -0.348 N 
ATOM      3  C10 NON d   1     -40.522  20.609  -4.167  0.00  0.00     0.222 C 
ATOM      4  O2  NON d   1     -39.440  20.294  -4.655  0.00  0.00    -0.273 OA
ATOM      5  H12 NON d   1     -42.531  20.792  -4.560  0.00  0.00     0.163 HD
BRANCH   3   6
ATOM      6  C9  NON d   1     -40.644  21.516  -2.870  0.00  0.00     0.144 C 
BRANCH   6   7
ATOM      7  C8  NON d   1     -40.568  23.073  -3.010  0.00  0.00    -0.015 A 
ATOM      8  C6  NON d   1     -40.314  23.795  -4.181  0.00  0.00     0.013 A 
ATOM      9  N1  NON d   1     -40.406  25.132  -3.901  0.00  0.00    -0.359 N 
ATOM     10  C7  NON d   1     -40.014  23.413  -5.592  0.00  0.00     0.068 C 
ATOM     11  C5  NON d   1     -40.592  25.365  -2.569  0.00  0.00     0.043 A 
ATOM     12  H6  NON d   1     -40.304  25.867  -4.587  0.00  0.00     0.166 HD
ATOM     13  C4  NON d   1     -40.673  26.608  -1.911  0.00  0.00     0.033 A 
ATOM     14  C26 NON d   1     -40.691  24.124  -1.934  0.00  0.00     0.002 A 
ATOM     15  C3  NON d   1     -40.833  26.647  -0.524  0.00  0.00     0.039 A 
ATOM     16  C2  NON d   1     -40.915  25.473   0.199  0.00  0.00     0.069 A 
ATOM     17  C27 NON d   1     -40.864  24.206  -0.500  0.00  0.00     0.051 A 
BRANCH  16  18
ATOM     18  O1  NON d   1     -41.028  25.466   1.575  0.00  0.00    -0.356 OA
ATOM     19  C1  NON d   1     -40.549  24.278   2.430  0.00  0.00     0.210 C 
ENDBRANCH  16  18
ENDBRANCH   6   7
ENDBRANCH   3   6
ENDBRANCH   1   2
BRANCH   1  20
ATOM     20  C12 NON d   1     -41.798  17.753  -5.592  0.00  0.00     0.035 C 
BRANCH  20  21
ATOM     21  C13 NON d   1     -42.823  17.090  -4.642  0.00  0.00     0.004 C 
BRANCH  21  22
ATOM     22  C14 NON d   1     -43.933  18.014  -4.098  0.00  0.00     0.015 C 
BRANCH  22  23
ATOM     23  C15 NON d   1     -45.000  17.303  -3.280  0.00  0.00     0.105 C 
BRANCH  23  24
ATOM     24  N3  NON d   1     -46.303  17.178  -3.978  0.00  0.00    -0.207 NA
ATOM     25  H22 NON d   1     -46.796  16.366  -3.599  0.00  0.00     0.140 HD
BRANCH  24  26
ATOM     26  S1  NON d   1     -46.222  16.932  -5.629  0.00  0.00     0.276 S 
ATOM     27  O3  NON d   1     -45.441  15.760  -5.906  0.00  0.00    -0.194 OA
ATOM     28  O4  NON d   1     -46.054  18.191  -6.303  0.00  0.00    -0.194 OA
BRANCH  26  29
ATOM     29  N4  NON d   1     -47.814  16.505  -5.813  0.00  0.00    -0.216 NA
ATOM     30  H23 NON d   1     -47.889  15.818  -6.568  0.00  0.00     0.137 HD
ATOM     31  H24 NON d   1     -48.157  16.121  -4.934  0.00  0.00     0.137 HD
ENDBRANCH  26  29
ENDBRANCH  24  26
ENDBRANCH  23  24
ENDBRANCH  22  23
ENDBRANCH  21  22
ENDBRANCH  20  21
ENDBRANCH   1  20
BRANCH   1  32
ATOM     32  C16 NON d   1     -41.086  19.710  -7.202  0.00  0.00     0.246 C 
ATOM     33  O5  NON d   1     -41.649  20.289  -8.137  0.00  0.00    -0.271 OA
ATOM     34  N5  NON d   1     -39.721  19.423  -7.143  0.00  0.00    -0.304 N 
ATOM     35  H25 NON d   1     -39.332  18.926  -6.358  0.00  0.00     0.171 HD
BRANCH  34  36
ATOM     36  C17 NON d   1     -38.718  19.873  -8.007  0.00  0.00     0.173 A 
ATOM     37  N6  NON d   1     -38.846  20.946  -8.758  0.00  0.00    -0.223 NA
ATOM     38  C18 NON d   1     -37.723  21.091  -9.603  0.00  0.00     0.076 A 
ATOM     39  C25 NON d   1     -36.749  20.135  -9.383  0.00  0.00     0.085 A 
ATOM     40  S2  NON d   1     -37.245  19.034  -8.172  0.00  0.00    -0.061 SA
BRANCH  38  41
ATOM     41  C19 NON d   1     -37.592  22.108 -10.671  0.00  0.00    -0.007 A 
ATOM     42  C20 NON d   1     -38.502  22.163 -11.731  0.00  0.00     0.014 A 
ATOM     43  C21 NON d   1     -38.311  23.055 -12.803  0.00  0.00     0.001 A 
ATOM     44  C22 NON d   1     -37.213  23.913 -12.830  0.00  0.00     0.000 A 
ATOM     45  C23 NON d   1     -36.309  23.891 -11.773  0.00  0.00     0.001 A 
ATOM     46  C24 NON d   1     -36.500  23.002 -10.704  0.00  0.00     0.014 A 
ENDBRANCH  38  41
ENDBRANCH  34  36
ENDBRANCH   1  32
TORSDOF 14
ENDMDL
MODEL 8
REMARK VINA RESULT:   -35.396      2.191      4.154
REMARK INTER + INTRA:         -41.773
REMARK INTER:                 -39.572
REMARK INTRA:                  -2.201
REMARK CONF_INDEPENDENT:        4.176
REMARK UNBOUND:                -2.201
REMARK  14 active torsions:
REMARK  status: ('A' for Active; 'I' for Inactive)
REMARK    1  A    between atoms: O1_2  and  C2_3 
REMARK    2  A    between atoms: C8_10  and  C9_11 
REMARK    3  A    between atoms: C9_11  and  C10_12 
REMARK       I    between atoms: C10_12  and  N2_14 
REMARK    4  A    between atoms: C11_15  and  N2_14 
REMARK    5  A    between atoms: C11_15  and  C12_16 
REMARK    6  A    between atoms: C11_15  and  C16_25 
REMARK    7  A    between atoms: C12_16  and  C13_17 
REMARK    8  A    between atoms: C13_17  and  C14_18 
REMARK    9  A    between atoms: C14_18  and  C15_19 
REMARK   10  A    between atoms: C15_19  and  N3_20 
REMARK   11  A    between atoms: N3_20  and  S1_21 
REMARK   12  A    between atoms: S1_21  and  N4_22 
REMARK       I    between atoms: C16_25  and  N5_27 
REMARK   13  A    between atoms: N5_27  and  C17_28 
REMARK   14  A    between atoms: C18_30  and  C19_31 
ROOT
ATOM      1  C11 NON d   1     -41.673  19.723  -5.964  0.00  0.00     0.177 C 
ENDROOT
BRANCH   1   2
ATOM      2  N2  NON d   1     -41.405  20.904  -5.017  0.00  0.00    -0.348 N 
ATOM      3  C10 NON d   1     -40.714  20.930  -3.795  0.00  0.00     0.222 C 
ATOM      4  O2  NON d   1     -40.079  19.950  -3.414  0.00  0.00    -0.273 OA
ATOM      5  H12 NON d   1     -41.585  21.809  -5.436  0.00  0.00     0.163 HD
BRANCH   3   6
ATOM      6  C9  NON d   1     -40.744  22.296  -2.987  0.00  0.00     0.144 C 
BRANCH   6   7
ATOM      7  C8  NON d   1     -39.785  23.459  -3.404  0.00  0.00    -0.015 A 
ATOM      8  C6  NON d   1     -38.971  24.217  -2.554  0.00  0.00     0.013 A 
ATOM      9  N1  NON d   1     -38.230  25.083  -3.312  0.00  0.00    -0.359 N 
ATOM     10  C7  NON d   1     -38.746  24.238  -1.079  0.00  0.00     0.068 C 
ATOM     11  C5  NON d   1     -38.583  25.041  -4.631  0.00  0.00     0.043 A 
ATOM     12  H6  NON d   1     -37.533  25.714  -2.940  0.00  0.00     0.166 HD
ATOM     13  C4  NON d   1     -38.080  25.827  -5.686  0.00  0.00     0.033 A 
ATOM     14  C26 NON d   1     -39.564  24.056  -4.773  0.00  0.00     0.002 A 
ATOM     15  C3  NON d   1     -38.593  25.663  -6.975  0.00  0.00     0.039 A 
ATOM     16  C2  NON d   1     -39.585  24.733  -7.215  0.00  0.00     0.069 A 
ATOM     17  C27 NON d   1     -40.063  23.911  -6.122  0.00  0.00     0.051 A 
BRANCH  16  18
ATOM     18  O1  NON d   1     -40.151  24.570  -8.463  0.00  0.00    -0.356 OA
ATOM     19  C1  NON d   1     -40.317  25.743  -9.446  0.00  0.00     0.210 C 
ENDBRANCH  16  18
ENDBRANCH   6   7
ENDBRANCH   3   6
ENDBRANCH   1   2
BRANCH   1  20
ATOM     20  C12 NON d   1     -41.478  18.324  -5.316  0.00  0.00     0.035 C 
BRANCH  20  21
ATOM     21  C13 NON d   1     -42.706  17.410  -5.096  0.00  0.00     0.004 C 
BRANCH  21  22
ATOM     22  C14 NON d   1     -43.865  18.024  -4.281  0.00  0.00     0.015 C 
BRANCH  22  23
ATOM     23  C15 NON d   1     -44.711  17.009  -3.527  0.00  0.00     0.105 C 
BRANCH  23  24
ATOM     24  N3  NON d   1     -46.075  16.837  -4.085  0.00  0.00    -0.207 NA
ATOM     25  H22 NON d   1     -46.464  15.963  -3.724  0.00  0.00     0.140 HD
BRANCH  24  26
ATOM     26  S1  NON d   1     -46.169  16.722  -5.750  0.00  0.00     0.276 S 
ATOM     27  O3  NON d   1     -45.570  15.493  -6.185  0.00  0.00    -0.194 OA
ATOM     28  O4  NON d   1     -45.903  18.004  -6.344  0.00  0.00    -0.194 OA
BRANCH  26  29
ATOM     29  N4  NON d   1     -47.813  16.505  -5.810  0.00  0.00    -0.216 NA
ATOM     30  H23 NON d   1     -48.067  16.150  -6.736  0.00  0.00     0.137 HD
ATOM     31  H24 NON d   1     -48.086  15.850  -5.079  0.00  0.00     0.137 HD
ENDBRANCH  26  29
ENDBRANCH  24  26
ENDBRANCH  23  24
ENDBRANCH  22  23
ENDBRANCH  21  22
ENDBRANCH  20  21
ENDBRANCH   1  20
BRANCH   1  32
ATOM     32  C16 NON d   1     -40.867  19.925  -7.315  0.00  0.00     0.246 C 
ATOM     33  O5  NON d   1     -41.493  20.199  -8.343  0.00  0.00    -0.271 OA
ATOM     34  N5  NON d   1     -39.480  19.782  -7.235  0.00  0.00    -0.304 N 
ATOM     35  H25 NON d   1     -39.036  19.533  -6.365  0.00  0.00     0.171 HD
BRANCH  34  36
ATOM     36  C17 NON d   1     -38.535  20.086  -8.219  0.00  0.00     0.173 A 
ATOM     37  N6  NON d   1     -38.761  20.945  -9.191  0.00  0.00    -0.223 NA
ATOM     38  C18 NON d   1     -37.672  20.966 -10.091  0.00  0.00     0.076 A 
ATOM     39  C25 NON d   1     -36.624  20.157  -9.697  0.00  0.00     0.085 A 
ATOM     40  S2  NON d   1     -37.006  19.335  -8.246  0.00  0.00    -0.061 SA
BRANCH  38  41
ATOM     41  C19 NON d   1     -37.645  21.714 -11.369  0.00  0.00    -0.007 A 
ATOM     42  C20 NON d   1     -38.406  22.874 -11.543  0.00  0.00     0.014 A 
ATOM     43  C21 NON d   1     -38.467  23.518 -12.793  0.00  0.00     0.001 A 
ATOM     44  C22 NON d   1     -37.761  23.020 -13.887  0.00  0.00     0.000 A 
ATOM     45  C23 NON d   1     -36.979  21.881 -13.728  0.00  0.00     0.001 A 
ATOM     46  C24 NON d   1     -36.918  21.239 -12.482  0.00  0.00     0.014 A 
ENDBRANCH  38  41
ENDBRANCH  34  36
ENDBRANCH   1  32
TORSDOF 14
ENDMDL
MODEL 9
REMARK VINA RESULT:   -35.195      2.769      7.573
REMARK INTER + INTRA:         -42.485
REMARK INTER:                 -39.371
REMARK INTRA:                  -3.114
REMARK CONF_INDEPENDENT:        4.176
REMARK UNBOUND:                -3.114
REMARK  14 active torsions:
REMARK  status: ('A' for Active; 'I' for Inactive)
REMARK    1  A    between atoms: O1_2  and  C2_3 
REMARK    2  A    between atoms: C8_10  and  C9_11 
REMARK    3  A    between atoms: C9_11  and  C10_12 
REMARK       I    between atoms: C10_12  and  N2_14 
REMARK    4  A    between atoms: C11_15  and  N2_14 
REMARK    5  A    between atoms: C11_15  and  C12_16 
REMARK    6  A    between atoms: C11_15  and  C16_25 
REMARK    7  A    between atoms: C12_16  and  C13_17 
REMARK    8  A    between atoms: C13_17  and  C14_18 
REMARK    9  A    between atoms: C14_18  and  C15_19 
REMARK   10  A    between atoms: C15_19  and  N3_20 
REMARK   11  A    between atoms: N3_20  and  S1_21 
REMARK   12  A    between atoms: S1_21  and  N4_22 
REMARK       I    between atoms: C16_25  and  N5_27 
REMARK   13  A    between atoms: N5_27  and  C17_28 
REMARK   14  A    between atoms: C18_30  and  C19_31 
ROOT
ATOM      1  C11 NON d   1     -39.867  18.641  -4.511  0.00  0.00     0.177 C 
ENDROOT
BRANCH   1   2
ATOM      2  N2  NON d   1     -39.588  19.802  -5.478  0.00  0.00    -0.348 N 
ATOM      3  C10 NON d   1     -40.228  21.047  -5.589  0.00  0.00     0.222 C 
ATOM      4  O2  NON d   1     -41.050  21.405  -4.749  0.00  0.00    -0.273 OA
ATOM      5  H12 NON d   1     -38.698  19.725  -5.958  0.00  0.00     0.163 HD
BRANCH   3   6
ATOM      6  C9  NON d   1     -39.787  21.971  -6.802  0.00  0.00     0.144 C 
BRANCH   6   7
ATOM      7  C8  NON d   1     -39.711  23.521  -6.602  0.00  0.00    -0.015 A 
ATOM      8  C6  NON d   1     -39.920  24.501  -7.578  0.00  0.00     0.013 A 
ATOM      9  N1  NON d   1     -39.837  25.734  -6.989  0.00  0.00    -0.359 N 
ATOM     10  C7  NON d   1     -40.229  24.463  -9.038  0.00  0.00     0.068 C 
ATOM     11  C5  NON d   1     -39.461  25.651  -5.678  0.00  0.00     0.043 A 
ATOM     12  H6  NON d   1     -39.990  26.609  -7.471  0.00  0.00     0.166 HD
ATOM     13  C4  NON d   1     -39.220  26.707  -4.779  0.00  0.00     0.033 A 
ATOM     14  C26 NON d   1     -39.347  24.295  -5.358  0.00  0.00     0.002 A 
ATOM     15  C3  NON d   1     -38.806  26.425  -3.475  0.00  0.00     0.039 A 
ATOM     16  C2  NON d   1     -38.638  25.116  -3.068  0.00  0.00     0.069 A 
ATOM     17  C27 NON d   1     -38.925  24.043  -3.998  0.00  0.00     0.051 A 
BRANCH  16  18
ATOM     18  O1  NON d   1     -38.188  24.793  -1.803  0.00  0.00    -0.356 OA
ATOM     19  C1  NON d   1     -36.712  24.459  -1.521  0.00  0.00     0.210 C 
ENDBRANCH  16  18
ENDBRANCH   6   7
ENDBRANCH   3   6
ENDBRANCH   1   2
BRANCH   1  20
ATOM     20  C12 NON d   1     -41.060  17.735  -4.924  0.00  0.00     0.035 C 
BRANCH  20  21
ATOM     21  C13 NON d   1     -42.506  18.212  -4.650  0.00  0.00     0.004 C 
BRANCH  21  22
ATOM     22  C14 NON d   1     -43.589  17.113  -4.646  0.00  0.00     0.015 C 
BRANCH  22  23
ATOM     23  C15 NON d   1     -44.706  17.332  -3.637  0.00  0.00     0.105 C 
BRANCH  23  24
ATOM     24  N3  NON d   1     -46.049  16.950  -4.141  0.00  0.00    -0.207 NA
ATOM     25  H22 NON d   1     -46.303  16.048  -3.731  0.00  0.00     0.140 HD
BRANCH  24  26
ATOM     26  S1  NON d   1     -46.174  16.749  -5.795  0.00  0.00     0.276 S 
ATOM     27  O3  NON d   1     -45.564  15.509  -6.179  0.00  0.00    -0.194 OA
ATOM     28  O4  NON d   1     -45.939  18.003  -6.459  0.00  0.00    -0.194 OA
BRANCH  26  29
ATOM     29  N4  NON d   1     -47.815  16.505  -5.810  0.00  0.00    -0.216 NA
ATOM     30  H23 NON d   1     -48.085  16.124  -6.721  0.00  0.00     0.137 HD
ATOM     31  H24 NON d   1     -48.060  15.864  -5.058  0.00  0.00     0.137 HD
ENDBRANCH  26  29
ENDBRANCH  24  26
ENDBRANCH  23  24
ENDBRANCH  22  23
ENDBRANCH  21  22
ENDBRANCH  20  21
ENDBRANCH   1  20
BRANCH   1  32
ATOM     32  C16 NON d   1     -39.960  19.190  -3.026  0.00  0.00     0.246 C 
ATOM     33  O5  NON d   1     -40.398  18.443  -2.145  0.00  0.00    -0.271 OA
ATOM     34  N5  NON d   1     -39.525  20.501  -2.821  0.00  0.00    -0.304 N 
ATOM     35  H25 NON d   1     -39.201  21.063  -3.593  0.00  0.00     0.171 HD
BRANCH  34  36
ATOM     36  C17 NON d   1     -39.328  21.152  -1.601  0.00  0.00     0.173 A 
ATOM     37  N6  NON d   1     -40.195  22.004  -1.094  0.00  0.00    -0.223 NA
ATOM     38  C18 NON d   1     -39.681  22.584   0.087  0.00  0.00     0.076 A 
ATOM     39  C25 NON d   1     -38.454  22.068   0.458  0.00  0.00     0.085 A 
ATOM     40  S2  NON d   1     -37.917  20.908  -0.678  0.00  0.00    -0.061 SA
BRANCH  38  41
ATOM     41  C19 NON d   1     -40.329  23.681   0.843  0.00  0.00    -0.007 A 
ATOM     42  C20 NON d   1     -41.054  24.680   0.187  0.00  0.00     0.014 A 
ATOM     43  C21 NON d   1     -41.571  25.781   0.895  0.00  0.00     0.001 A 
ATOM     44  C22 NON d   1     -41.380  25.898   2.271  0.00  0.00     0.000 A 
ATOM     45  C23 NON d   1     -40.683  24.902   2.946  0.00  0.00     0.001 A 
ATOM     46  C24 NON d   1     -40.167  23.804   2.240  0.00  0.00     0.014 A 
ENDBRANCH  38  41
ENDBRANCH  34  36
ENDBRANCH   1  32
TORSDOF 14
ENDMDL
