MODEL 1
REMARK VINA RESULT:   -35.697      0.000      0.000
REMARK INTER + INTRA:         -40.530
REMARK INTER:                 -38.382
REMARK INTRA:                  -2.148
REMARK CONF_INDEPENDENT:        2.685
REMARK UNBOUND:                -2.148
REMARK  9 active torsions:
REMARK  status: ('A' for Active; 'I' for Inactive)
REMARK    1  A    between atoms: O1_2  and  C2_3 
REMARK    2  A    between atoms: C5_6  and  C6_7 
REMARK    3  A    between atoms: C9_11  and  N2_12 
REMARK    4  A    between atoms: N2_12  and  C10_13 
REMARK    5  A    between atoms: C10_13  and  C11_14 
REMARK    6  A    between atoms: C14_17  and  C15_18 
REMARK       I    between atoms: C15_18  and  N3_20 
REMARK    7  A    between atoms: N3_20  and  C16_21 
REMARK    8  A    between atoms: C21_26  and  N4_27 
REMARK    9  A    between atoms: C25_32  and  O3_33 
ROOT
ATOM      1  C11 NON d   1     -41.095  18.780  -3.637  0.00  0.00    -0.045 A 
ATOM      2  C12 NON d   1     -41.893  19.351  -4.655  0.00  0.00     0.009 A 
ATOM      3  C13 NON d   1     -43.139  18.808  -5.026  0.00  0.00     0.017 A 
ATOM      4  C14 NON d   1     -43.622  17.662  -4.389  0.00  0.00     0.032 A 
ATOM      5  C22 NON d   1     -42.825  17.089  -3.378  0.00  0.00     0.017 A 
ATOM      6  C23 NON d   1     -41.586  17.636  -3.008  0.00  0.00     0.009 A 
ENDROOT
BRANCH   1   7
ATOM      7  C10 NON d   1     -39.751  19.427  -3.307  0.00  0.00     0.134 C 
BRANCH   7   8
ATOM      8  N2  NON d   1     -39.706  20.217  -2.072  0.00  0.00    -0.257 NA
ATOM      9  H8  NON d   1     -38.827  20.226  -1.573  0.00  0.00     0.131 HD
BRANCH   8  10
ATOM     10  C9  NON d   1     -40.086  21.557  -2.239  0.00  0.00     0.202 A 
ATOM     11  N1  NON d   1     -40.336  21.980  -3.486  0.00  0.00    -0.231 NA
ATOM     12  C8  NON d   1     -40.667  23.261  -3.647  0.00  0.00     0.122 A 
ATOM     13  C7  NON d   1     -40.781  24.139  -2.602  0.00  0.00     0.052 A 
ATOM     14  C6  NON d   1     -40.553  23.655  -1.319  0.00  0.00     0.071 A 
ATOM     15  N5  NON d   1     -40.167  22.356  -1.145  0.00  0.00    -0.218 NA
BRANCH  14  16
ATOM     16  C5  NON d   1     -40.759  24.542  -0.108  0.00  0.00    -0.004 A 
ATOM     17  C4  NON d   1     -40.832  25.948  -0.242  0.00  0.00     0.017 A 
ATOM     18  C3  NON d   1     -41.043  26.809   0.843  0.00  0.00     0.040 A 
ATOM     19  C2  NON d   1     -41.185  26.305   2.131  0.00  0.00     0.101 A 
ATOM     20  C25 NON d   1     -41.143  24.928   2.331  0.00  0.00     0.102 A 
ATOM     21  C24 NON d   1     -40.926  24.062   1.213  0.00  0.00     0.053 A 
BRANCH  19  22
ATOM     22  O1  NON d   1     -41.465  27.181   3.144  0.00  0.00    -0.353 OA
ATOM     23  C1  NON d   1     -42.848  27.131   3.492  0.00  0.00     0.210 C 
ENDBRANCH  19  22
BRANCH  20  24
ATOM     24  O3  NON d   1     -41.305  24.297   3.537  0.00  0.00    -0.353 OA
ATOM     25  C26 NON d   1     -40.528  24.836   4.752  0.00  0.00     0.210 C 
ENDBRANCH  20  24
ENDBRANCH  14  16
ENDBRANCH   8  10
ENDBRANCH   7   8
ENDBRANCH   1   7
BRANCH   4  26
ATOM     26  C15 NON d   1     -44.948  17.004  -4.673  0.00  0.00     0.256 C 
ATOM     27  O2  NON d   1     -45.131  16.578  -5.812  0.00  0.00    -0.267 OA
ATOM     28  N3  NON d   1     -45.863  16.895  -3.635  0.00  0.00    -0.321 N 
ATOM     29  H13 NON d   1     -45.546  17.138  -2.713  0.00  0.00     0.169 HD
BRANCH  28  30
ATOM     30  C16 NON d   1     -47.188  16.353  -3.680  0.00  0.00     0.056 A 
ATOM     31  C17 NON d   1     -47.853  16.289  -2.436  0.00  0.00     0.031 A 
ATOM     32  C18 NON d   1     -49.149  15.776  -2.320  0.00  0.00     0.002 A 
ATOM     33  C19 NON d   1     -49.827  15.345  -3.451  0.00  0.00     0.002 A 
ATOM     34  C20 NON d   1     -49.204  15.431  -4.694  0.00  0.00     0.025 A 
ATOM     35  C21 NON d   1     -47.878  15.895  -4.828  0.00  0.00     0.033 A 
BRANCH  35  36
ATOM     36  N4  NON d   1     -47.440  16.131  -6.148  0.00  0.00    -0.301 NA
ATOM     37  H18 NON d   1     -46.941  17.026  -6.199  0.00  0.00     0.124 HD
ATOM     38  H19 NON d   1     -46.850  15.390  -6.508  0.00  0.00     0.124 HD
ENDBRANCH  35  36
ENDBRANCH  28  30
ENDBRANCH   4  26
TORSDOF 9
ENDMDL
MODEL 2
REMARK VINA RESULT:   -35.653      1.318      2.113
REMARK INTER + INTRA:         -40.338
REMARK INTER:                 -38.337
REMARK INTRA:                  -2.001
REMARK CONF_INDEPENDENT:        2.685
REMARK UNBOUND:                -2.001
REMARK  9 active torsions:
REMARK  status: ('A' for Active; 'I' for Inactive)
REMARK    1  A    between atoms: O1_2  and  C2_3 
REMARK    2  A    between atoms: C5_6  and  C6_7 
REMARK    3  A    between atoms: C9_11  and  N2_12 
REMARK    4  A    between atoms: N2_12  and  C10_13 
REMARK    5  A    between atoms: C10_13  and  C11_14 
REMARK    6  A    between atoms: C14_17  and  C15_18 
REMARK       I    between atoms: C15_18  and  N3_20 
REMARK    7  A    between atoms: N3_20  and  C16_21 
REMARK    8  A    between atoms: C21_26  and  N4_27 
REMARK    9  A    between atoms: C25_32  and  O3_33 
ROOT
ATOM      1  C11 NON d   1     -40.985  18.802  -3.760  0.00  0.00    -0.045 A 
ATOM      2  C12 NON d   1     -41.809  19.515  -4.663  0.00  0.00     0.009 A 
ATOM      3  C13 NON d   1     -43.115  19.092  -4.981  0.00  0.00     0.017 A 
ATOM      4  C14 NON d   1     -43.635  17.929  -4.407  0.00  0.00     0.032 A 
ATOM      5  C22 NON d   1     -42.813  17.216  -3.512  0.00  0.00     0.017 A 
ATOM      6  C23 NON d   1     -41.514  17.643  -3.194  0.00  0.00     0.009 A 
ENDROOT
BRANCH   1   7
ATOM      7  C10 NON d   1     -39.577  19.324  -3.482  0.00  0.00     0.134 C 
BRANCH   7   8
ATOM      8  N2  NON d   1     -39.198  19.423  -2.069  0.00  0.00    -0.257 NA
ATOM      9  H8  NON d   1     -38.548  18.729  -1.726  0.00  0.00     0.131 HD
BRANCH   8  10
ATOM     10  C9  NON d   1     -38.680  20.674  -1.703  0.00  0.00     0.202 A 
ATOM     11  N1  NON d   1     -37.477  21.013  -2.187  0.00  0.00    -0.231 NA
ATOM     12  C8  NON d   1     -36.972  22.189  -1.814  0.00  0.00     0.122 A 
ATOM     13  C7  NON d   1     -37.635  23.057  -0.987  0.00  0.00     0.052 A 
ATOM     14  C6  NON d   1     -38.898  22.689  -0.537  0.00  0.00     0.071 A 
ATOM     15  N5  NON d   1     -39.406  21.466  -0.874  0.00  0.00    -0.218 NA
BRANCH  14  16
ATOM     16  C5  NON d   1     -39.731  23.641   0.296  0.00  0.00    -0.004 A 
ATOM     17  C4  NON d   1     -39.958  23.396   1.670  0.00  0.00     0.017 A 
ATOM     18  C3  NON d   1     -40.702  24.256   2.489  0.00  0.00     0.040 A 
ATOM     19  C2  NON d   1     -41.272  25.412   1.967  0.00  0.00     0.101 A 
ATOM     20  C25 NON d   1     -41.072  25.725   0.625  0.00  0.00     0.102 A 
ATOM     21  C24 NON d   1     -40.311  24.835  -0.196  0.00  0.00     0.053 A 
BRANCH  19  22
ATOM     22  O1  NON d   1     -41.925  26.256   2.823  0.00  0.00    -0.353 OA
ATOM     23  C1  NON d   1     -41.605  25.952   4.181  0.00  0.00     0.210 C 
ENDBRANCH  19  22
BRANCH  20  24
ATOM     24  O3  NON d   1     -41.543  26.846  -0.006  0.00  0.00    -0.353 OA
ATOM     25  C26 NON d   1     -41.165  27.065  -1.482  0.00  0.00     0.210 C 
ENDBRANCH  20  24
ENDBRANCH  14  16
ENDBRANCH   8  10
ENDBRANCH   7   8
ENDBRANCH   1   7
BRANCH   4  26
ATOM     26  C15 NON d   1     -45.023  17.390  -4.643  0.00  0.00     0.256 C 
ATOM     27  O2  NON d   1     -45.395  17.289  -5.810  0.00  0.00    -0.267 OA
ATOM     28  N3  NON d   1     -45.779  17.019  -3.540  0.00  0.00    -0.321 N 
ATOM     29  H13 NON d   1     -45.316  17.001  -2.648  0.00  0.00     0.169 HD
BRANCH  28  30
ATOM     30  C16 NON d   1     -47.125  16.527  -3.517  0.00  0.00     0.056 A 
ATOM     31  C17 NON d   1     -47.763  16.583  -2.260  0.00  0.00     0.031 A 
ATOM     32  C18 NON d   1     -49.075  16.130  -2.080  0.00  0.00     0.002 A 
ATOM     33  C19 NON d   1     -49.793  15.642  -3.161  0.00  0.00     0.002 A 
ATOM     34  C20 NON d   1     -49.195  15.610  -4.418  0.00  0.00     0.025 A 
ATOM     35  C21 NON d   1     -47.857  16.011  -4.613  0.00  0.00     0.033 A 
BRANCH  35  36
ATOM     36  N4  NON d   1     -47.440  16.130  -5.956  0.00  0.00    -0.301 NA
ATOM     37  H18 NON d   1     -47.369  17.119  -6.217  0.00  0.00     0.124 HD
ATOM     38  H19 NON d   1     -46.558  15.664  -6.140  0.00  0.00     0.124 HD
ENDBRANCH  35  36
ENDBRANCH  28  30
ENDBRANCH   4  26
TORSDOF 9
ENDMDL
MODEL 3
REMARK VINA RESULT:   -35.289      1.171      2.043
REMARK INTER + INTRA:         -40.224
REMARK INTER:                 -37.974
REMARK INTRA:                  -2.251
REMARK CONF_INDEPENDENT:        2.685
REMARK UNBOUND:                -2.251
REMARK  9 active torsions:
REMARK  status: ('A' for Active; 'I' for Inactive)
REMARK    1  A    between atoms: O1_2  and  C2_3 
REMARK    2  A    between atoms: C5_6  and  C6_7 
REMARK    3  A    between atoms: C9_11  and  N2_12 
REMARK    4  A    between atoms: N2_12  and  C10_13 
REMARK    5  A    between atoms: C10_13  and  C11_14 
REMARK    6  A    between atoms: C14_17  and  C15_18 
REMARK       I    between atoms: C15_18  and  N3_20 
REMARK    7  A    between atoms: N3_20  and  C16_21 
REMARK    8  A    between atoms: C21_26  and  N4_27 
REMARK    9  A    between atoms: C25_32  and  O3_33 
ROOT
ATOM      1  C11 NON d   1     -40.744  18.248  -3.887  0.00  0.00    -0.045 A 
ATOM      2  C12 NON d   1     -41.467  18.767  -4.987  0.00  0.00     0.009 A 
ATOM      3  C13 NON d   1     -42.783  18.358  -5.281  0.00  0.00     0.017 A 
ATOM      4  C14 NON d   1     -43.416  17.404  -4.480  0.00  0.00     0.032 A 
ATOM      5  C22 NON d   1     -42.695  16.883  -3.388  0.00  0.00     0.017 A 
ATOM      6  C23 NON d   1     -41.385  17.296  -3.095  0.00  0.00     0.009 A 
ENDROOT
BRANCH   1   7
ATOM      7  C10 NON d   1     -39.317  18.738  -3.649  0.00  0.00     0.134 C 
BRANCH   7   8
ATOM      8  N2  NON d   1     -38.874  19.855  -4.490  0.00  0.00    -0.257 NA
ATOM      9  H8  NON d   1     -38.947  19.725  -5.489  0.00  0.00     0.131 HD
BRANCH   8  10
ATOM     10  C9  NON d   1     -39.501  21.074  -4.195  0.00  0.00     0.202 A 
ATOM     11  N1  NON d   1     -39.899  21.833  -5.226  0.00  0.00    -0.231 NA
ATOM     12  C8  NON d   1     -40.467  23.005  -4.945  0.00  0.00     0.122 A 
ATOM     13  C7  NON d   1     -40.676  23.445  -3.664  0.00  0.00     0.052 A 
ATOM     14  C6  NON d   1     -40.286  22.614  -2.621  0.00  0.00     0.071 A 
ATOM     15  N5  NON d   1     -39.660  21.431  -2.895  0.00  0.00    -0.218 NA
BRANCH  14  16
ATOM     16  C5  NON d   1     -40.578  22.989  -1.182  0.00  0.00    -0.004 A 
ATOM     17  C4  NON d   1     -40.319  22.081  -0.128  0.00  0.00     0.017 A 
ATOM     18  C3  NON d   1     -40.550  22.387   1.219  0.00  0.00     0.040 A 
ATOM     19  C2  NON d   1     -41.065  23.626   1.586  0.00  0.00     0.101 A 
ATOM     20  C25 NON d   1     -41.325  24.574   0.600  0.00  0.00     0.102 A 
ATOM     21  C24 NON d   1     -41.084  24.245  -0.771  0.00  0.00     0.053 A 
BRANCH  19  22
ATOM     22  O1  NON d   1     -41.202  23.903   2.919  0.00  0.00    -0.353 OA
ATOM     23  C1  NON d   1     -40.186  24.805   3.358  0.00  0.00     0.210 C 
ENDBRANCH  19  22
BRANCH  20  24
ATOM     24  O3  NON d   1     -41.796  25.841   0.824  0.00  0.00    -0.353 OA
ATOM     25  C26 NON d   1     -41.088  27.017   0.127  0.00  0.00     0.210 C 
ENDBRANCH  20  24
ENDBRANCH  14  16
ENDBRANCH   8  10
ENDBRANCH   7   8
ENDBRANCH   1   7
BRANCH   4  26
ATOM     26  C15 NON d   1     -44.826  16.908  -4.671  0.00  0.00     0.256 C 
ATOM     27  O2  NON d   1     -45.137  16.519  -5.795  0.00  0.00    -0.267 OA
ATOM     28  N3  NON d   1     -45.672  16.895  -3.571  0.00  0.00    -0.321 N 
ATOM     29  H13 NON d   1     -45.265  17.089  -2.672  0.00  0.00     0.169 HD
BRANCH  28  30
ATOM     30  C16 NON d   1     -47.052  16.511  -3.522  0.00  0.00     0.056 A 
ATOM     31  C17 NON d   1     -47.662  16.622  -2.255  0.00  0.00     0.031 A 
ATOM     32  C18 NON d   1     -49.002  16.276  -2.050  0.00  0.00     0.002 A 
ATOM     33  C19 NON d   1     -49.776  15.842  -3.116  0.00  0.00     0.002 A 
ATOM     34  C20 NON d   1     -49.204  15.758  -4.383  0.00  0.00     0.025 A 
ATOM     35  C21 NON d   1     -47.842  16.050  -4.603  0.00  0.00     0.033 A 
BRANCH  35  36
ATOM     36  N4  NON d   1     -47.440  16.130  -5.953  0.00  0.00    -0.301 NA
ATOM     37  H18 NON d   1     -47.177  17.094  -6.187  0.00  0.00     0.124 HD
ATOM     38  H19 NON d   1     -46.675  15.503  -6.177  0.00  0.00     0.124 HD
ENDBRANCH  35  36
ENDBRANCH  28  30
ENDBRANCH   4  26
TORSDOF 9
ENDMDL
MODEL 4
REMARK VINA RESULT:   -35.042      4.877      6.675
REMARK INTER + INTRA:         -39.596
REMARK INTER:                 -37.727
REMARK INTRA:                  -1.869
REMARK CONF_INDEPENDENT:        2.685
REMARK UNBOUND:                -1.869
REMARK  9 active torsions:
REMARK  status: ('A' for Active; 'I' for Inactive)
REMARK    1  A    between atoms: O1_2  and  C2_3 
REMARK    2  A    between atoms: C5_6  and  C6_7 
REMARK    3  A    between atoms: C9_11  and  N2_12 
REMARK    4  A    between atoms: N2_12  and  C10_13 
REMARK    5  A    between atoms: C10_13  and  C11_14 
REMARK    6  A    between atoms: C14_17  and  C15_18 
REMARK       I    between atoms: C15_18  and  N3_20 
REMARK    7  A    between atoms: N3_20  and  C16_21 
REMARK    8  A    between atoms: C21_26  and  N4_27 
REMARK    9  A    between atoms: C25_32  and  O3_33 
ROOT
ATOM      1  C11 NON d   1     -41.006  19.056  -4.138  0.00  0.00    -0.045 A 
ATOM      2  C12 NON d   1     -41.785  19.624  -5.172  0.00  0.00     0.009 A 
ATOM      3  C13 NON d   1     -43.097  19.190  -5.448  0.00  0.00     0.017 A 
ATOM      4  C14 NON d   1     -43.668  18.160  -4.695  0.00  0.00     0.032 A 
ATOM      5  C22 NON d   1     -42.890  17.590  -3.669  0.00  0.00     0.017 A 
ATOM      6  C23 NON d   1     -41.584  18.028  -3.394  0.00  0.00     0.009 A 
ENDROOT
BRANCH   1   7
ATOM      7  C10 NON d   1     -39.587  19.579  -3.915  0.00  0.00     0.134 C 
BRANCH   7   8
ATOM      8  N2  NON d   1     -38.597  19.195  -4.926  0.00  0.00    -0.257 NA
ATOM      9  H8  NON d   1     -38.277  18.237  -4.905  0.00  0.00     0.131 HD
BRANCH   8  10
ATOM     10  C9  NON d   1     -38.998  19.456  -6.245  0.00  0.00     0.202 A 
ATOM     11  N1  NON d   1     -39.303  18.406  -7.020  0.00  0.00    -0.231 NA
ATOM     12  C8  NON d   1     -39.654  18.653  -8.281  0.00  0.00     0.122 A 
ATOM     13  C7  NON d   1     -39.735  19.919  -8.800  0.00  0.00     0.052 A 
ATOM     14  C6  NON d   1     -39.449  20.985  -7.955  0.00  0.00     0.071 A 
ATOM     15  N5  NON d   1     -39.043  20.744  -6.673  0.00  0.00    -0.218 NA
BRANCH  14  16
ATOM     16  C5  NON d   1     -39.616  22.414  -8.429  0.00  0.00    -0.004 A 
ATOM     17  C4  NON d   1     -39.668  22.721  -9.809  0.00  0.00     0.017 A 
ATOM     18  C3  NON d   1     -39.843  24.022 -10.298  0.00  0.00     0.040 A 
ATOM     19  C2  NON d   1     -39.967  25.096  -9.423  0.00  0.00     0.101 A 
ATOM     20  C25 NON d   1     -39.944  24.863  -8.051  0.00  0.00     0.102 A 
ATOM     21  C24 NON d   1     -39.764  23.529  -7.569  0.00  0.00     0.053 A 
BRANCH  19  22
ATOM     22  O1  NON d   1     -40.211  26.336  -9.949  0.00  0.00    -0.353 OA
ATOM     23  C1  NON d   1     -39.925  26.361 -11.347  0.00  0.00     0.210 C 
ENDBRANCH  19  22
BRANCH  20  24
ATOM     24  O3  NON d   1     -40.092  25.821  -7.082  0.00  0.00    -0.353 OA
ATOM     25  C26 NON d   1     -39.935  25.399  -5.609  0.00  0.00     0.210 C 
ENDBRANCH  20  24
ENDBRANCH  14  16
ENDBRANCH   8  10
ENDBRANCH   7   8
ENDBRANCH   1   7
BRANCH   4  26
ATOM     26  C15 NON d   1     -45.067  17.628  -4.872  0.00  0.00     0.256 C 
ATOM     27  O2  NON d   1     -45.551  17.686  -6.000  0.00  0.00    -0.267 OA
ATOM     28  N3  NON d   1     -45.707  17.085  -3.767  0.00  0.00    -0.321 N 
ATOM     29  H13 NON d   1     -45.159  16.950  -2.935  0.00  0.00     0.169 HD
BRANCH  28  30
ATOM     30  C16 NON d   1     -47.039  16.564  -3.686  0.00  0.00     0.056 A 
ATOM     31  C17 NON d   1     -47.630  16.621  -2.406  0.00  0.00     0.031 A 
ATOM     32  C18 NON d   1     -48.923  16.142  -2.169  0.00  0.00     0.002 A 
ATOM     33  C19 NON d   1     -49.672  15.625  -3.216  0.00  0.00     0.002 A 
ATOM     34  C20 NON d   1     -49.122  15.591  -4.495  0.00  0.00     0.025 A 
ATOM     35  C21 NON d   1     -47.802  16.018  -4.747  0.00  0.00     0.033 A 
BRANCH  35  36
ATOM     36  N4  NON d   1     -47.440  16.130  -6.106  0.00  0.00    -0.301 NA
ATOM     37  H18 NON d   1     -48.258  15.971  -6.704  0.00  0.00     0.124 HD
ATOM     38  H19 NON d   1     -47.020  17.025  -6.332  0.00  0.00     0.124 HD
ENDBRANCH  35  36
ENDBRANCH  28  30
ENDBRANCH   4  26
TORSDOF 9
ENDMDL
MODEL 5
REMARK VINA RESULT:   -35.002      5.457      7.801
REMARK INTER + INTRA:         -39.790
REMARK INTER:                 -37.686
REMARK INTRA:                  -2.103
REMARK CONF_INDEPENDENT:        2.685
REMARK UNBOUND:                -2.103
REMARK  9 active torsions:
REMARK  status: ('A' for Active; 'I' for Inactive)
REMARK    1  A    between atoms: O1_2  and  C2_3 
REMARK    2  A    between atoms: C5_6  and  C6_7 
REMARK    3  A    between atoms: C9_11  and  N2_12 
REMARK    4  A    between atoms: N2_12  and  C10_13 
REMARK    5  A    between atoms: C10_13  and  C11_14 
REMARK    6  A    between atoms: C14_17  and  C15_18 
REMARK       I    between atoms: C15_18  and  N3_20 
REMARK    7  A    between atoms: N3_20  and  C16_21 
REMARK    8  A    between atoms: C21_26  and  N4_27 
REMARK    9  A    between atoms: C25_32  and  O3_33 
ROOT
ATOM      1  C11 NON d   1     -41.055  19.095  -4.104  0.00  0.00    -0.045 A 
ATOM      2  C12 NON d   1     -41.449  17.952  -3.371  0.00  0.00     0.009 A 
ATOM      3  C13 NON d   1     -42.729  17.377  -3.507  0.00  0.00     0.017 A 
ATOM      4  C14 NON d   1     -43.661  17.940  -4.381  0.00  0.00     0.032 A 
ATOM      5  C22 NON d   1     -43.272  19.082  -5.108  0.00  0.00     0.017 A 
ATOM      6  C23 NON d   1     -41.995  19.650  -4.974  0.00  0.00     0.009 A 
ENDROOT
BRANCH   1   7
ATOM      7  C10 NON d   1     -39.653  19.661  -3.887  0.00  0.00     0.134 C 
BRANCH   7   8
ATOM      8  N2  NON d   1     -39.251  20.743  -4.790  0.00  0.00    -0.257 NA
ATOM      9  H8  NON d   1     -38.353  21.170  -4.612  0.00  0.00     0.131 HD
BRANCH   8  10
ATOM     10  C9  NON d   1     -39.266  20.389  -6.147  0.00  0.00     0.202 A 
ATOM     11  N1  NON d   1     -39.222  19.083  -6.448  0.00  0.00    -0.231 NA
ATOM     12  C8  NON d   1     -39.204  18.749  -7.737  0.00  0.00     0.122 A 
ATOM     13  C7  NON d   1     -39.252  19.672  -8.749  0.00  0.00     0.052 A 
ATOM     14  C6  NON d   1     -39.337  21.014  -8.399  0.00  0.00     0.071 A 
ATOM     15  N5  NON d   1     -39.308  21.373  -7.081  0.00  0.00    -0.218 NA
BRANCH  14  16
ATOM     16  C5  NON d   1     -39.495  22.083  -9.461  0.00  0.00    -0.004 A 
ATOM     17  C4  NON d   1     -39.382  21.764 -10.834  0.00  0.00     0.017 A 
ATOM     18  C3  NON d   1     -39.542  22.711 -11.855  0.00  0.00     0.040 A 
ATOM     19  C2  NON d   1     -39.817  24.040 -11.551  0.00  0.00     0.101 A 
ATOM     20  C25 NON d   1     -39.960  24.419 -10.219  0.00  0.00     0.102 A 
ATOM     21  C24 NON d   1     -39.793  23.440  -9.190  0.00  0.00     0.053 A 
BRANCH  19  22
ATOM     22  O1  NON d   1     -40.038  24.910 -12.584  0.00  0.00    -0.353 OA
ATOM     23  C1  NON d   1     -40.680  24.250 -13.675  0.00  0.00     0.210 C 
ENDBRANCH  19  22
BRANCH  20  24
ATOM     24  O3  NON d   1     -40.266  25.681  -9.783  0.00  0.00    -0.353 OA
ATOM     25  C26 NON d   1     -39.225  26.431  -8.931  0.00  0.00     0.210 C 
ENDBRANCH  20  24
ENDBRANCH  14  16
ENDBRANCH   8  10
ENDBRANCH   7   8
ENDBRANCH   1   7
BRANCH   4  26
ATOM     26  C15 NON d   1     -45.046  17.403  -4.637  0.00  0.00     0.256 C 
ATOM     27  O2  NON d   1     -45.408  17.318  -5.809  0.00  0.00    -0.267 OA
ATOM     28  N3  NON d   1     -45.812  17.017  -3.546  0.00  0.00    -0.321 N 
ATOM     29  H13 NON d   1     -45.357  16.987  -2.650  0.00  0.00     0.169 HD
BRANCH  28  30
ATOM     30  C16 NON d   1     -47.157  16.523  -3.542  0.00  0.00     0.056 A 
ATOM     31  C17 NON d   1     -47.812  16.576  -2.293  0.00  0.00     0.031 A 
ATOM     32  C18 NON d   1     -49.126  16.122  -2.131  0.00  0.00     0.002 A 
ATOM     33  C19 NON d   1     -49.830  15.635  -3.223  0.00  0.00     0.002 A 
ATOM     34  C20 NON d   1     -49.215  15.606  -4.472  0.00  0.00     0.025 A 
ATOM     35  C21 NON d   1     -47.875  16.008  -4.649  0.00  0.00     0.033 A 
BRANCH  35  36
ATOM     36  N4  NON d   1     -47.440  16.130  -5.985  0.00  0.00    -0.301 NA
ATOM     37  H18 NON d   1     -47.538  17.101  -6.301  0.00  0.00     0.124 HD
ATOM     38  H19 NON d   1     -46.484  15.821  -6.121  0.00  0.00     0.124 HD
ENDBRANCH  35  36
ENDBRANCH  28  30
ENDBRANCH   4  26
TORSDOF 9
ENDMDL
MODEL 6
REMARK VINA RESULT:   -34.829      5.606      7.175
REMARK INTER + INTRA:         -39.843
REMARK INTER:                 -37.514
REMARK INTRA:                  -2.330
REMARK CONF_INDEPENDENT:        2.685
REMARK UNBOUND:                -2.330
REMARK  9 active torsions:
REMARK  status: ('A' for Active; 'I' for Inactive)
REMARK    1  A    between atoms: O1_2  and  C2_3 
REMARK    2  A    between atoms: C5_6  and  C6_7 
REMARK    3  A    between atoms: C9_11  and  N2_12 
REMARK    4  A    between atoms: N2_12  and  C10_13 
REMARK    5  A    between atoms: C10_13  and  C11_14 
REMARK    6  A    between atoms: C14_17  and  C15_18 
REMARK       I    between atoms: C15_18  and  N3_20 
REMARK    7  A    between atoms: N3_20  and  C16_21 
REMARK    8  A    between atoms: C21_26  and  N4_27 
REMARK    9  A    between atoms: C25_32  and  O3_33 
ROOT
ATOM      1  C11 NON d   1     -40.958  18.916  -4.152  0.00  0.00    -0.045 A 
ATOM      2  C12 NON d   1     -41.392  17.810  -3.383  0.00  0.00     0.009 A 
ATOM      3  C13 NON d   1     -42.690  17.274  -3.505  0.00  0.00     0.017 A 
ATOM      4  C14 NON d   1     -43.601  17.840  -4.400  0.00  0.00     0.032 A 
ATOM      5  C22 NON d   1     -43.172  18.944  -5.162  0.00  0.00     0.017 A 
ATOM      6  C23 NON d   1     -41.876  19.473  -5.042  0.00  0.00     0.009 A 
ENDROOT
BRANCH   1   7
ATOM      7  C10 NON d   1     -39.538  19.441  -3.948  0.00  0.00     0.134 C 
BRANCH   7   8
ATOM      8  N2  NON d   1     -38.581  19.131  -5.014  0.00  0.00    -0.257 NA
ATOM      9  H8  NON d   1     -38.219  18.188  -5.038  0.00  0.00     0.131 HD
BRANCH   8  10
ATOM     10  C9  NON d   1     -39.054  19.412  -6.305  0.00  0.00     0.202 A 
ATOM     11  N1  NON d   1     -39.477  18.380  -7.049  0.00  0.00    -0.231 NA
ATOM     12  C8  NON d   1     -39.897  18.644  -8.285  0.00  0.00     0.122 A 
ATOM     13  C7  NON d   1     -39.933  19.911  -8.807  0.00  0.00     0.052 A 
ATOM     14  C6  NON d   1     -39.524  20.960  -7.993  0.00  0.00     0.071 A 
ATOM     15  N5  NON d   1     -39.047  20.698  -6.739  0.00  0.00    -0.218 NA
BRANCH  14  16
ATOM     16  C5  NON d   1     -39.633  22.395  -8.465  0.00  0.00    -0.004 A 
ATOM     17  C4  NON d   1     -39.657  23.465  -7.540  0.00  0.00     0.017 A 
ATOM     18  C3  NON d   1     -39.733  24.809  -7.926  0.00  0.00     0.040 A 
ATOM     19  C2  NON d   1     -39.800  25.157  -9.271  0.00  0.00     0.101 A 
ATOM     20  C25 NON d   1     -39.761  24.154 -10.236  0.00  0.00     0.102 A 
ATOM     21  C24 NON d   1     -39.684  22.787  -9.825  0.00  0.00     0.053 A 
BRANCH  19  22
ATOM     22  O1  NON d   1     -39.798  26.485  -9.599  0.00  0.00    -0.353 OA
ATOM     23  C1  NON d   1     -39.944  27.297  -8.434  0.00  0.00     0.210 C 
ENDBRANCH  19  22
BRANCH  20  24
ATOM     24  O3  NON d   1     -39.781  24.358 -11.591  0.00  0.00    -0.353 OA
ATOM     25  C26 NON d   1     -41.148  24.467 -12.292  0.00  0.00     0.210 C 
ENDBRANCH  20  24
ENDBRANCH  14  16
ENDBRANCH   8  10
ENDBRANCH   7   8
ENDBRANCH   1   7
BRANCH   4  26
ATOM     26  C15 NON d   1     -45.002  17.342  -4.643  0.00  0.00     0.256 C 
ATOM     27  O2  NON d   1     -45.384  17.286  -5.810  0.00  0.00    -0.267 OA
ATOM     28  N3  NON d   1     -45.761  16.955  -3.547  0.00  0.00    -0.321 N 
ATOM     29  H13 NON d   1     -45.293  16.898  -2.658  0.00  0.00     0.169 HD
BRANCH  28  30
ATOM     30  C16 NON d   1     -47.117  16.495  -3.530  0.00  0.00     0.056 A 
ATOM     31  C17 NON d   1     -47.755  16.553  -2.272  0.00  0.00     0.031 A 
ATOM     32  C18 NON d   1     -49.078  16.130  -2.097  0.00  0.00     0.002 A 
ATOM     33  C19 NON d   1     -49.807  15.670  -3.184  0.00  0.00     0.002 A 
ATOM     34  C20 NON d   1     -49.208  15.637  -4.441  0.00  0.00     0.025 A 
ATOM     35  C21 NON d   1     -47.861  16.007  -4.631  0.00  0.00     0.033 A 
BRANCH  35  36
ATOM     36  N4  NON d   1     -47.440  16.130  -5.972  0.00  0.00    -0.301 NA
ATOM     37  H18 NON d   1     -47.487  17.111  -6.269  0.00  0.00     0.124 HD
ATOM     38  H19 NON d   1     -46.505  15.770  -6.129  0.00  0.00     0.124 HD
ENDBRANCH  35  36
ENDBRANCH  28  30
ENDBRANCH   4  26
TORSDOF 9
ENDMDL
MODEL 7
REMARK VINA RESULT:   -34.537      1.327      2.056
REMARK INTER + INTRA:         -39.631
REMARK INTER:                 -37.222
REMARK INTRA:                  -2.409
REMARK CONF_INDEPENDENT:        2.685
REMARK UNBOUND:                -2.409
REMARK  9 active torsions:
REMARK  status: ('A' for Active; 'I' for Inactive)
REMARK    1  A    between atoms: O1_2  and  C2_3 
REMARK    2  A    between atoms: C5_6  and  C6_7 
REMARK    3  A    between atoms: C9_11  and  N2_12 
REMARK    4  A    between atoms: N2_12  and  C10_13 
REMARK    5  A    between atoms: C10_13  and  C11_14 
REMARK    6  A    between atoms: C14_17  and  C15_18 
REMARK       I    between atoms: C15_18  and  N3_20 
REMARK    7  A    between atoms: N3_20  and  C16_21 
REMARK    8  A    between atoms: C21_26  and  N4_27 
REMARK    9  A    between atoms: C25_32  and  O3_33 
ROOT
ATOM      1  C11 NON d   1     -40.929  18.975  -4.264  0.00  0.00    -0.045 A 
ATOM      2  C12 NON d   1     -41.297  17.737  -3.687  0.00  0.00     0.009 A 
ATOM      3  C13 NON d   1     -42.604  17.219  -3.792  0.00  0.00     0.017 A 
ATOM      4  C14 NON d   1     -43.590  17.937  -4.474  0.00  0.00     0.032 A 
ATOM      5  C22 NON d   1     -43.225  19.172  -5.044  0.00  0.00     0.017 A 
ATOM      6  C23 NON d   1     -41.921  19.683  -4.942  0.00  0.00     0.009 A 
ENDROOT
BRANCH   1   7
ATOM      7  C10 NON d   1     -39.493  19.467  -4.091  0.00  0.00     0.134 C 
BRANCH   7   8
ATOM      8  N2  NON d   1     -39.095  20.592  -4.943  0.00  0.00    -0.257 NA
ATOM      9  H8  NON d   1     -39.317  20.516  -5.926  0.00  0.00     0.131 HD
BRANCH   8  10
ATOM     10  C9  NON d   1     -39.587  21.834  -4.515  0.00  0.00     0.202 A 
ATOM     11  N1  NON d   1     -39.967  22.709  -5.457  0.00  0.00    -0.231 NA
ATOM     12  C8  NON d   1     -40.405  23.900  -5.050  0.00  0.00     0.122 A 
ATOM     13  C7  NON d   1     -40.500  24.249  -3.728  0.00  0.00     0.052 A 
ATOM     14  C6  NON d   1     -40.134  23.302  -2.779  0.00  0.00     0.071 A 
ATOM     15  N5  NON d   1     -39.639  22.094  -3.184  0.00  0.00    -0.218 NA
BRANCH  14  16
ATOM     16  C5  NON d   1     -40.308  23.580  -1.300  0.00  0.00    -0.004 A 
ATOM     17  C4  NON d   1     -41.336  24.434  -0.838  0.00  0.00     0.017 A 
ATOM     18  C3  NON d   1     -41.553  24.705   0.519  0.00  0.00     0.040 A 
ATOM     19  C2  NON d   1     -40.739  24.138   1.493  0.00  0.00     0.101 A 
ATOM     20  C25 NON d   1     -39.719  23.272   1.109  0.00  0.00     0.102 A 
ATOM     21  C24 NON d   1     -39.511  23.007  -0.281  0.00  0.00     0.053 A 
BRANCH  19  22
ATOM     22  O1  NON d   1     -41.038  24.375   2.808  0.00  0.00    -0.353 OA
ATOM     23  C1  NON d   1     -40.039  25.191   3.418  0.00  0.00     0.210 C 
ENDBRANCH  19  22
BRANCH  20  24
ATOM     24  O3  NON d   1     -38.871  22.619   1.964  0.00  0.00    -0.353 OA
ATOM     25  C26 NON d   1     -38.016  21.466   1.404  0.00  0.00     0.210 C 
ENDBRANCH  20  24
ENDBRANCH  14  16
ENDBRANCH   8  10
ENDBRANCH   7   8
ENDBRANCH   1   7
BRANCH   4  26
ATOM     26  C15 NON d   1     -45.010  17.478  -4.681  0.00  0.00     0.256 C 
ATOM     27  O2  NON d   1     -45.469  17.565  -5.818  0.00  0.00    -0.267 OA
ATOM     28  N3  NON d   1     -45.700  16.966  -3.591  0.00  0.00    -0.321 N 
ATOM     29  H13 NON d   1     -45.176  16.801  -2.749  0.00  0.00     0.169 HD
BRANCH  28  30
ATOM     30  C16 NON d   1     -47.059  16.514  -3.538  0.00  0.00     0.056 A 
ATOM     31  C17 NON d   1     -47.667  16.587  -2.267  0.00  0.00     0.031 A 
ATOM     32  C18 NON d   1     -48.987  16.173  -2.058  0.00  0.00     0.002 A 
ATOM     33  C19 NON d   1     -49.744  15.708  -3.123  0.00  0.00     0.002 A 
ATOM     34  C20 NON d   1     -49.175  15.660  -4.394  0.00  0.00     0.025 A 
ATOM     35  C21 NON d   1     -47.830  16.021  -4.618  0.00  0.00     0.033 A 
BRANCH  35  36
ATOM     36  N4  NON d   1     -47.440  16.130  -5.970  0.00  0.00    -0.301 NA
ATOM     37  H18 NON d   1     -47.485  17.109  -6.273  0.00  0.00     0.124 HD
ATOM     38  H19 NON d   1     -46.512  15.760  -6.145  0.00  0.00     0.124 HD
ENDBRANCH  35  36
ENDBRANCH  28  30
ENDBRANCH   4  26
TORSDOF 9
ENDMDL
MODEL 8
REMARK VINA RESULT:   -34.162      4.162      6.378
REMARK INTER + INTRA:         -39.405
REMARK INTER:                 -36.846
REMARK INTRA:                  -2.559
REMARK CONF_INDEPENDENT:        2.685
REMARK UNBOUND:                -2.559
REMARK  9 active torsions:
REMARK  status: ('A' for Active; 'I' for Inactive)
REMARK    1  A    between atoms: O1_2  and  C2_3 
REMARK    2  A    between atoms: C5_6  and  C6_7 
REMARK    3  A    between atoms: C9_11  and  N2_12 
REMARK    4  A    between atoms: N2_12  and  C10_13 
REMARK    5  A    between atoms: C10_13  and  C11_14 
REMARK    6  A    between atoms: C14_17  and  C15_18 
REMARK       I    between atoms: C15_18  and  N3_20 
REMARK    7  A    between atoms: N3_20  and  C16_21 
REMARK    8  A    between atoms: C21_26  and  N4_27 
REMARK    9  A    between atoms: C25_32  and  O3_33 
ROOT
ATOM      1  C11 NON d   1     -40.925  18.699  -3.808  0.00  0.00    -0.045 A 
ATOM      2  C12 NON d   1     -41.657  19.337  -4.837  0.00  0.00     0.009 A 
ATOM      3  C13 NON d   1     -42.981  18.971  -5.153  0.00  0.00     0.017 A 
ATOM      4  C14 NON d   1     -43.611  17.941  -4.449  0.00  0.00     0.032 A 
ATOM      5  C22 NON d   1     -42.880  17.302  -3.428  0.00  0.00     0.017 A 
ATOM      6  C23 NON d   1     -41.563  17.673  -3.113  0.00  0.00     0.009 A 
ENDROOT
BRANCH   1   7
ATOM      7  C10 NON d   1     -39.490  19.150  -3.540  0.00  0.00     0.134 C 
BRANCH   7   8
ATOM      8  N2  NON d   1     -39.337  20.303  -2.646  0.00  0.00    -0.257 NA
ATOM      9  H8  NON d   1     -38.399  20.509  -2.332  0.00  0.00     0.131 HD
BRANCH   8  10
ATOM     10  C9  NON d   1     -39.860  21.498  -3.162  0.00  0.00     0.202 A 
ATOM     11  N1  NON d   1     -40.491  22.317  -2.309  0.00  0.00    -0.231 NA
ATOM     12  C8  NON d   1     -41.016  23.437  -2.805  0.00  0.00     0.122 A 
ATOM     13  C7  NON d   1     -40.916  23.786  -4.126  0.00  0.00     0.052 A 
ATOM     14  C6  NON d   1     -40.220  22.931  -4.973  0.00  0.00     0.071 A 
ATOM     15  N5  NON d   1     -39.718  21.757  -4.487  0.00  0.00    -0.218 NA
BRANCH  14  16
ATOM     16  C5  NON d   1     -39.982  23.301  -6.423  0.00  0.00    -0.004 A 
ATOM     17  C4  NON d   1     -39.843  24.654  -6.814  0.00  0.00     0.017 A 
ATOM     18  C3  NON d   1     -39.599  25.046  -8.136  0.00  0.00     0.040 A 
ATOM     19  C2  NON d   1     -39.491  24.098  -9.148  0.00  0.00     0.101 A 
ATOM     20  C25 NON d   1     -39.598  22.747  -8.830  0.00  0.00     0.102 A 
ATOM     21  C24 NON d   1     -39.848  22.364  -7.475  0.00  0.00     0.053 A 
BRANCH  19  22
ATOM     22  O1  NON d   1     -39.179  24.528 -10.409  0.00  0.00    -0.353 OA
ATOM     23  C1  NON d   1     -40.360  24.741 -11.181  0.00  0.00     0.210 C 
ENDBRANCH  19  22
BRANCH  20  24
ATOM     24  O3  NON d   1     -39.475  21.712  -9.718  0.00  0.00    -0.353 OA
ATOM     25  C26 NON d   1     -38.659  20.478  -9.291  0.00  0.00     0.210 C 
ENDBRANCH  20  24
ENDBRANCH  14  16
ENDBRANCH   8  10
ENDBRANCH   7   8
ENDBRANCH   1   7
BRANCH   4  26
ATOM     26  C15 NON d   1     -45.028  17.479  -4.671  0.00  0.00     0.256 C 
ATOM     27  O2  NON d   1     -45.478  17.574  -5.811  0.00  0.00    -0.267 OA
ATOM     28  N3  NON d   1     -45.724  16.952  -3.591  0.00  0.00    -0.321 N 
ATOM     29  H13 NON d   1     -45.205  16.781  -2.747  0.00  0.00     0.169 HD
BRANCH  28  30
ATOM     30  C16 NON d   1     -47.081  16.494  -3.554  0.00  0.00     0.056 A 
ATOM     31  C17 NON d   1     -47.700  16.552  -2.287  0.00  0.00     0.031 A 
ATOM     32  C18 NON d   1     -49.020  16.130  -2.093  0.00  0.00     0.002 A 
ATOM     33  C19 NON d   1     -49.765  15.671  -3.169  0.00  0.00     0.002 A 
ATOM     34  C20 NON d   1     -49.186  15.637  -4.435  0.00  0.00     0.025 A 
ATOM     35  C21 NON d   1     -47.841  16.007  -4.645  0.00  0.00     0.033 A 
BRANCH  35  36
ATOM     36  N4  NON d   1     -47.440  16.130  -5.992  0.00  0.00    -0.301 NA
ATOM     37  H18 NON d   1     -47.478  17.113  -6.284  0.00  0.00     0.124 HD
ATOM     38  H19 NON d   1     -46.513  15.757  -6.165  0.00  0.00     0.124 HD
ENDBRANCH  35  36
ENDBRANCH  28  30
ENDBRANCH   4  26
TORSDOF 9
ENDMDL
MODEL 9
REMARK VINA RESULT:   -33.369      2.400      3.446
REMARK INTER + INTRA:         -38.211
REMARK INTER:                 -36.054
REMARK INTRA:                  -2.157
REMARK CONF_INDEPENDENT:        2.685
REMARK UNBOUND:                -2.157
REMARK  9 active torsions:
REMARK  status: ('A' for Active; 'I' for Inactive)
REMARK    1  A    between atoms: O1_2  and  C2_3 
REMARK    2  A    between atoms: C5_6  and  C6_7 
REMARK    3  A    between atoms: C9_11  and  N2_12 
REMARK    4  A    between atoms: N2_12  and  C10_13 
REMARK    5  A    between atoms: C10_13  and  C11_14 
REMARK    6  A    between atoms: C14_17  and  C15_18 
REMARK       I    between atoms: C15_18  and  N3_20 
REMARK    7  A    between atoms: N3_20  and  C16_21 
REMARK    8  A    between atoms: C21_26  and  N4_27 
REMARK    9  A    between atoms: C25_32  and  O3_33 
ROOT
ATOM      1  C11 NON d   1     -41.066  19.046  -4.417  0.00  0.00    -0.045 A 
ATOM      2  C12 NON d   1     -42.109  19.794  -5.011  0.00  0.00     0.009 A 
ATOM      3  C13 NON d   1     -43.418  19.286  -5.141  0.00  0.00     0.017 A 
ATOM      4  C14 NON d   1     -43.719  18.001  -4.683  0.00  0.00     0.032 A 
ATOM      5  C22 NON d   1     -42.680  17.253  -4.097  0.00  0.00     0.017 A 
ATOM      6  C23 NON d   1     -41.379  17.764  -3.965  0.00  0.00     0.009 A 
ENDROOT
BRANCH   1   7
ATOM      7  C10 NON d   1     -39.674  19.668  -4.328  0.00  0.00     0.134 C 
BRANCH   7   8
ATOM      8  N2  NON d   1     -38.556  18.725  -4.226  0.00  0.00    -0.257 NA
ATOM      9  H8  NON d   1     -37.885  18.737  -4.982  0.00  0.00     0.131 HD
BRANCH   8  10
ATOM     10  C9  NON d   1     -37.822  18.837  -3.036  0.00  0.00     0.202 A 
ATOM     11  N1  NON d   1     -36.869  17.924  -2.806  0.00  0.00    -0.231 NA
ATOM     12  C8  NON d   1     -36.194  18.013  -1.660  0.00  0.00     0.122 A 
ATOM     13  C7  NON d   1     -36.420  18.999  -0.736  0.00  0.00     0.052 A 
ATOM     14  C6  NON d   1     -37.389  19.952  -1.026  0.00  0.00     0.071 A 
ATOM     15  N5  NON d   1     -38.120  19.845  -2.176  0.00  0.00    -0.218 NA
BRANCH  14  16
ATOM     16  C5  NON d   1     -37.622  21.127  -0.100  0.00  0.00    -0.004 A 
ATOM     17  C4  NON d   1     -36.552  21.707   0.621  0.00  0.00     0.017 A 
ATOM     18  C3  NON d   1     -36.711  22.808   1.473  0.00  0.00     0.040 A 
ATOM     19  C2  NON d   1     -37.962  23.386   1.656  0.00  0.00     0.101 A 
ATOM     20  C25 NON d   1     -39.056  22.878   0.961  0.00  0.00     0.102 A 
ATOM     21  C24 NON d   1     -38.876  21.753   0.097  0.00  0.00     0.053 A 
BRANCH  19  22
ATOM     22  O1  NON d   1     -38.051  24.506   2.439  0.00  0.00    -0.353 OA
ATOM     23  C1  NON d   1     -36.848  25.270   2.372  0.00  0.00     0.210 C 
ENDBRANCH  19  22
BRANCH  20  24
ATOM     24  O3  NON d   1     -40.332  23.374   1.020  0.00  0.00    -0.353 OA
ATOM     25  C26 NON d   1     -40.896  23.775   2.395  0.00  0.00     0.210 C 
ENDBRANCH  20  24
ENDBRANCH  14  16
ENDBRANCH   8  10
ENDBRANCH   7   8
ENDBRANCH   1   7
BRANCH   4  26
ATOM     26  C15 NON d   1     -45.081  17.358  -4.737  0.00  0.00     0.256 C 
ATOM     27  O2  NON d   1     -45.412  16.829  -5.797  0.00  0.00    -0.267 OA
ATOM     28  N3  NON d   1     -45.863  17.378  -3.590  0.00  0.00    -0.321 N 
ATOM     29  H13 NON d   1     -45.430  17.701  -2.742  0.00  0.00     0.169 HD
BRANCH  28  30
ATOM     30  C16 NON d   1     -47.193  16.874  -3.419  0.00  0.00     0.056 A 
ATOM     31  C17 NON d   1     -47.682  16.907  -2.095  0.00  0.00     0.031 A 
ATOM     32  C18 NON d   1     -48.961  16.441  -1.771  0.00  0.00     0.002 A 
ATOM     33  C19 NON d   1     -49.796  15.960  -2.769  0.00  0.00     0.002 A 
ATOM     34  C20 NON d   1     -49.347  15.950  -4.087  0.00  0.00     0.025 A 
ATOM     35  C21 NON d   1     -48.043  16.366  -4.430  0.00  0.00     0.033 A 
BRANCH  35  36
ATOM     36  N4  NON d   1     -47.786  16.506  -5.810  0.00  0.00    -0.301 NA
ATOM     37  H18 NON d   1     -47.453  17.455  -6.012  0.00  0.00     0.124 HD
ATOM     38  H19 NON d   1     -47.117  15.828  -6.159  0.00  0.00     0.124 HD
ENDBRANCH  35  36
ENDBRANCH  28  30
ENDBRANCH   4  26
TORSDOF 9
ENDMDL
