MODEL 1
REMARK VINA RESULT:   -32.412      0.000      0.000
REMARK INTER + INTRA:         -36.248
REMARK INTER:                 -34.799
REMARK INTRA:                  -1.450
REMARK CONF_INDEPENDENT:        2.386
REMARK UNBOUND:                -1.450
REMARK  8 active torsions:
REMARK  status: ('A' for Active; 'I' for Inactive)
REMARK    1  A    between atoms: C1_2  and  C2_3 
REMARK       I    between atoms: C1_2  and  N3_24 
REMARK    2  A    between atoms: C3_4  and  C4_5 
REMARK    3  A    between atoms: C7_8  and  C8_9 
REMARK    4  A    between atoms: N1_10  and  O2_11 
REMARK    5  A    between atoms: O2_11  and  C9_12 
REMARK    6  A    between atoms: C9_12  and  C10_13 
REMARK    7  A    between atoms: C13_16  and  N2_17 
REMARK    8  A    between atoms: N3_24  and  O5_25 
ROOT
ATOM      1  C4  NON d   1     -42.581  18.581  -4.347  0.00  0.00    -0.036 A 
ATOM      2  C5  NON d   1     -43.671  19.109  -5.062  0.00  0.00     0.012 A 
ATOM      3  C6  NON d   1     -44.840  18.363  -5.263  0.00  0.00     0.014 A 
ATOM      4  C7  NON d   1     -44.930  17.071  -4.748  0.00  0.00    -0.017 A 
ATOM      5  C16 NON d   1     -43.859  16.531  -4.033  0.00  0.00     0.014 A 
ATOM      6  C17 NON d   1     -42.693  17.282  -3.833  0.00  0.00     0.012 A 
ENDROOT
BRANCH   4   7
ATOM      7  C8  NON d   1     -46.160  16.287  -4.972  0.00  0.00     0.157 C 
ATOM      8  N1  NON d   1     -47.065  16.676  -5.810  0.00  0.00    -0.145 NA
BRANCH   8   9
ATOM      9  O2  NON d   1     -48.125  15.752  -5.828  0.00  0.00    -0.252 OA
BRANCH   9  10
ATOM     10  C9  NON d   1     -48.095  15.032  -4.592  0.00  0.00     0.242 C 
BRANCH  10  11
ATOM     11  C10 NON d   1     -48.757  15.772  -3.448  0.00  0.00    -0.032 A 
ATOM     12  C11 NON d   1     -48.031  16.386  -2.417  0.00  0.00     0.012 A 
ATOM     13  C12 NON d   1     -48.693  17.059  -1.382  0.00  0.00     0.037 A 
ATOM     14  C13 NON d   1     -50.091  17.119  -1.380  0.00  0.00     0.102 A 
ATOM     15  C14 NON d   1     -50.832  16.516  -2.402  0.00  0.00     0.037 A 
ATOM     16  C15 NON d   1     -50.162  15.847  -3.429  0.00  0.00     0.012 A 
BRANCH  14  17
ATOM     17  N2  NON d   1     -50.788  17.825  -0.296  0.00  0.00    -0.116 N 
ATOM     18  O3  NON d   1     -52.027  17.844  -0.325  0.00  0.00    -0.532 OA
ATOM     19  O4  NON d   1     -50.099  18.357   0.584  0.00  0.00    -0.532 OA
ENDBRANCH  14  17
ENDBRANCH  10  11
ENDBRANCH   9  10
ENDBRANCH   8   9
ENDBRANCH   4   7
BRANCH   1  20
ATOM     20  C3  NON d   1     -41.375  19.422  -4.192  0.00  0.00     0.017 C 
ATOM     21  C2  NON d   1     -40.557  19.456  -3.127  0.00  0.00     0.077 C 
BRANCH  21  22
ATOM     22  C1  NON d   1     -39.327  20.290  -3.022  0.00  0.00     0.264 C 
ATOM     23  O1  NON d   1     -38.954  20.966  -3.977  0.00  0.00    -0.266 OA
ATOM     24  N3  NON d   1     -38.648  20.226  -1.839  0.00  0.00    -0.234 N 
ATOM     25  H14 NON d   1     -38.861  19.599  -1.077  0.00  0.00     0.197 HD
BRANCH  24  26
ATOM     26  O5  NON d   1     -37.457  20.973  -1.722  0.00  0.00    -0.287 OA
ATOM     27  H15 NON d   1     -37.454  21.503  -2.547  0.00  0.00     0.244 HD
ENDBRANCH  24  26
ENDBRANCH  21  22
ENDBRANCH   1  20
TORSDOF 8
ENDMDL
MODEL 2
REMARK VINA RESULT:   -32.384      0.281      1.524
REMARK INTER + INTRA:         -36.279
REMARK INTER:                 -34.770
REMARK INTRA:                  -1.509
REMARK CONF_INDEPENDENT:        2.386
REMARK UNBOUND:                -1.509
REMARK  8 active torsions:
REMARK  status: ('A' for Active; 'I' for Inactive)
REMARK    1  A    between atoms: C1_2  and  C2_3 
REMARK       I    between atoms: C1_2  and  N3_24 
REMARK    2  A    between atoms: C3_4  and  C4_5 
REMARK    3  A    between atoms: C7_8  and  C8_9 
REMARK    4  A    between atoms: N1_10  and  O2_11 
REMARK    5  A    between atoms: O2_11  and  C9_12 
REMARK    6  A    between atoms: C9_12  and  C10_13 
REMARK    7  A    between atoms: C13_16  and  N2_17 
REMARK    8  A    between atoms: N3_24  and  O5_25 
ROOT
ATOM      1  C4  NON d   1     -42.543  18.651  -4.511  0.00  0.00    -0.036 A 
ATOM      2  C5  NON d   1     -42.576  17.293  -4.145  0.00  0.00     0.012 A 
ATOM      3  C6  NON d   1     -43.727  16.517  -4.336  0.00  0.00     0.014 A 
ATOM      4  C7  NON d   1     -44.863  17.094  -4.898  0.00  0.00    -0.017 A 
ATOM      5  C16 NON d   1     -44.847  18.439  -5.271  0.00  0.00     0.014 A 
ATOM      6  C17 NON d   1     -43.695  19.212  -5.079  0.00  0.00     0.012 A 
ENDROOT
BRANCH   4   7
ATOM      7  C8  NON d   1     -46.075  16.272  -5.088  0.00  0.00     0.157 C 
ATOM      8  N1  NON d   1     -47.065  16.688  -5.810  0.00  0.00    -0.145 NA
BRANCH   8   9
ATOM      9  O2  NON d   1     -48.083  15.718  -5.822  0.00  0.00    -0.252 OA
BRANCH   9  10
ATOM     10  C9  NON d   1     -48.039  15.024  -4.571  0.00  0.00     0.242 C 
BRANCH  10  11
ATOM     11  C10 NON d   1     -48.736  15.765  -3.449  0.00  0.00    -0.032 A 
ATOM     12  C11 NON d   1     -50.132  15.849  -3.345  0.00  0.00     0.012 A 
ATOM     13  C12 NON d   1     -50.729  16.546  -2.286  0.00  0.00     0.037 A 
ATOM     14  C13 NON d   1     -49.921  17.162  -1.323  0.00  0.00     0.102 A 
ATOM     15  C14 NON d   1     -48.527  17.086  -1.409  0.00  0.00     0.037 A 
ATOM     16  C15 NON d   1     -47.943  16.388  -2.469  0.00  0.00     0.012 A 
BRANCH  14  17
ATOM     17  N2  NON d   1     -50.543  17.894  -0.212  0.00  0.00    -0.116 N 
ATOM     18  O3  NON d   1     -49.793  18.395   0.638  0.00  0.00    -0.532 OA
ATOM     19  O4  NON d   1     -51.778  17.969  -0.188  0.00  0.00    -0.532 OA
ENDBRANCH  14  17
ENDBRANCH  10  11
ENDBRANCH   9  10
ENDBRANCH   8   9
ENDBRANCH   4   7
BRANCH   1  20
ATOM     20  C3  NON d   1     -41.300  19.411  -4.261  0.00  0.00     0.017 C 
ATOM     21  C2  NON d   1     -40.444  19.229  -3.242  0.00  0.00     0.077 C 
BRANCH  21  22
ATOM     22  C1  NON d   1     -39.178  19.990  -3.045  0.00  0.00     0.264 C 
ATOM     23  O1  NON d   1     -38.870  20.891  -3.820  0.00  0.00    -0.266 OA
ATOM     24  N3  NON d   1     -38.395  19.607  -1.994  0.00  0.00    -0.234 N 
ATOM     25  H14 NON d   1     -38.561  18.803  -1.405  0.00  0.00     0.197 HD
BRANCH  24  26
ATOM     26  O5  NON d   1     -37.172  20.281  -1.803  0.00  0.00    -0.287 OA
ATOM     27  H15 NON d   1     -37.205  20.983  -2.486  0.00  0.00     0.244 HD
ENDBRANCH  24  26
ENDBRANCH  21  22
ENDBRANCH   1  20
TORSDOF 8
ENDMDL
MODEL 3
REMARK VINA RESULT:   -31.448      1.153      1.373
REMARK INTER + INTRA:         -35.315
REMARK INTER:                 -33.835
REMARK INTRA:                  -1.481
REMARK CONF_INDEPENDENT:        2.386
REMARK UNBOUND:                -1.481
REMARK  8 active torsions:
REMARK  status: ('A' for Active; 'I' for Inactive)
REMARK    1  A    between atoms: C1_2  and  C2_3 
REMARK       I    between atoms: C1_2  and  N3_24 
REMARK    2  A    between atoms: C3_4  and  C4_5 
REMARK    3  A    between atoms: C7_8  and  C8_9 
REMARK    4  A    between atoms: N1_10  and  O2_11 
REMARK    5  A    between atoms: O2_11  and  C9_12 
REMARK    6  A    between atoms: C9_12  and  C10_13 
REMARK    7  A    between atoms: C13_16  and  N2_17 
REMARK    8  A    between atoms: N3_24  and  O5_25 
ROOT
ATOM      1  C4  NON d   1     -42.608  18.549  -4.292  0.00  0.00    -0.036 A 
ATOM      2  C5  NON d   1     -43.671  19.055  -5.063  0.00  0.00     0.012 A 
ATOM      3  C6  NON d   1     -44.837  18.306  -5.273  0.00  0.00     0.014 A 
ATOM      4  C7  NON d   1     -44.952  17.037  -4.711  0.00  0.00    -0.017 A 
ATOM      5  C16 NON d   1     -43.909  16.520  -3.940  0.00  0.00     0.014 A 
ATOM      6  C17 NON d   1     -42.746  17.272  -3.732  0.00  0.00     0.012 A 
ENDROOT
BRANCH   4   7
ATOM      7  C8  NON d   1     -46.180  16.250  -4.944  0.00  0.00     0.157 C 
ATOM      8  N1  NON d   1     -47.065  16.623  -5.810  0.00  0.00    -0.145 NA
BRANCH   8   9
ATOM      9  O2  NON d   1     -48.127  15.702  -5.831  0.00  0.00    -0.252 OA
BRANCH   9  10
ATOM     10  C9  NON d   1     -48.132  15.015  -4.575  0.00  0.00     0.242 C 
BRANCH  10  11
ATOM     11  C10 NON d   1     -48.927  15.731  -3.503  0.00  0.00    -0.032 A 
ATOM     12  C11 NON d   1     -48.324  16.468  -2.473  0.00  0.00     0.012 A 
ATOM     13  C12 NON d   1     -49.105  17.112  -1.505  0.00  0.00     0.037 A 
ATOM     14  C13 NON d   1     -50.501  17.019  -1.569  0.00  0.00     0.102 A 
ATOM     15  C14 NON d   1     -51.119  16.291  -2.591  0.00  0.00     0.037 A 
ATOM     16  C15 NON d   1     -50.330  15.653  -3.552  0.00  0.00     0.012 A 
BRANCH  14  17
ATOM     17  N2  NON d   1     -51.323  17.693  -0.556  0.00  0.00    -0.116 N 
ATOM     18  O3  NON d   1     -50.735  18.300   0.351  0.00  0.00    -0.532 OA
ATOM     19  O4  NON d   1     -52.554  17.618  -0.667  0.00  0.00    -0.532 OA
ENDBRANCH  14  17
ENDBRANCH  10  11
ENDBRANCH   9  10
ENDBRANCH   8   9
ENDBRANCH   4   7
BRANCH   1  20
ATOM     20  C3  NON d   1     -41.403  19.389  -4.130  0.00  0.00     0.017 C 
ATOM     21  C2  NON d   1     -40.571  19.789  -5.106  0.00  0.00     0.077 C 
BRANCH  21  22
ATOM     22  C1  NON d   1     -39.385  20.668  -4.909  0.00  0.00     0.264 C 
ATOM     23  O1  NON d   1     -39.490  21.721  -4.286  0.00  0.00    -0.266 OA
ATOM     24  N3  NON d   1     -38.217  20.251  -5.481  0.00  0.00    -0.234 N 
ATOM     25  H14 NON d   1     -38.118  19.453  -6.092  0.00  0.00     0.197 HD
BRANCH  24  26
ATOM     26  O5  NON d   1     -37.084  21.081  -5.347  0.00  0.00    -0.287 OA
ATOM     27  H15 NON d   1     -37.475  21.931  -5.053  0.00  0.00     0.244 HD
ENDBRANCH  24  26
ENDBRANCH  21  22
ENDBRANCH   1  20
TORSDOF 8
ENDMDL
MODEL 4
REMARK VINA RESULT:   -30.719      2.635     10.233
REMARK INTER + INTRA:         -34.441
REMARK INTER:                 -33.106
REMARK INTRA:                  -1.335
REMARK CONF_INDEPENDENT:        2.386
REMARK UNBOUND:                -1.335
REMARK  8 active torsions:
REMARK  status: ('A' for Active; 'I' for Inactive)
REMARK    1  A    between atoms: C1_2  and  C2_3 
REMARK       I    between atoms: C1_2  and  N3_24 
REMARK    2  A    between atoms: C3_4  and  C4_5 
REMARK    3  A    between atoms: C7_8  and  C8_9 
REMARK    4  A    between atoms: N1_10  and  O2_11 
REMARK    5  A    between atoms: O2_11  and  C9_12 
REMARK    6  A    between atoms: C9_12  and  C10_13 
REMARK    7  A    between atoms: C13_16  and  N2_17 
REMARK    8  A    between atoms: N3_24  and  O5_25 
ROOT
ATOM      1  C4  NON d   1     -51.419  16.230  -2.817  0.00  0.00    -0.036 A 
ATOM      2  C5  NON d   1     -50.598  17.346  -3.060  0.00  0.00     0.012 A 
ATOM      3  C6  NON d   1     -49.313  17.199  -3.602  0.00  0.00     0.014 A 
ATOM      4  C7  NON d   1     -48.835  15.927  -3.907  0.00  0.00    -0.017 A 
ATOM      5  C16 NON d   1     -49.638  14.808  -3.676  0.00  0.00     0.014 A 
ATOM      6  C17 NON d   1     -50.921  14.960  -3.136  0.00  0.00     0.012 A 
ENDROOT
BRANCH   4   7
ATOM      7  C8  NON d   1     -47.478  15.779  -4.469  0.00  0.00     0.157 C 
ATOM      8  N1  NON d   1     -47.076  16.505  -5.462  0.00  0.00    -0.145 NA
BRANCH   8   9
ATOM      9  O2  NON d   1     -45.754  16.161  -5.797  0.00  0.00    -0.252 OA
BRANCH   9  10
ATOM     10  C9  NON d   1     -44.920  16.505  -4.686  0.00  0.00     0.242 C 
BRANCH  10  11
ATOM     11  C10 NON d   1     -43.751  17.390  -5.063  0.00  0.00    -0.032 A 
ATOM     12  C11 NON d   1     -42.499  16.880  -5.434  0.00  0.00     0.012 A 
ATOM     13  C12 NON d   1     -41.449  17.742  -5.775  0.00  0.00     0.037 A 
ATOM     14  C13 NON d   1     -41.655  19.127  -5.746  0.00  0.00     0.102 A 
ATOM     15  C14 NON d   1     -42.899  19.654  -5.382  0.00  0.00     0.037 A 
ATOM     16  C15 NON d   1     -43.939  18.784  -5.044  0.00  0.00     0.012 A 
BRANCH  14  17
ATOM     17  N2  NON d   1     -40.557  20.034  -6.103  0.00  0.00    -0.116 N 
ATOM     18  O3  NON d   1     -40.651  21.218  -5.750  0.00  0.00    -0.532 OA
ATOM     19  O4  NON d   1     -39.601  19.564  -6.734  0.00  0.00    -0.532 OA
ENDBRANCH  14  17
ENDBRANCH  10  11
ENDBRANCH   9  10
ENDBRANCH   8   9
ENDBRANCH   4   7
BRANCH   1  20
ATOM     20  C3  NON d   1     -52.754  16.463  -2.227  0.00  0.00     0.017 C 
ATOM     21  C2  NON d   1     -53.190  17.600  -1.660  0.00  0.00     0.077 C 
BRANCH  21  22
ATOM     22  C1  NON d   1     -54.558  17.809  -1.109  0.00  0.00     0.264 C 
ATOM     23  O1  NON d   1     -55.539  17.744  -1.844  0.00  0.00    -0.266 OA
ATOM     24  N3  NON d   1     -54.639  18.100   0.223  0.00  0.00    -0.234 N 
ATOM     25  H14 NON d   1     -53.852  18.271   0.833  0.00  0.00     0.197 HD
BRANCH  24  26
ATOM     26  O5  NON d   1     -55.917  18.343   0.768  0.00  0.00    -0.287 OA
ATOM     27  H15 NON d   1     -56.515  17.956   0.094  0.00  0.00     0.244 HD
ENDBRANCH  24  26
ENDBRANCH  21  22
ENDBRANCH   1  20
TORSDOF 8
ENDMDL
