MODEL 1
REMARK VINA RESULT:   -31.747      0.000      0.000
REMARK INTER + INTRA:         -35.035
REMARK INTER:                 -33.537
REMARK INTRA:                  -1.498
REMARK CONF_INDEPENDENT:        1.790
REMARK UNBOUND:                -1.498
REMARK  6 active torsions:
REMARK  status: ('A' for Active; 'I' for Inactive)
REMARK       I    between atoms: C1_2  and  N1_3 
REMARK    1  A    between atoms: C1_2  and  C2_5 
REMARK    2  A    between atoms: N1_3  and  O2_4 
REMARK    3  A    between atoms: C4_8  and  N3_9 
REMARK    4  A    between atoms: C9_14  and  N4_15 
REMARK    5  A    between atoms: N4_15  and  C10_16 
REMARK    6  A    between atoms: C10_16  and  C11_17 
ROOT
ATOM      1  N3  NON d   1     -44.949  17.261  -4.787  0.00  0.00    -0.213 N 
ATOM      2  C5  NON d   1     -43.853  16.995  -3.865  0.00  0.00     0.148 C 
ATOM      3  C6  NON d   1     -42.881  18.124  -4.116  0.00  0.00     0.043 A 
ATOM      4  C7  NON d   1     -43.518  19.089  -5.063  0.00  0.00     0.043 A 
ATOM      5  C8  NON d   1     -44.903  18.584  -5.391  0.00  0.00     0.148 C 
ATOM      6  C9  NON d   1     -42.273  18.342  -5.473  0.00  0.00     0.198 A 
ENDROOT
BRANCH   6   7
ATOM      7  N4  NON d   1     -40.999  19.122  -5.547  0.00  0.00    -0.065 N 
ATOM      8  H11 NON d   1     -41.165  20.131  -5.661  0.00  0.00     0.278 HD
ATOM      9  H12 NON d   1     -40.472  19.045  -4.666  0.00  0.00     0.278 HD
BRANCH   7  10
ATOM     10  C10 NON d   1     -40.092  18.666  -6.654  0.00  0.00     0.291 C 
BRANCH  10  11
ATOM     11  C11 NON d   1     -39.599  19.728  -7.623  0.00  0.00     0.060 A 
ATOM     12  C12 NON d   1     -38.523  19.393  -8.441  0.00  0.00     0.030 A 
ATOM     13  C13 NON d   1     -38.042  20.330  -9.346  0.00  0.00     0.016 A 
ATOM     14  C14 NON d   1     -38.649  21.584  -9.430  0.00  0.00    -0.004 A 
ATOM     15  C15 NON d   1     -38.174  22.534 -10.349  0.00  0.00     0.056 A 
ATOM     16  C19 NON d   1     -39.744  21.861  -8.573  0.00  0.00     0.067 A 
ATOM     17  C16 NON d   1     -38.784  23.775 -10.434  0.00  0.00     0.117 A 
ATOM     18  F1  NON d   1     -38.331  24.677 -11.311  0.00  0.00    -0.206 F 
ATOM     19  C17 NON d   1     -39.858  24.080  -9.615  0.00  0.00     0.044 A 
ATOM     20  C18 NON d   1     -40.327  23.125  -8.697  0.00  0.00     0.035 A 
ATOM     21  N5  NON d   1     -40.212  20.944  -7.675  0.00  0.00    -0.251 NA
ENDBRANCH  10  11
ENDBRANCH   7  10
ENDBRANCH   6   7
BRANCH   1  22
ATOM     22  C4  NON d   1     -46.188  16.730  -4.473  0.00  0.00     0.724 A 
ATOM     23  N2  NON d   1     -47.065  16.504  -5.464  0.00  0.00    -0.074 NA
ATOM     24  C3  NON d   1     -48.274  15.976  -5.139  0.00  0.00     0.155 A 
ATOM     25  C2  NON d   1     -48.660  15.657  -3.857  0.00  0.00     0.070 A 
ATOM     26  C20 NON d   1     -47.706  15.931  -2.908  0.00  0.00     0.155 A 
ATOM     27  N6  NON d   1     -46.484  16.461  -3.187  0.00  0.00    -0.074 NA
BRANCH  25  28
ATOM     28  C1  NON d   1     -49.996  15.080  -3.608  0.00  0.00     0.277 C 
ATOM     29  O1  NON d   1     -50.248  13.930  -3.967  0.00  0.00    -0.265 OA
ATOM     30  N1  NON d   1     -50.941  15.848  -2.967  0.00  0.00    -0.233 N 
ATOM     31  H1  NON d   1     -50.844  16.785  -2.599  0.00  0.00     0.197 HD
BRANCH  30  32
ATOM     32  O2  NON d   1     -52.195  15.227  -2.752  0.00  0.00    -0.287 OA
ATOM     33  H2  NON d   1     -52.053  14.327  -3.118  0.00  0.00     0.244 HD
ENDBRANCH  30  32
ENDBRANCH  25  28
ENDBRANCH   1  22
TORSDOF 6
ENDMDL
MODEL 2
REMARK VINA RESULT:   -31.675      1.018      1.530
REMARK INTER + INTRA:         -34.954
REMARK INTER:                 -33.464
REMARK INTRA:                  -1.490
REMARK CONF_INDEPENDENT:        1.790
REMARK UNBOUND:                -1.490
REMARK  6 active torsions:
REMARK  status: ('A' for Active; 'I' for Inactive)
REMARK       I    between atoms: C1_2  and  N1_3 
REMARK    1  A    between atoms: C1_2  and  C2_5 
REMARK    2  A    between atoms: N1_3  and  O2_4 
REMARK    3  A    between atoms: C4_8  and  N3_9 
REMARK    4  A    between atoms: C9_14  and  N4_15 
REMARK    5  A    between atoms: N4_15  and  C10_16 
REMARK    6  A    between atoms: C10_16  and  C11_17 
ROOT
ATOM      1  N3  NON d   1     -44.910  17.177  -4.756  0.00  0.00    -0.213 N 
ATOM      2  C5  NON d   1     -43.822  16.753  -3.885  0.00  0.00     0.148 C 
ATOM      3  C6  NON d   1     -42.760  17.808  -4.087  0.00  0.00     0.043 A 
ATOM      4  C7  NON d   1     -43.329  18.887  -4.950  0.00  0.00     0.043 A 
ATOM      5  C8  NON d   1     -44.761  18.529  -5.272  0.00  0.00     0.148 C 
ATOM      6  C9  NON d   1     -42.164  18.065  -5.444  0.00  0.00     0.198 A 
ENDROOT
BRANCH   6   7
ATOM      7  N4  NON d   1     -40.829  18.734  -5.502  0.00  0.00    -0.065 N 
ATOM      8  H11 NON d   1     -40.856  19.694  -5.130  0.00  0.00     0.278 HD
ATOM      9  H12 NON d   1     -40.148  18.244  -4.903  0.00  0.00     0.278 HD
BRANCH   7  10
ATOM     10  C10 NON d   1     -40.253  18.783  -6.888  0.00  0.00     0.291 C 
BRANCH  10  11
ATOM     11  C11 NON d   1     -40.088  20.156  -7.519  0.00  0.00     0.060 A 
ATOM     12  C12 NON d   1     -40.057  20.217  -8.910  0.00  0.00     0.030 A 
ATOM     13  C13 NON d   1     -39.913  21.451  -9.530  0.00  0.00     0.016 A 
ATOM     14  C14 NON d   1     -39.814  22.607  -8.754  0.00  0.00    -0.004 A 
ATOM     15  C15 NON d   1     -39.677  23.860  -9.376  0.00  0.00     0.056 A 
ATOM     16  C19 NON d   1     -39.858  22.477  -7.344  0.00  0.00     0.067 A 
ATOM     17  C16 NON d   1     -39.586  25.005  -8.601  0.00  0.00     0.117 A 
ATOM     18  F1  NON d   1     -39.458  26.197  -9.194  0.00  0.00    -0.206 F 
ATOM     19  C17 NON d   1     -39.629  24.917  -7.220  0.00  0.00     0.044 A 
ATOM     20  C18 NON d   1     -39.764  23.660  -6.607  0.00  0.00     0.035 A 
ATOM     21  N5  NON d   1     -39.989  21.263  -6.731  0.00  0.00    -0.251 NA
ENDBRANCH  10  11
ENDBRANCH   7  10
ENDBRANCH   6   7
BRANCH   1  22
ATOM     22  C4  NON d   1     -46.185  16.735  -4.443  0.00  0.00     0.724 A 
ATOM     23  N2  NON d   1     -46.504  16.541  -3.154  0.00  0.00    -0.074 NA
ATOM     24  C3  NON d   1     -47.761  16.114  -2.865  0.00  0.00     0.155 A 
ATOM     25  C2  NON d   1     -48.731  15.865  -3.810  0.00  0.00     0.070 A 
ATOM     26  C20 NON d   1     -48.313  16.080  -5.101  0.00  0.00     0.155 A 
ATOM     27  N6  NON d   1     -47.065  16.505  -5.436  0.00  0.00    -0.074 NA
BRANCH  25  28
ATOM     28  C1  NON d   1     -50.072  15.409  -3.392  0.00  0.00     0.277 C 
ATOM     29  O1  NON d   1     -50.398  14.233  -3.548  0.00  0.00    -0.265 OA
ATOM     30  N1  NON d   1     -50.935  16.319  -2.827  0.00  0.00    -0.233 N 
ATOM     31  H1  NON d   1     -50.771  17.295  -2.620  0.00  0.00     0.197 HD
BRANCH  30  32
ATOM     32  O2  NON d   1     -52.198  15.810  -2.441  0.00  0.00    -0.287 OA
ATOM     33  H2  NON d   1     -52.272  14.990  -2.978  0.00  0.00     0.244 HD
ENDBRANCH  30  32
ENDBRANCH  25  28
ENDBRANCH   1  22
TORSDOF 6
ENDMDL
MODEL 3
REMARK VINA RESULT:   -31.615      3.693      4.450
REMARK INTER + INTRA:         -35.088
REMARK INTER:                 -33.405
REMARK INTRA:                  -1.683
REMARK CONF_INDEPENDENT:        1.790
REMARK UNBOUND:                -1.683
REMARK  6 active torsions:
REMARK  status: ('A' for Active; 'I' for Inactive)
REMARK       I    between atoms: C1_2  and  N1_3 
REMARK    1  A    between atoms: C1_2  and  C2_5 
REMARK    2  A    between atoms: N1_3  and  O2_4 
REMARK    3  A    between atoms: C4_8  and  N3_9 
REMARK    4  A    between atoms: C9_14  and  N4_15 
REMARK    5  A    between atoms: N4_15  and  C10_16 
REMARK    6  A    between atoms: C10_16  and  C11_17 
ROOT
ATOM      1  N3  NON d   1     -44.936  17.255  -4.761  0.00  0.00    -0.213 N 
ATOM      2  C5  NON d   1     -43.843  16.840  -3.892  0.00  0.00     0.148 C 
ATOM      3  C6  NON d   1     -42.791  17.905  -4.094  0.00  0.00     0.043 A 
ATOM      4  C7  NON d   1     -43.372  18.980  -4.955  0.00  0.00     0.043 A 
ATOM      5  C8  NON d   1     -44.800  18.608  -5.275  0.00  0.00     0.148 C 
ATOM      6  C9  NON d   1     -42.200  18.170  -5.451  0.00  0.00     0.198 A 
ENDROOT
BRANCH   6   7
ATOM      7  N4  NON d   1     -40.871  18.852  -5.509  0.00  0.00    -0.065 N 
ATOM      8  H11 NON d   1     -40.220  18.386  -6.155  0.00  0.00     0.278 HD
ATOM      9  H12 NON d   1     -40.966  19.807  -5.882  0.00  0.00     0.278 HD
BRANCH   7  10
ATOM     10  C10 NON d   1     -40.204  18.960  -4.167  0.00  0.00     0.291 C 
BRANCH  10  11
ATOM     11  C11 NON d   1     -40.241  20.318  -3.486  0.00  0.00     0.060 A 
ATOM     12  C12 NON d   1     -39.822  20.376  -2.159  0.00  0.00     0.030 A 
ATOM     13  C13 NON d   1     -39.834  21.597  -1.498  0.00  0.00     0.016 A 
ATOM     14  C14 NON d   1     -40.252  22.745  -2.173  0.00  0.00    -0.004 A 
ATOM     15  C15 NON d   1     -40.259  23.985  -1.513  0.00  0.00     0.056 A 
ATOM     16  C19 NON d   1     -40.661  22.620  -3.524  0.00  0.00     0.067 A 
ATOM     17  C16 NON d   1     -40.669  25.122  -2.190  0.00  0.00     0.117 A 
ATOM     18  F1  NON d   1     -40.672  26.302  -1.560  0.00  0.00    -0.206 F 
ATOM     19  C17 NON d   1     -41.072  25.038  -3.511  0.00  0.00     0.044 A 
ATOM     20  C18 NON d   1     -41.064  23.794  -4.164  0.00  0.00     0.035 A 
ATOM     21  N5  NON d   1     -40.661  21.417  -4.174  0.00  0.00    -0.251 NA
ENDBRANCH  10  11
ENDBRANCH   7  10
ENDBRANCH   6   7
BRANCH   1  22
ATOM     22  C4  NON d   1     -46.206  16.800  -4.448  0.00  0.00     0.724 A 
ATOM     23  N2  NON d   1     -46.542  16.658  -3.156  0.00  0.00    -0.074 NA
ATOM     24  C3  NON d   1     -47.795  16.218  -2.866  0.00  0.00     0.155 A 
ATOM     25  C2  NON d   1     -48.743  15.905  -3.814  0.00  0.00     0.070 A 
ATOM     26  C20 NON d   1     -48.309  16.069  -5.106  0.00  0.00     0.155 A 
ATOM     27  N6  NON d   1     -47.065  16.505  -5.442  0.00  0.00    -0.074 NA
BRANCH  25  28
ATOM     28  C1  NON d   1     -50.081  15.439  -3.396  0.00  0.00     0.277 C 
ATOM     29  O1  NON d   1     -50.402  14.263  -3.559  0.00  0.00    -0.265 OA
ATOM     30  N1  NON d   1     -50.947  16.341  -2.822  0.00  0.00    -0.233 N 
ATOM     31  H1  NON d   1     -50.787  17.316  -2.608  0.00  0.00     0.197 HD
BRANCH  30  32
ATOM     32  O2  NON d   1     -52.206  15.823  -2.435  0.00  0.00    -0.287 OA
ATOM     33  H2  NON d   1     -52.119  14.868  -2.648  0.00  0.00     0.244 HD
ENDBRANCH  30  32
ENDBRANCH  25  28
ENDBRANCH   1  22
TORSDOF 6
ENDMDL
MODEL 4
REMARK VINA RESULT:   -31.551      3.869      5.136
REMARK INTER + INTRA:         -34.775
REMARK INTER:                 -33.341
REMARK INTRA:                  -1.434
REMARK CONF_INDEPENDENT:        1.790
REMARK UNBOUND:                -1.434
REMARK  6 active torsions:
REMARK  status: ('A' for Active; 'I' for Inactive)
REMARK       I    between atoms: C1_2  and  N1_3 
REMARK    1  A    between atoms: C1_2  and  C2_5 
REMARK    2  A    between atoms: N1_3  and  O2_4 
REMARK    3  A    between atoms: C4_8  and  N3_9 
REMARK    4  A    between atoms: C9_14  and  N4_15 
REMARK    5  A    between atoms: N4_15  and  C10_16 
REMARK    6  A    between atoms: C10_16  and  C11_17 
ROOT
ATOM      1  N3  NON d   1     -44.904  17.155  -4.769  0.00  0.00    -0.213 N 
ATOM      2  C5  NON d   1     -43.789  16.518  -4.080  0.00  0.00     0.148 C 
ATOM      3  C6  NON d   1     -42.684  17.546  -4.146  0.00  0.00     0.043 A 
ATOM      4  C7  NON d   1     -43.245  18.801  -4.734  0.00  0.00     0.043 A 
ATOM      5  C8  NON d   1     -44.712  18.575  -5.015  0.00  0.00     0.148 C 
ATOM      6  C9  NON d   1     -42.162  18.046  -5.464  0.00  0.00     0.198 A 
ENDROOT
BRANCH   6   7
ATOM      7  N4  NON d   1     -40.797  18.656  -5.485  0.00  0.00    -0.065 N 
ATOM      8  H11 NON d   1     -40.273  18.473  -4.618  0.00  0.00     0.278 HD
ATOM      9  H12 NON d   1     -40.221  18.238  -6.229  0.00  0.00     0.278 HD
BRANCH   7  10
ATOM     10  C10 NON d   1     -40.818  20.140  -5.716  0.00  0.00     0.291 C 
BRANCH  10  11
ATOM     11  C11 NON d   1     -40.731  21.031  -4.487  0.00  0.00     0.060 A 
ATOM     12  C12 NON d   1     -41.076  22.371  -4.647  0.00  0.00     0.030 A 
ATOM     13  C13 NON d   1     -41.016  23.221  -3.551  0.00  0.00     0.016 A 
ATOM     14  C14 NON d   1     -40.625  22.720  -2.308  0.00  0.00    -0.004 A 
ATOM     15  C15 NON d   1     -40.571  23.572  -1.192  0.00  0.00     0.056 A 
ATOM     16  C19 NON d   1     -40.292  21.345  -2.211  0.00  0.00     0.067 A 
ATOM     17  C16 NON d   1     -40.188  23.068   0.040  0.00  0.00     0.117 A 
ATOM     18  F1  NON d   1     -40.140  23.881   1.101  0.00  0.00    -0.206 F 
ATOM     19  C17 NON d   1     -39.859  21.730   0.173  0.00  0.00     0.044 A 
ATOM     20  C18 NON d   1     -39.914  20.885  -0.947  0.00  0.00     0.035 A 
ATOM     21  N5  NON d   1     -40.339  20.509  -3.291  0.00  0.00    -0.251 NA
ENDBRANCH  10  11
ENDBRANCH   7  10
ENDBRANCH   6   7
BRANCH   1  22
ATOM     22  C4  NON d   1     -46.179  16.713  -4.458  0.00  0.00     0.724 A 
ATOM     23  N2  NON d   1     -46.494  16.497  -3.172  0.00  0.00    -0.074 NA
ATOM     24  C3  NON d   1     -47.752  16.070  -2.884  0.00  0.00     0.155 A 
ATOM     25  C2  NON d   1     -48.727  15.844  -3.829  0.00  0.00     0.070 A 
ATOM     26  C20 NON d   1     -48.314  16.080  -5.117  0.00  0.00     0.155 A 
ATOM     27  N6  NON d   1     -47.065  16.505  -5.451  0.00  0.00    -0.074 NA
BRANCH  25  28
ATOM     28  C1  NON d   1     -50.068  15.386  -3.413  0.00  0.00     0.277 C 
ATOM     29  O1  NON d   1     -50.393  14.210  -3.569  0.00  0.00    -0.265 OA
ATOM     30  N1  NON d   1     -50.933  16.295  -2.850  0.00  0.00    -0.233 N 
ATOM     31  H1  NON d   1     -50.770  17.271  -2.642  0.00  0.00     0.197 HD
BRANCH  30  32
ATOM     32  O2  NON d   1     -52.196  15.785  -2.465  0.00  0.00    -0.287 OA
ATOM     33  H2  NON d   1     -52.022  14.820  -2.388  0.00  0.00     0.244 HD
ENDBRANCH  30  32
ENDBRANCH  25  28
ENDBRANCH   1  22
TORSDOF 6
ENDMDL
MODEL 5
REMARK VINA RESULT:   -31.396      1.265      2.026
REMARK INTER + INTRA:         -34.495
REMARK INTER:                 -33.186
REMARK INTRA:                  -1.308
REMARK CONF_INDEPENDENT:        1.790
REMARK UNBOUND:                -1.308
REMARK  6 active torsions:
REMARK  status: ('A' for Active; 'I' for Inactive)
REMARK       I    between atoms: C1_2  and  N1_3 
REMARK    1  A    between atoms: C1_2  and  C2_5 
REMARK    2  A    between atoms: N1_3  and  O2_4 
REMARK    3  A    between atoms: C4_8  and  N3_9 
REMARK    4  A    between atoms: C9_14  and  N4_15 
REMARK    5  A    between atoms: N4_15  and  C10_16 
REMARK    6  A    between atoms: C10_16  and  C11_17 
ROOT
ATOM      1  N3  NON d   1     -44.890  17.121  -4.856  0.00  0.00    -0.213 N 
ATOM      2  C5  NON d   1     -43.725  16.494  -4.248  0.00  0.00     0.148 C 
ATOM      3  C6  NON d   1     -42.667  17.572  -4.288  0.00  0.00     0.043 A 
ATOM      4  C7  NON d   1     -43.302  18.833  -4.777  0.00  0.00     0.043 A 
ATOM      5  C8  NON d   1     -44.768  18.561  -5.020  0.00  0.00     0.148 C 
ATOM      6  C9  NON d   1     -42.216  18.173  -5.590  0.00  0.00     0.198 A 
ENDROOT
BRANCH   6   7
ATOM      7  N4  NON d   1     -40.880  18.843  -5.620  0.00  0.00    -0.065 N 
ATOM      8  H11 NON d   1     -40.440  18.882  -4.691  0.00  0.00     0.278 HD
ATOM      9  H12 NON d   1     -40.216  18.308  -6.198  0.00  0.00     0.278 HD
BRANCH   7  10
ATOM     10  C10 NON d   1     -40.932  20.239  -6.174  0.00  0.00     0.291 C 
BRANCH  10  11
ATOM     11  C11 NON d   1     -40.140  20.507  -7.443  0.00  0.00     0.060 A 
ATOM     12  C12 NON d   1     -40.636  21.478  -8.309  0.00  0.00     0.030 A 
ATOM     13  C13 NON d   1     -39.943  21.761  -9.479  0.00  0.00     0.016 A 
ATOM     14  C14 NON d   1     -38.759  21.079  -9.762  0.00  0.00    -0.004 A 
ATOM     15  C15 NON d   1     -38.047  21.366 -10.939  0.00  0.00     0.056 A 
ATOM     16  C19 NON d   1     -38.304  20.106  -8.837  0.00  0.00     0.067 A 
ATOM     17  C16 NON d   1     -36.868  20.691 -11.212  0.00  0.00     0.117 A 
ATOM     18  F1  NON d   1     -36.192  20.967 -12.332  0.00  0.00    -0.206 F 
ATOM     19  C17 NON d   1     -36.392  19.736 -10.330  0.00  0.00     0.044 A 
ATOM     20  C18 NON d   1     -37.110  19.454  -9.155  0.00  0.00     0.035 A 
ATOM     21  N5  NON d   1     -38.991  19.819  -7.690  0.00  0.00    -0.251 NA
ENDBRANCH  10  11
ENDBRANCH   7  10
ENDBRANCH   6   7
BRANCH   1  22
ATOM     22  C4  NON d   1     -46.134  16.606  -4.529  0.00  0.00     0.724 A 
ATOM     23  N2  NON d   1     -47.065  16.505  -5.489  0.00  0.00    -0.074 NA
ATOM     24  C3  NON d   1     -48.278  15.991  -5.153  0.00  0.00     0.155 A 
ATOM     25  C2  NON d   1     -48.613  15.566  -3.887  0.00  0.00     0.070 A 
ATOM     26  C20 NON d   1     -47.604  15.715  -2.967  0.00  0.00     0.155 A 
ATOM     27  N6  NON d   1     -46.378  16.227  -3.259  0.00  0.00    -0.074 NA
BRANCH  25  28
ATOM     28  C1  NON d   1     -49.958  15.015  -3.624  0.00  0.00     0.277 C 
ATOM     29  O1  NON d   1     -50.216  13.851  -3.926  0.00  0.00    -0.265 OA
ATOM     30  N1  NON d   1     -50.902  15.824  -3.035  0.00  0.00    -0.233 N 
ATOM     31  H1  NON d   1     -50.799  16.777  -2.714  0.00  0.00     0.197 HD
BRANCH  30  32
ATOM     32  O2  NON d   1     -52.164  15.227  -2.802  0.00  0.00    -0.287 OA
ATOM     33  H2  NON d   1     -51.951  14.267  -2.812  0.00  0.00     0.244 HD
ENDBRANCH  30  32
ENDBRANCH  25  28
ENDBRANCH   1  22
TORSDOF 6
ENDMDL
MODEL 6
REMARK VINA RESULT:   -30.656      4.094      5.223
REMARK INTER + INTRA:         -34.065
REMARK INTER:                 -32.446
REMARK INTRA:                  -1.619
REMARK CONF_INDEPENDENT:        1.790
REMARK UNBOUND:                -1.619
REMARK  6 active torsions:
REMARK  status: ('A' for Active; 'I' for Inactive)
REMARK       I    between atoms: C1_2  and  N1_3 
REMARK    1  A    between atoms: C1_2  and  C2_5 
REMARK    2  A    between atoms: N1_3  and  O2_4 
REMARK    3  A    between atoms: C4_8  and  N3_9 
REMARK    4  A    between atoms: C9_14  and  N4_15 
REMARK    5  A    between atoms: N4_15  and  C10_16 
REMARK    6  A    between atoms: C10_16  and  C11_17 
ROOT
ATOM      1  N3  NON d   1     -44.962  17.247  -4.791  0.00  0.00    -0.213 N 
ATOM      2  C5  NON d   1     -43.902  17.031  -3.817  0.00  0.00     0.148 C 
ATOM      3  C6  NON d   1     -42.944  18.175  -4.059  0.00  0.00     0.043 A 
ATOM      4  C7  NON d   1     -43.562  19.099  -5.059  0.00  0.00     0.043 A 
ATOM      5  C8  NON d   1     -44.920  18.553  -5.430  0.00  0.00     0.148 C 
ATOM      6  C9  NON d   1     -42.284  18.370  -5.395  0.00  0.00     0.198 A 
ENDROOT
BRANCH   6   7
ATOM      7  N4  NON d   1     -41.026  19.177  -5.437  0.00  0.00    -0.065 N 
ATOM      8  H11 NON d   1     -40.839  19.561  -6.373  0.00  0.00     0.278 HD
ATOM      9  H12 NON d   1     -41.101  20.004  -4.828  0.00  0.00     0.278 HD
BRANCH   7  10
ATOM     10  C10 NON d   1     -39.815  18.404  -4.997  0.00  0.00     0.291 C 
BRANCH  10  11
ATOM     11  C11 NON d   1     -39.068  18.928  -3.781  0.00  0.00     0.060 A 
ATOM     12  C12 NON d   1     -37.812  18.385  -3.523  0.00  0.00     0.030 A 
ATOM     13  C13 NON d   1     -37.091  18.835  -2.426  0.00  0.00     0.016 A 
ATOM     14  C14 NON d   1     -37.628  19.831  -1.608  0.00  0.00    -0.004 A 
ATOM     15  C15 NON d   1     -36.901  20.299  -0.500  0.00  0.00     0.056 A 
ATOM     16  C19 NON d   1     -38.909  20.347  -1.927  0.00  0.00     0.067 A 
ATOM     17  C16 NON d   1     -37.436  21.292   0.304  0.00  0.00     0.117 A 
ATOM     18  F1  NON d   1     -36.740  21.737   1.357  0.00  0.00    -0.206 F 
ATOM     19  C17 NON d   1     -38.683  21.821   0.021  0.00  0.00     0.044 A 
ATOM     20  C18 NON d   1     -39.405  21.347  -1.087  0.00  0.00     0.035 A 
ATOM     21  N5  NON d   1     -39.625  19.896  -3.001  0.00  0.00    -0.251 NA
ENDBRANCH  10  11
ENDBRANCH   7  10
ENDBRANCH   6   7
BRANCH   1  22
ATOM     22  C4  NON d   1     -46.203  16.696  -4.515  0.00  0.00     0.724 A 
ATOM     23  N2  NON d   1     -47.065  16.505  -5.524  0.00  0.00    -0.074 NA
ATOM     24  C3  NON d   1     -48.275  15.957  -5.236  0.00  0.00     0.155 A 
ATOM     25  C2  NON d   1     -48.675  15.585  -3.972  0.00  0.00     0.070 A 
ATOM     26  C20 NON d   1     -47.734  15.827  -3.001  0.00  0.00     0.155 A 
ATOM     27  N6  NON d   1     -46.513  16.375  -3.244  0.00  0.00    -0.074 NA
BRANCH  25  28
ATOM     28  C1  NON d   1     -50.010  14.991  -3.764  0.00  0.00     0.277 C 
ATOM     29  O1  NON d   1     -50.300  13.922  -4.301  0.00  0.00    -0.265 OA
ATOM     30  N1  NON d   1     -50.911  15.650  -2.959  0.00  0.00    -0.233 N 
ATOM     31  H1  NON d   1     -50.779  16.509  -2.443  0.00  0.00     0.197 HD
BRANCH  30  32
ATOM     32  O2  NON d   1     -52.166  15.017  -2.795  0.00  0.00    -0.287 OA
ATOM     33  H2  NON d   1     -52.166  14.351  -3.517  0.00  0.00     0.244 HD
ENDBRANCH  30  32
ENDBRANCH  25  28
ENDBRANCH   1  22
TORSDOF 6
ENDMDL
MODEL 7
REMARK VINA RESULT:   -29.869      2.815      3.094
REMARK INTER + INTRA:         -32.813
REMARK INTER:                 -31.659
REMARK INTRA:                  -1.155
REMARK CONF_INDEPENDENT:        1.790
REMARK UNBOUND:                -1.155
REMARK  6 active torsions:
REMARK  status: ('A' for Active; 'I' for Inactive)
REMARK       I    between atoms: C1_2  and  N1_3 
REMARK    1  A    between atoms: C1_2  and  C2_5 
REMARK    2  A    between atoms: N1_3  and  O2_4 
REMARK    3  A    between atoms: C4_8  and  N3_9 
REMARK    4  A    between atoms: C9_14  and  N4_15 
REMARK    5  A    between atoms: N4_15  and  C10_16 
REMARK    6  A    between atoms: C10_16  and  C11_17 
ROOT
ATOM      1  N3  NON d   1     -44.936  17.275  -4.838  0.00  0.00    -0.213 N 
ATOM      2  C5  NON d   1     -43.808  16.921  -3.987  0.00  0.00     0.148 C 
ATOM      3  C6  NON d   1     -42.804  18.023  -4.233  0.00  0.00     0.043 A 
ATOM      4  C7  NON d   1     -43.447  19.057  -5.100  0.00  0.00     0.043 A 
ATOM      5  C8  NON d   1     -44.866  18.623  -5.380  0.00  0.00     0.148 C 
ATOM      6  C9  NON d   1     -42.255  18.284  -5.608  0.00  0.00     0.198 A 
ENDROOT
BRANCH   6   7
ATOM      7  N4  NON d   1     -40.955  19.016  -5.710  0.00  0.00    -0.065 N 
ATOM      8  H11 NON d   1     -40.600  19.312  -4.791  0.00  0.00     0.278 HD
ATOM      9  H12 NON d   1     -40.219  18.403  -6.087  0.00  0.00     0.278 HD
BRANCH   7  10
ATOM     10  C10 NON d   1     -41.029  20.227  -6.597  0.00  0.00     0.291 C 
BRANCH  10  11
ATOM     11  C11 NON d   1     -40.078  21.370  -6.283  0.00  0.00     0.060 A 
ATOM     12  C12 NON d   1     -39.610  22.122  -7.358  0.00  0.00     0.030 A 
ATOM     13  C13 NON d   1     -38.743  23.179  -7.119  0.00  0.00     0.016 A 
ATOM     14  C14 NON d   1     -38.364  23.479  -5.809  0.00  0.00    -0.004 A 
ATOM     15  C15 NON d   1     -37.493  24.554  -5.559  0.00  0.00     0.056 A 
ATOM     16  C19 NON d   1     -38.879  22.679  -4.759  0.00  0.00     0.067 A 
ATOM     17  C16 NON d   1     -37.125  24.851  -4.256  0.00  0.00     0.117 A 
ATOM     18  F1  NON d   1     -36.298  25.876  -4.020  0.00  0.00    -0.206 F 
ATOM     19  C17 NON d   1     -37.611  24.093  -3.205  0.00  0.00     0.044 A 
ATOM     20  C18 NON d   1     -38.480  23.019  -3.464  0.00  0.00     0.035 A 
ATOM     21  N5  NON d   1     -39.724  21.631  -4.993  0.00  0.00    -0.251 NA
ENDBRANCH  10  11
ENDBRANCH   7  10
ENDBRANCH   6   7
BRANCH   1  22
ATOM     22  C4  NON d   1     -46.180  16.777  -4.486  0.00  0.00     0.724 A 
ATOM     23  N2  NON d   1     -47.065  16.505  -5.457  0.00  0.00    -0.074 NA
ATOM     24  C3  NON d   1     -48.278  16.010  -5.095  0.00  0.00     0.155 A 
ATOM     25  C2  NON d   1     -48.659  15.771  -3.794  0.00  0.00     0.070 A 
ATOM     26  C20 NON d   1     -47.696  16.089  -2.868  0.00  0.00     0.155 A 
ATOM     27  N6  NON d   1     -46.470  16.587  -3.185  0.00  0.00    -0.074 NA
BRANCH  25  28
ATOM     28  C1  NON d   1     -50.000  15.226  -3.504  0.00  0.00     0.277 C 
ATOM     29  O1  NON d   1     -50.253  14.047  -3.752  0.00  0.00    -0.265 OA
ATOM     30  N1  NON d   1     -50.948  16.056  -2.951  0.00  0.00    -0.233 N 
ATOM     31  H1  NON d   1     -50.851  17.023  -2.675  0.00  0.00     0.197 HD
BRANCH  30  32
ATOM     32  O2  NON d   1     -52.207  15.463  -2.690  0.00  0.00    -0.287 OA
ATOM     33  H2  NON d   1     -51.958  14.587  -2.320  0.00  0.00     0.244 HD
ENDBRANCH  30  32
ENDBRANCH  25  28
ENDBRANCH   1  22
TORSDOF 6
ENDMDL
