MODEL 1
REMARK VINA RESULT:   -12.934      0.000      0.000
REMARK INTER + INTRA:         -15.403
REMARK INTER:                 -14.426
REMARK INTRA:                  -0.977
REMARK CONF_INDEPENDENT:        1.492
REMARK UNBOUND:                -0.977
REMARK  5 active torsions:
REMARK  status: ('A' for Active; 'I' for Inactive)
REMARK    1  A    between atoms: C1_2  and  C2_3 
REMARK       I    between atoms: C1_2  and  N1_12 
REMARK    2  A    between atoms: C2_3  and  C3_4 
REMARK    3  A    between atoms: C3_4  and  C4_5 
REMARK    4  A    between atoms: C4_5  and  C5_6 
REMARK    5  A    between atoms: N1_12  and  O2_13 
ROOT
ATOM      1  C3  NON d   1     -44.300  16.890  -3.582  0.00  0.00     0.014 C 
ENDROOT
BRANCH   1   2
ATOM      2  C2  NON d   1     -45.782  17.232  -3.731  0.00  0.00     0.105 C 
BRANCH   2   3
ATOM      3  C1  NON d   1     -46.396  16.751  -5.026  0.00  0.00     0.240 C 
ATOM      4  O1  NON d   1     -46.344  17.383  -6.076  0.00  0.00    -0.271 OA
ATOM      5  N1  NON d   1     -47.024  15.527  -4.939  0.00  0.00    -0.237 N 
ATOM      6  H12 NON d   1     -46.735  14.835  -4.257  0.00  0.00     0.197 HD
BRANCH   5   7
ATOM      7  O2  NON d   1     -47.459  15.005  -6.185  0.00  0.00    -0.287 OA
ATOM      8  H13 NON d   1     -47.736  15.816  -6.669  0.00  0.00     0.244 HD
ENDBRANCH   5   7
ENDBRANCH   2   3
ENDBRANCH   1   2
BRANCH   1   9
ATOM      9  C4  NON d   1     -43.393  17.553  -4.632  0.00  0.00     0.039 C 
BRANCH   9  10
ATOM     10  C5  NON d   1     -41.979  17.939  -4.266  0.00  0.00    -0.058 A 
ATOM     11  C6  NON d   1     -41.639  17.995  -2.904  0.00  0.00     0.007 A 
ATOM     12  C7  NON d   1     -40.378  18.428  -2.487  0.00  0.00     0.001 A 
ATOM     13  C8  NON d   1     -39.433  18.821  -3.431  0.00  0.00     0.000 A 
ATOM     14  C9  NON d   1     -39.754  18.781  -4.785  0.00  0.00     0.001 A 
ATOM     15  C10 NON d   1     -41.019  18.353  -5.200  0.00  0.00     0.007 A 
ENDBRANCH   9  10
ENDBRANCH   1   9
TORSDOF 5
ENDMDL
MODEL 2
REMARK VINA RESULT:   -12.906      0.271      1.338
REMARK INTER + INTRA:         -15.370
REMARK INTER:                 -14.397
REMARK INTRA:                  -0.973
REMARK CONF_INDEPENDENT:        1.492
REMARK UNBOUND:                -0.973
REMARK  5 active torsions:
REMARK  status: ('A' for Active; 'I' for Inactive)
REMARK    1  A    between atoms: C1_2  and  C2_3 
REMARK       I    between atoms: C1_2  and  N1_12 
REMARK    2  A    between atoms: C2_3  and  C3_4 
REMARK    3  A    between atoms: C3_4  and  C4_5 
REMARK    4  A    between atoms: C4_5  and  C5_6 
REMARK    5  A    between atoms: N1_12  and  O2_13 
ROOT
ATOM      1  C3  NON d   1     -44.307  16.887  -3.587  0.00  0.00     0.014 C 
ENDROOT
BRANCH   1   2
ATOM      2  C2  NON d   1     -45.789  17.228  -3.733  0.00  0.00     0.105 C 
BRANCH   2   3
ATOM      3  C1  NON d   1     -46.405  16.748  -5.027  0.00  0.00     0.240 C 
ATOM      4  O1  NON d   1     -46.353  17.380  -6.078  0.00  0.00    -0.271 OA
ATOM      5  N1  NON d   1     -47.036  15.526  -4.940  0.00  0.00    -0.237 N 
ATOM      6  H12 NON d   1     -46.748  14.834  -4.257  0.00  0.00     0.197 HD
BRANCH   5   7
ATOM      7  O2  NON d   1     -47.473  15.005  -6.185  0.00  0.00    -0.287 OA
ATOM      8  H13 NON d   1     -47.748  15.816  -6.669  0.00  0.00     0.244 HD
ENDBRANCH   5   7
ENDBRANCH   2   3
ENDBRANCH   1   2
BRANCH   1   9
ATOM      9  C4  NON d   1     -43.402  17.551  -4.640  0.00  0.00     0.039 C 
BRANCH   9  10
ATOM     10  C5  NON d   1     -41.989  17.942  -4.276  0.00  0.00    -0.058 A 
ATOM     11  C6  NON d   1     -41.184  18.521  -5.271  0.00  0.00     0.007 A 
ATOM     12  C7  NON d   1     -39.843  18.827  -5.033  0.00  0.00     0.001 A 
ATOM     13  C8  NON d   1     -39.279  18.553  -3.791  0.00  0.00     0.000 A 
ATOM     14  C9  NON d   1     -40.057  17.971  -2.794  0.00  0.00     0.001 A 
ATOM     15  C10 NON d   1     -41.399  17.659  -3.036  0.00  0.00     0.007 A 
ENDBRANCH   9  10
ENDBRANCH   1   9
TORSDOF 5
ENDMDL
MODEL 3
REMARK VINA RESULT:   -12.798      1.298      1.748
REMARK INTER + INTRA:         -15.275
REMARK INTER:                 -14.289
REMARK INTRA:                  -0.985
REMARK CONF_INDEPENDENT:        1.492
REMARK UNBOUND:                -0.985
REMARK  5 active torsions:
REMARK  status: ('A' for Active; 'I' for Inactive)
REMARK    1  A    between atoms: C1_2  and  C2_3 
REMARK       I    between atoms: C1_2  and  N1_12 
REMARK    2  A    between atoms: C2_3  and  C3_4 
REMARK    3  A    between atoms: C3_4  and  C4_5 
REMARK    4  A    between atoms: C4_5  and  C5_6 
REMARK    5  A    between atoms: N1_12  and  O2_13 
ROOT
ATOM      1  C3  NON d   1     -43.712  16.800  -4.307  0.00  0.00     0.014 C 
ENDROOT
BRANCH   1   2
ATOM      2  C2  NON d   1     -45.147  17.272  -4.081  0.00  0.00     0.105 C 
BRANCH   2   3
ATOM      3  C1  NON d   1     -46.093  16.926  -5.208  0.00  0.00     0.240 C 
ATOM      4  O1  NON d   1     -46.273  17.644  -6.186  0.00  0.00    -0.271 OA
ATOM      5  N1  NON d   1     -46.745  15.721  -5.056  0.00  0.00    -0.237 N 
ATOM      6  H12 NON d   1     -46.331  14.963  -4.524  0.00  0.00     0.197 HD
BRANCH   5   7
ATOM      7  O2  NON d   1     -47.507  15.324  -6.185  0.00  0.00    -0.287 OA
ATOM      8  H13 NON d   1     -47.046  15.782  -6.923  0.00  0.00     0.244 HD
ENDBRANCH   5   7
ENDBRANCH   2   3
ENDBRANCH   1   2
BRANCH   1   9
ATOM      9  C4  NON d   1     -42.642  17.732  -3.714  0.00  0.00     0.039 C 
BRANCH   9  10
ATOM     10  C5  NON d   1     -41.766  18.550  -4.633  0.00  0.00    -0.058 A 
ATOM     11  C6  NON d   1     -41.765  19.947  -4.479  0.00  0.00     0.007 A 
ATOM     12  C7  NON d   1     -41.049  20.773  -5.348  0.00  0.00     0.001 A 
ATOM     13  C8  NON d   1     -40.322  20.213  -6.395  0.00  0.00     0.000 A 
ATOM     14  C9  NON d   1     -40.317  18.832  -6.570  0.00  0.00     0.001 A 
ATOM     15  C10 NON d   1     -41.040  18.007  -5.702  0.00  0.00     0.007 A 
ENDBRANCH   9  10
ENDBRANCH   1   9
TORSDOF 5
ENDMDL
MODEL 4
REMARK VINA RESULT:   -12.644      5.504      9.136
REMARK INTER + INTRA:         -15.046
REMARK INTER:                 -14.136
REMARK INTRA:                  -0.910
REMARK CONF_INDEPENDENT:        1.492
REMARK UNBOUND:                -0.910
REMARK  5 active torsions:
REMARK  status: ('A' for Active; 'I' for Inactive)
REMARK    1  A    between atoms: C1_2  and  C2_3 
REMARK       I    between atoms: C1_2  and  N1_12 
REMARK    2  A    between atoms: C2_3  and  C3_4 
REMARK    3  A    between atoms: C3_4  and  C4_5 
REMARK    4  A    between atoms: C4_5  and  C5_6 
REMARK    5  A    between atoms: N1_12  and  O2_13 
ROOT
ATOM      1  C3  NON d   1     -49.571  16.628  -3.306  0.00  0.00     0.014 C 
ENDROOT
BRANCH   1   2
ATOM      2  C2  NON d   1     -48.356  15.719  -3.476  0.00  0.00     0.105 C 
BRANCH   2   3
ATOM      3  C1  NON d   1     -47.577  15.965  -4.748  0.00  0.00     0.240 C 
ATOM      4  O1  NON d   1     -47.818  15.400  -5.810  0.00  0.00    -0.271 OA
ATOM      5  N1  NON d   1     -46.563  16.891  -4.626  0.00  0.00    -0.237 N 
ATOM      6  H12 NON d   1     -46.611  17.635  -3.939  0.00  0.00     0.197 HD
BRANCH   5   7
ATOM      7  O2  NON d   1     -45.941  17.238  -5.853  0.00  0.00    -0.287 OA
ATOM      8  H13 NON d   1     -46.667  17.109  -6.503  0.00  0.00     0.244 HD
ENDBRANCH   5   7
ENDBRANCH   2   3
ENDBRANCH   1   2
BRANCH   1   9
ATOM      9  C4  NON d   1     -50.824  15.911  -2.774  0.00  0.00     0.039 C 
BRANCH   9  10
ATOM     10  C5  NON d   1     -51.967  16.719  -2.206  0.00  0.00    -0.058 A 
ATOM     11  C6  NON d   1     -51.686  17.630  -1.174  0.00  0.00     0.007 A 
ATOM     12  C7  NON d   1     -52.704  18.347  -0.541  0.00  0.00     0.001 A 
ATOM     13  C8  NON d   1     -54.028  18.160  -0.928  0.00  0.00     0.000 A 
ATOM     14  C9  NON d   1     -54.328  17.255  -1.943  0.00  0.00     0.001 A 
ATOM     15  C10 NON d   1     -53.308  16.533  -2.571  0.00  0.00     0.007 A 
ENDBRANCH   9  10
ENDBRANCH   1   9
TORSDOF 5
ENDMDL
MODEL 5
REMARK VINA RESULT:   -11.109      1.734      2.670
REMARK INTER + INTRA:         -13.594
REMARK INTER:                 -12.600
REMARK INTRA:                  -0.994
REMARK CONF_INDEPENDENT:        1.492
REMARK UNBOUND:                -0.994
REMARK  5 active torsions:
REMARK  status: ('A' for Active; 'I' for Inactive)
REMARK    1  A    between atoms: C1_2  and  C2_3 
REMARK       I    between atoms: C1_2  and  N1_12 
REMARK    2  A    between atoms: C2_3  and  C3_4 
REMARK    3  A    between atoms: C3_4  and  C4_5 
REMARK    4  A    between atoms: C4_5  and  C5_6 
REMARK    5  A    between atoms: N1_12  and  O2_13 
ROOT
ATOM      1  C3  NON d   1     -42.719  17.244  -4.910  0.00  0.00     0.014 C 
ENDROOT
BRANCH   1   2
ATOM      2  C2  NON d   1     -44.082  16.885  -4.320  0.00  0.00     0.105 C 
BRANCH   2   3
ATOM      3  C1  NON d   1     -45.193  16.809  -5.342  0.00  0.00     0.240 C 
ATOM      4  O1  NON d   1     -45.612  15.755  -5.810  0.00  0.00    -0.271 OA
ATOM      5  N1  NON d   1     -45.714  18.031  -5.710  0.00  0.00    -0.237 N 
ATOM      6  H12 NON d   1     -45.694  18.823  -5.076  0.00  0.00     0.197 HD
BRANCH   5   7
ATOM      7  O2  NON d   1     -46.858  17.950  -6.544  0.00  0.00    -0.287 OA
ATOM      8  H13 NON d   1     -47.041  16.983  -6.559  0.00  0.00     0.244 HD
ENDBRANCH   5   7
ENDBRANCH   2   3
ENDBRANCH   1   2
BRANCH   1   9
ATOM      9  C4  NON d   1     -42.417  18.753  -4.923  0.00  0.00     0.039 C 
BRANCH   9  10
ATOM     10  C5  NON d   1     -41.068  19.244  -5.392  0.00  0.00    -0.058 A 
ATOM     11  C6  NON d   1     -40.598  18.801  -6.640  0.00  0.00     0.007 A 
ATOM     12  C7  NON d   1     -39.325  19.143  -7.099  0.00  0.00     0.001 A 
ATOM     13  C8  NON d   1     -38.492  19.933  -6.312  0.00  0.00     0.000 A 
ATOM     14  C9  NON d   1     -38.936  20.375  -5.068  0.00  0.00     0.001 A 
ATOM     15  C10 NON d   1     -40.210  20.027  -4.607  0.00  0.00     0.007 A 
ENDBRANCH   9  10
ENDBRANCH   1   9
TORSDOF 5
ENDMDL
MODEL 6
REMARK VINA RESULT:   -10.880      5.161      7.726
REMARK INTER + INTRA:         -13.379
REMARK INTER:                 -12.372
REMARK INTRA:                  -1.007
REMARK CONF_INDEPENDENT:        1.492
REMARK UNBOUND:                -1.007
REMARK  5 active torsions:
REMARK  status: ('A' for Active; 'I' for Inactive)
REMARK    1  A    between atoms: C1_2  and  C2_3 
REMARK       I    between atoms: C1_2  and  N1_12 
REMARK    2  A    between atoms: C2_3  and  C3_4 
REMARK    3  A    between atoms: C3_4  and  C4_5 
REMARK    4  A    between atoms: C4_5  and  C5_6 
REMARK    5  A    between atoms: N1_12  and  O2_13 
ROOT
ATOM      1  C3  NON d   1     -48.654  14.783  -3.399  0.00  0.00     0.014 C 
ENDROOT
BRANCH   1   2
ATOM      2  C2  NON d   1     -47.447  15.696  -3.604  0.00  0.00     0.105 C 
BRANCH   2   3
ATOM      3  C1  NON d   1     -47.254  16.147  -5.034  0.00  0.00     0.240 C 
ATOM      4  O1  NON d   1     -47.816  15.625  -5.991  0.00  0.00    -0.271 OA
ATOM      5  N1  NON d   1     -46.390  17.211  -5.185  0.00  0.00    -0.237 N 
ATOM      6  H12 NON d   1     -46.258  17.890  -4.444  0.00  0.00     0.197 HD
BRANCH   5   7
ATOM      7  O2  NON d   1     -46.335  17.734  -6.503  0.00  0.00    -0.287 OA
ATOM      8  H13 NON d   1     -46.429  16.925  -7.056  0.00  0.00     0.244 HD
ENDBRANCH   5   7
ENDBRANCH   2   3
ENDBRANCH   1   2
BRANCH   1   9
ATOM      9  C4  NON d   1     -50.003  15.522  -3.367  0.00  0.00     0.039 C 
BRANCH   9  10
ATOM     10  C5  NON d   1     -50.362  16.378  -2.175  0.00  0.00    -0.058 A 
ATOM     11  C6  NON d   1     -51.676  16.867  -2.081  0.00  0.00     0.007 A 
ATOM     12  C7  NON d   1     -52.056  17.735  -1.055  0.00  0.00     0.001 A 
ATOM     13  C8  NON d   1     -51.123  18.135  -0.103  0.00  0.00     0.000 A 
ATOM     14  C9  NON d   1     -49.814  17.668  -0.183  0.00  0.00     0.001 A 
ATOM     15  C10 NON d   1     -49.433  16.804  -1.215  0.00  0.00     0.007 A 
ENDBRANCH   9  10
ENDBRANCH   1   9
TORSDOF 5
ENDMDL
