MODEL 1
REMARK VINA RESULT:   -36.707      0.000      0.000
REMARK INTER + INTRA:         -39.827
REMARK INTER:                 -38.795
REMARK INTRA:                  -1.032
REMARK CONF_INDEPENDENT:        2.088
REMARK UNBOUND:                -1.032
REMARK  7 active torsions:
REMARK  status: ('A' for Active; 'I' for Inactive)
REMARK    1  A    between atoms: N1_1  and  C1_2 
REMARK    2  A    between atoms: C6_7  and  N2_8 
REMARK       I    between atoms: N2_8  and  C7_9 
REMARK    3  A    between atoms: C7_9  and  C8_11 
REMARK    4  A    between atoms: C9_12  and  C10_13 
REMARK    5  A    between atoms: C13_16  and  N3_17 
REMARK    6  A    between atoms: N3_17  and  S1_18 
REMARK    7  A    between atoms: S1_18  and  C14_21 
ROOT
ATOM      1  C10 NON d   1     -41.673  18.220  -3.789  0.00  0.00    -0.036 A 
ATOM      2  C11 NON d   1     -41.353  18.443  -2.444  0.00  0.00     0.014 A 
ATOM      3  C12 NON d   1     -40.183  19.114  -2.072  0.00  0.00     0.033 A 
ATOM      4  C13 NON d   1     -39.273  19.586  -3.025  0.00  0.00     0.070 A 
ATOM      5  C26 NON d   1     -39.608  19.378  -4.373  0.00  0.00     0.033 A 
ATOM      6  C27 NON d   1     -40.784  18.701  -4.754  0.00  0.00     0.014 A 
ENDROOT
BRANCH   4   7
ATOM      7  N3  NON d   1     -38.137  20.244  -2.674  0.00  0.00    -0.160 NA
BRANCH   7   8
ATOM      8  S1  NON d   1     -38.218  21.770  -2.165  0.00  0.00     0.284 S 
ATOM      9  O2  NON d   1     -39.550  22.365  -2.229  0.00  0.00    -0.198 OA
ATOM     10  O3  NON d   1     -37.162  22.674  -2.629  0.00  0.00    -0.198 OA
BRANCH   8  11
ATOM     11  C14 NON d   1     -37.857  21.720  -0.371  0.00  0.00     0.095 A 
ATOM     12  C15 NON d   1     -36.810  20.841   0.000  0.00  0.00     0.026 A 
ATOM     13  C16 NON d   1     -36.311  20.800   1.298  0.00  0.00     0.004 A 
ATOM     14  C17 NON d   1     -36.822  21.651   2.272  0.00  0.00     0.038 A 
ATOM     15  C18 NON d   1     -37.864  22.499   1.892  0.00  0.00     0.088 A 
ATOM     16  O4  NON d   1     -38.441  23.392   2.737  0.00  0.00    -0.309 OA
ATOM     17  C25 NON d   1     -38.436  22.558   0.616  0.00  0.00     0.034 A 
ATOM     18  C19 NON d   1     -39.424  24.014   2.042  0.00  0.00     0.087 A 
ATOM     19  C20 NON d   1     -40.249  25.009   2.568  0.00  0.00     0.038 A 
ATOM     20  C24 NON d   1     -39.500  23.518   0.742  0.00  0.00     0.012 A 
ATOM     21  C21 NON d   1     -41.241  25.514   1.727  0.00  0.00     0.003 A 
ATOM     22  C22 NON d   1     -41.389  25.024   0.430  0.00  0.00     0.001 A 
ATOM     23  C23 NON d   1     -40.531  24.030  -0.071  0.00  0.00     0.015 A 
ENDBRANCH   8  11
ENDBRANCH   7   8
ENDBRANCH   4   7
BRANCH   1  24
ATOM     24  C9  NON d   1     -42.945  17.529  -4.076  0.00  0.00     0.017 C 
ATOM     25  C8  NON d   1     -43.920  17.855  -4.941  0.00  0.00     0.075 C 
BRANCH  25  26
ATOM     26  C7  NON d   1     -45.136  16.981  -4.974  0.00  0.00     0.245 C 
ATOM     27  N2  NON d   1     -46.054  17.271  -3.987  0.00  0.00    -0.322 N 
ATOM     28  H7  NON d   1     -45.884  18.065  -3.385  0.00  0.00     0.169 HD
ATOM     29  O1  NON d   1     -45.235  16.088  -5.810  0.00  0.00    -0.268 OA
BRANCH  27  30
ATOM     30  C6  NON d   1     -47.298  16.622  -3.760  0.00  0.00     0.056 A 
ATOM     31  C5  NON d   1     -47.866  16.472  -2.489  0.00  0.00     0.031 A 
ATOM     32  C4  NON d   1     -49.053  15.755  -2.316  0.00  0.00     0.002 A 
ATOM     33  C3  NON d   1     -49.678  15.165  -3.409  0.00  0.00     0.002 A 
ATOM     34  C2  NON d   1     -49.130  15.313  -4.684  0.00  0.00     0.025 A 
ATOM     35  C1  NON d   1     -47.974  16.084  -4.879  0.00  0.00     0.033 A 
BRANCH  35  36
ATOM     36  N1  NON d   1     -47.440  16.209  -6.185  0.00  0.00    -0.301 NA
ATOM     37  H1  NON d   1     -48.137  16.014  -6.901  0.00  0.00     0.124 HD
ATOM     38  H2  NON d   1     -47.044  17.134  -6.326  0.00  0.00     0.124 HD
ENDBRANCH  35  36
ENDBRANCH  27  30
ENDBRANCH  25  26
ENDBRANCH   1  24
TORSDOF 7
ENDMDL
MODEL 2
REMARK VINA RESULT:   -36.072      1.662      2.681
REMARK INTER + INTRA:         -39.983
REMARK INTER:                 -38.160
REMARK INTRA:                  -1.823
REMARK CONF_INDEPENDENT:        2.088
REMARK UNBOUND:                -1.823
REMARK  7 active torsions:
REMARK  status: ('A' for Active; 'I' for Inactive)
REMARK    1  A    between atoms: N1_1  and  C1_2 
REMARK    2  A    between atoms: C6_7  and  N2_8 
REMARK       I    between atoms: N2_8  and  C7_9 
REMARK    3  A    between atoms: C7_9  and  C8_11 
REMARK    4  A    between atoms: C9_12  and  C10_13 
REMARK    5  A    between atoms: C13_16  and  N3_17 
REMARK    6  A    between atoms: N3_17  and  S1_18 
REMARK    7  A    between atoms: S1_18  and  C14_21 
ROOT
ATOM      1  C10 NON d   1     -41.881  18.587  -3.668  0.00  0.00    -0.036 A 
ATOM      2  C11 NON d   1     -41.207  18.305  -2.473  0.00  0.00     0.014 A 
ATOM      3  C12 NON d   1     -40.061  19.013  -2.094  0.00  0.00     0.033 A 
ATOM      4  C13 NON d   1     -39.529  20.029  -2.896  0.00  0.00     0.070 A 
ATOM      5  C26 NON d   1     -40.218  20.322  -4.084  0.00  0.00     0.033 A 
ATOM      6  C27 NON d   1     -41.372  19.611  -4.472  0.00  0.00     0.014 A 
ENDROOT
BRANCH   4   7
ATOM      7  N3  NON d   1     -38.419  20.726  -2.534  0.00  0.00    -0.160 NA
BRANCH   7   8
ATOM      8  S1  NON d   1     -38.463  21.693  -1.248  0.00  0.00     0.284 S 
ATOM      9  O2  NON d   1     -37.154  22.123  -0.763  0.00  0.00    -0.198 OA
ATOM     10  O3  NON d   1     -39.377  21.310  -0.168  0.00  0.00    -0.198 OA
BRANCH   8  11
ATOM     11  C14 NON d   1     -39.242  23.249  -1.815  0.00  0.00     0.095 A 
ATOM     12  C15 NON d   1     -39.265  23.424  -3.220  0.00  0.00     0.026 A 
ATOM     13  C16 NON d   1     -39.954  24.474  -3.819  0.00  0.00     0.004 A 
ATOM     14  C17 NON d   1     -40.665  25.379  -3.040  0.00  0.00     0.038 A 
ATOM     15  C18 NON d   1     -40.619  25.200  -1.656  0.00  0.00     0.088 A 
ATOM     16  O4  NON d   1     -41.282  25.999  -0.781  0.00  0.00    -0.309 OA
ATOM     17  C25 NON d   1     -39.911  24.191  -0.993  0.00  0.00     0.034 A 
ATOM     18  C19 NON d   1     -40.985  25.552   0.464  0.00  0.00     0.087 A 
ATOM     19  C20 NON d   1     -41.482  26.117   1.640  0.00  0.00     0.038 A 
ATOM     20  C24 NON d   1     -40.114  24.467   0.405  0.00  0.00     0.012 A 
ATOM     21  C21 NON d   1     -41.039  25.560   2.840  0.00  0.00     0.003 A 
ATOM     22  C22 NON d   1     -40.135  24.499   2.840  0.00  0.00     0.001 A 
ATOM     23  C23 NON d   1     -39.665  23.948   1.636  0.00  0.00     0.015 A 
ENDBRANCH   8  11
ENDBRANCH   7   8
ENDBRANCH   4   7
BRANCH   1  24
ATOM     24  C9  NON d   1     -43.096  17.803  -3.961  0.00  0.00     0.017 C 
ATOM     25  C8  NON d   1     -43.937  17.885  -5.007  0.00  0.00     0.075 C 
BRANCH  25  26
ATOM     26  C7  NON d   1     -45.133  16.984  -5.005  0.00  0.00     0.245 C 
ATOM     27  N2  NON d   1     -46.055  17.290  -4.026  0.00  0.00    -0.322 N 
ATOM     28  H7  NON d   1     -45.901  18.108  -3.453  0.00  0.00     0.169 HD
ATOM     29  O1  NON d   1     -45.214  16.061  -5.808  0.00  0.00    -0.268 OA
BRANCH  27  30
ATOM     30  C6  NON d   1     -47.284  16.622  -3.771  0.00  0.00     0.056 A 
ATOM     31  C5  NON d   1     -47.838  16.491  -2.493  0.00  0.00     0.031 A 
ATOM     32  C4  NON d   1     -49.009  15.757  -2.292  0.00  0.00     0.002 A 
ATOM     33  C3  NON d   1     -49.632  15.128  -3.364  0.00  0.00     0.002 A 
ATOM     34  C2  NON d   1     -49.098  15.257  -4.648  0.00  0.00     0.025 A 
ATOM     35  C1  NON d   1     -47.959  16.045  -4.871  0.00  0.00     0.033 A 
BRANCH  35  36
ATOM     36  N1  NON d   1     -47.440  16.149  -6.185  0.00  0.00    -0.301 NA
ATOM     37  H1  NON d   1     -47.145  17.099  -6.404  0.00  0.00     0.124 HD
ATOM     38  H2  NON d   1     -46.665  15.505  -6.319  0.00  0.00     0.124 HD
ENDBRANCH  35  36
ENDBRANCH  27  30
ENDBRANCH  25  26
ENDBRANCH   1  24
TORSDOF 7
ENDMDL
MODEL 3
REMARK VINA RESULT:   -35.932      1.666      3.036
REMARK INTER + INTRA:         -40.520
REMARK INTER:                 -38.020
REMARK INTRA:                  -2.500
REMARK CONF_INDEPENDENT:        2.088
REMARK UNBOUND:                -2.500
REMARK  7 active torsions:
REMARK  status: ('A' for Active; 'I' for Inactive)
REMARK    1  A    between atoms: N1_1  and  C1_2 
REMARK    2  A    between atoms: C6_7  and  N2_8 
REMARK       I    between atoms: N2_8  and  C7_9 
REMARK    3  A    between atoms: C7_9  and  C8_11 
REMARK    4  A    between atoms: C9_12  and  C10_13 
REMARK    5  A    between atoms: C13_16  and  N3_17 
REMARK    6  A    between atoms: N3_17  and  S1_18 
REMARK    7  A    between atoms: S1_18  and  C14_21 
ROOT
ATOM      1  C10 NON d   1     -41.844  18.027  -3.839  0.00  0.00    -0.036 A 
ATOM      2  C11 NON d   1     -41.502  18.264  -2.501  0.00  0.00     0.014 A 
ATOM      3  C12 NON d   1     -40.186  18.555  -2.123  0.00  0.00     0.033 A 
ATOM      4  C13 NON d   1     -39.149  18.611  -3.061  0.00  0.00     0.070 A 
ATOM      5  C26 NON d   1     -39.499  18.392  -4.403  0.00  0.00     0.033 A 
ATOM      6  C27 NON d   1     -40.822  18.098  -4.790  0.00  0.00     0.014 A 
ENDROOT
BRANCH   4   7
ATOM      7  N3  NON d   1     -37.869  18.898  -2.703  0.00  0.00    -0.160 NA
BRANCH   7   8
ATOM      8  S1  NON d   1     -37.223  20.317  -3.101  0.00  0.00     0.284 S 
ATOM      9  O2  NON d   1     -36.459  20.313  -4.345  0.00  0.00    -0.198 OA
ATOM     10  O3  NON d   1     -36.563  21.063  -2.026  0.00  0.00    -0.198 OA
BRANCH   8  11
ATOM     11  C14 NON d   1     -38.633  21.426  -3.467  0.00  0.00     0.095 A 
ATOM     12  C15 NON d   1     -38.963  21.533  -4.840  0.00  0.00     0.026 A 
ATOM     13  C16 NON d   1     -40.099  22.210  -5.272  0.00  0.00     0.004 A 
ATOM     14  C17 NON d   1     -40.962  22.789  -4.349  0.00  0.00     0.038 A 
ATOM     15  C18 NON d   1     -40.612  22.687  -3.001  0.00  0.00     0.088 A 
ATOM     16  O4  NON d   1     -41.374  23.190  -1.996  0.00  0.00    -0.309 OA
ATOM     17  C25 NON d   1     -39.464  22.056  -2.507  0.00  0.00     0.034 A 
ATOM     18  C19 NON d   1     -40.717  22.935  -0.838  0.00  0.00     0.087 A 
ATOM     19  C20 NON d   1     -41.185  23.297   0.426  0.00  0.00     0.038 A 
ATOM     20  C24 NON d   1     -39.516  22.276  -1.086  0.00  0.00     0.012 A 
ATOM     21  C21 NON d   1     -40.361  22.996   1.512  0.00  0.00     0.003 A 
ATOM     22  C22 NON d   1     -39.129  22.374   1.316  0.00  0.00     0.001 A 
ATOM     23  C23 NON d   1     -38.696  22.013   0.030  0.00  0.00     0.015 A 
ENDBRANCH   8  11
ENDBRANCH   7   8
ENDBRANCH   4   7
BRANCH   1  24
ATOM     24  C9  NON d   1     -43.264  17.760  -4.137  0.00  0.00     0.017 C 
ATOM     25  C8  NON d   1     -44.004  18.144  -5.191  0.00  0.00     0.075 C 
BRANCH  25  26
ATOM     26  C7  NON d   1     -45.453  17.764  -5.193  0.00  0.00     0.245 C 
ATOM     27  N2  NON d   1     -45.867  17.153  -4.028  0.00  0.00    -0.322 N 
ATOM     28  H7  NON d   1     -45.213  17.076  -3.261  0.00  0.00     0.169 HD
ATOM     29  O1  NON d   1     -46.149  17.978  -6.180  0.00  0.00    -0.268 OA
BRANCH  27  30
ATOM     30  C6  NON d   1     -47.174  16.681  -3.728  0.00  0.00     0.056 A 
ATOM     31  C5  NON d   1     -47.718  16.687  -2.439  0.00  0.00     0.031 A 
ATOM     32  C4  NON d   1     -48.978  16.138  -2.190  0.00  0.00     0.002 A 
ATOM     33  C3  NON d   1     -49.704  15.560  -3.226  0.00  0.00     0.002 A 
ATOM     34  C2  NON d   1     -49.181  15.554  -4.520  0.00  0.00     0.025 A 
ATOM     35  C1  NON d   1     -47.945  16.160  -4.793  0.00  0.00     0.033 A 
BRANCH  35  36
ATOM     36  N1  NON d   1     -47.440  16.130  -6.116  0.00  0.00    -0.301 NA
ATOM     37  H1  NON d   1     -47.519  17.036  -6.574  0.00  0.00     0.124 HD
ATOM     38  H2  NON d   1     -46.473  15.818  -6.126  0.00  0.00     0.124 HD
ENDBRANCH  35  36
ENDBRANCH  27  30
ENDBRANCH  25  26
ENDBRANCH   1  24
TORSDOF 7
ENDMDL
MODEL 4
REMARK VINA RESULT:   -35.855      1.853      3.294
REMARK INTER + INTRA:         -40.365
REMARK INTER:                 -37.943
REMARK INTRA:                  -2.422
REMARK CONF_INDEPENDENT:        2.088
REMARK UNBOUND:                -2.422
REMARK  7 active torsions:
REMARK  status: ('A' for Active; 'I' for Inactive)
REMARK    1  A    between atoms: N1_1  and  C1_2 
REMARK    2  A    between atoms: C6_7  and  N2_8 
REMARK       I    between atoms: N2_8  and  C7_9 
REMARK    3  A    between atoms: C7_9  and  C8_11 
REMARK    4  A    between atoms: C9_12  and  C10_13 
REMARK    5  A    between atoms: C13_16  and  N3_17 
REMARK    6  A    between atoms: N3_17  and  S1_18 
REMARK    7  A    between atoms: S1_18  and  C14_21 
ROOT
ATOM      1  C10 NON d   1     -41.631  18.213  -3.834  0.00  0.00    -0.036 A 
ATOM      2  C11 NON d   1     -40.772  18.437  -4.918  0.00  0.00     0.014 A 
ATOM      3  C12 NON d   1     -39.527  19.052  -4.749  0.00  0.00     0.033 A 
ATOM      4  C13 NON d   1     -39.085  19.482  -3.492  0.00  0.00     0.070 A 
ATOM      5  C26 NON d   1     -39.941  19.238  -2.406  0.00  0.00     0.033 A 
ATOM      6  C27 NON d   1     -41.197  18.621  -2.570  0.00  0.00     0.014 A 
ENDROOT
BRANCH   4   7
ATOM      7  N3  NON d   1     -37.875  20.076  -3.318  0.00  0.00    -0.160 NA
BRANCH   7   8
ATOM      8  S1  NON d   1     -37.479  21.364  -4.199  0.00  0.00     0.284 S 
ATOM      9  O2  NON d   1     -37.407  21.122  -5.637  0.00  0.00    -0.198 OA
ATOM     10  O3  NON d   1     -36.372  22.185  -3.700  0.00  0.00    -0.198 OA
BRANCH   8  11
ATOM     11  C14 NON d   1     -38.874  22.536  -4.030  0.00  0.00     0.095 A 
ATOM     12  C15 NON d   1     -39.309  23.120  -5.244  0.00  0.00     0.026 A 
ATOM     13  C16 NON d   1     -40.452  23.911  -5.311  0.00  0.00     0.004 A 
ATOM     14  C17 NON d   1     -41.218  24.132  -4.172  0.00  0.00     0.038 A 
ATOM     15  C18 NON d   1     -40.766  23.560  -2.981  0.00  0.00     0.088 A 
ATOM     16  O4  NON d   1     -41.426  23.681  -1.801  0.00  0.00    -0.309 OA
ATOM     17  C25 NON d   1     -39.604  22.792  -2.841  0.00  0.00     0.034 A 
ATOM     18  C19 NON d   1     -40.689  23.033  -0.868  0.00  0.00     0.087 A 
ATOM     19  C20 NON d   1     -41.041  22.929   0.479  0.00  0.00     0.038 A 
ATOM     20  C24 NON d   1     -39.534  22.498  -1.434  0.00  0.00     0.012 A 
ATOM     21  C21 NON d   1     -40.144  22.263   1.314  0.00  0.00     0.003 A 
ATOM     22  C22 NON d   1     -38.953  21.744   0.807  0.00  0.00     0.001 A 
ATOM     23  C23 NON d   1     -38.637  21.856  -0.557  0.00  0.00     0.015 A 
ENDBRANCH   8  11
ENDBRANCH   7   8
ENDBRANCH   4   7
BRANCH   1  24
ATOM     24  C9  NON d   1     -42.909  17.530  -4.114  0.00  0.00     0.017 C 
ATOM     25  C8  NON d   1     -43.913  17.895  -4.930  0.00  0.00     0.075 C 
BRANCH  25  26
ATOM     26  C7  NON d   1     -45.126  17.017  -4.968  0.00  0.00     0.245 C 
ATOM     27  N2  NON d   1     -46.045  17.299  -3.979  0.00  0.00    -0.322 N 
ATOM     28  H7  NON d   1     -45.877  18.090  -3.371  0.00  0.00     0.169 HD
ATOM     29  O1  NON d   1     -45.223  16.130  -5.809  0.00  0.00    -0.268 OA
BRANCH  27  30
ATOM     30  C6  NON d   1     -47.286  16.645  -3.754  0.00  0.00     0.056 A 
ATOM     31  C5  NON d   1     -47.849  16.476  -2.484  0.00  0.00     0.031 A 
ATOM     32  C4  NON d   1     -49.034  15.755  -2.315  0.00  0.00     0.002 A 
ATOM     33  C3  NON d   1     -49.663  15.180  -3.414  0.00  0.00     0.002 A 
ATOM     34  C2  NON d   1     -49.121  15.347  -4.689  0.00  0.00     0.025 A 
ATOM     35  C1  NON d   1     -47.967  16.123  -4.878  0.00  0.00     0.033 A 
BRANCH  35  36
ATOM     36  N1  NON d   1     -47.440  16.267  -6.185  0.00  0.00    -0.301 NA
ATOM     37  H1  NON d   1     -46.993  17.172  -6.317  0.00  0.00     0.124 HD
ATOM     38  H2  NON d   1     -46.782  15.520  -6.393  0.00  0.00     0.124 HD
ENDBRANCH  35  36
ENDBRANCH  27  30
ENDBRANCH  25  26
ENDBRANCH   1  24
TORSDOF 7
ENDMDL
MODEL 5
REMARK VINA RESULT:   -35.764      1.937      2.943
REMARK INTER + INTRA:         -40.115
REMARK INTER:                 -37.853
REMARK INTRA:                  -2.262
REMARK CONF_INDEPENDENT:        2.088
REMARK UNBOUND:                -2.262
REMARK  7 active torsions:
REMARK  status: ('A' for Active; 'I' for Inactive)
REMARK    1  A    between atoms: N1_1  and  C1_2 
REMARK    2  A    between atoms: C6_7  and  N2_8 
REMARK       I    between atoms: N2_8  and  C7_9 
REMARK    3  A    between atoms: C7_9  and  C8_11 
REMARK    4  A    between atoms: C9_12  and  C10_13 
REMARK    5  A    between atoms: C13_16  and  N3_17 
REMARK    6  A    between atoms: N3_17  and  S1_18 
REMARK    7  A    between atoms: S1_18  and  C14_21 
ROOT
ATOM      1  C10 NON d   1     -41.894  18.706  -3.692  0.00  0.00    -0.036 A 
ATOM      2  C11 NON d   1     -41.555  19.702  -4.616  0.00  0.00     0.014 A 
ATOM      3  C12 NON d   1     -40.417  20.499  -4.449  0.00  0.00     0.033 A 
ATOM      4  C13 NON d   1     -39.569  20.345  -3.345  0.00  0.00     0.070 A 
ATOM      5  C26 NON d   1     -39.902  19.332  -2.431  0.00  0.00     0.033 A 
ATOM      6  C27 NON d   1     -41.048  18.528  -2.594  0.00  0.00     0.014 A 
ENDROOT
BRANCH   4   7
ATOM      7  N3  NON d   1     -38.459  21.110  -3.177  0.00  0.00    -0.160 NA
BRANCH   7   8
ATOM      8  S1  NON d   1     -37.904  21.405  -1.695  0.00  0.00     0.284 S 
ATOM      9  O2  NON d   1     -36.779  22.335  -1.638  0.00  0.00    -0.198 OA
ATOM     10  O3  NON d   1     -37.736  20.247  -0.813  0.00  0.00    -0.198 OA
BRANCH   8  11
ATOM     11  C14 NON d   1     -39.244  22.301  -0.826  0.00  0.00     0.095 A 
ATOM     12  C15 NON d   1     -39.430  21.925   0.526  0.00  0.00     0.026 A 
ATOM     13  C16 NON d   1     -40.299  22.613   1.367  0.00  0.00     0.004 A 
ATOM     14  C17 NON d   1     -41.002  23.716   0.896  0.00  0.00     0.038 A 
ATOM     15  C18 NON d   1     -40.817  24.063  -0.444  0.00  0.00     0.088 A 
ATOM     16  O4  NON d   1     -41.426  25.127  -1.027  0.00  0.00    -0.309 OA
ATOM     17  C25 NON d   1     -39.991  23.387  -1.349  0.00  0.00     0.034 A 
ATOM     18  C19 NON d   1     -41.042  25.139  -2.326  0.00  0.00     0.087 A 
ATOM     19  C20 NON d   1     -41.457  26.090  -3.259  0.00  0.00     0.038 A 
ATOM     20  C24 NON d   1     -40.191  24.070  -2.599  0.00  0.00     0.012 A 
ATOM     21  C21 NON d   1     -41.001  25.928  -4.568  0.00  0.00     0.003 A 
ATOM     22  C22 NON d   1     -40.180  24.853  -4.906  0.00  0.00     0.001 A 
ATOM     23  C23 NON d   1     -39.773  23.921  -3.937  0.00  0.00     0.015 A 
ENDBRANCH   8  11
ENDBRANCH   7   8
ENDBRANCH   4   7
BRANCH   1  24
ATOM     24  C9  NON d   1     -43.098  17.901  -3.976  0.00  0.00     0.017 C 
ATOM     25  C8  NON d   1     -43.936  17.957  -5.025  0.00  0.00     0.075 C 
BRANCH  25  26
ATOM     26  C7  NON d   1     -45.121  17.040  -5.013  0.00  0.00     0.245 C 
ATOM     27  N2  NON d   1     -46.043  17.340  -4.033  0.00  0.00    -0.322 N 
ATOM     28  H7  NON d   1     -45.898  18.164  -3.466  0.00  0.00     0.169 HD
ATOM     29  O1  NON d   1     -45.192  16.110  -5.810  0.00  0.00    -0.268 OA
BRANCH  27  30
ATOM     30  C6  NON d   1     -47.262  16.659  -3.770  0.00  0.00     0.056 A 
ATOM     31  C5  NON d   1     -47.801  16.513  -2.486  0.00  0.00     0.031 A 
ATOM     32  C4  NON d   1     -48.962  15.765  -2.277  0.00  0.00     0.002 A 
ATOM     33  C3  NON d   1     -49.590  15.138  -3.348  0.00  0.00     0.002 A 
ATOM     34  C2  NON d   1     -49.072  15.281  -4.636  0.00  0.00     0.025 A 
ATOM     35  C1  NON d   1     -47.944  16.083  -4.866  0.00  0.00     0.033 A 
BRANCH  35  36
ATOM     36  N1  NON d   1     -47.440  16.201  -6.185  0.00  0.00    -0.301 NA
ATOM     37  H1  NON d   1     -47.024  17.115  -6.353  0.00  0.00     0.124 HD
ATOM     38  H2  NON d   1     -46.762  15.469  -6.379  0.00  0.00     0.124 HD
ENDBRANCH  35  36
ENDBRANCH  27  30
ENDBRANCH  25  26
ENDBRANCH   1  24
TORSDOF 7
ENDMDL
MODEL 6
REMARK VINA RESULT:   -35.708      2.629      4.895
REMARK INTER + INTRA:         -39.969
REMARK INTER:                 -37.796
REMARK INTRA:                  -2.173
REMARK CONF_INDEPENDENT:        2.088
REMARK UNBOUND:                -2.173
REMARK  7 active torsions:
REMARK  status: ('A' for Active; 'I' for Inactive)
REMARK    1  A    between atoms: N1_1  and  C1_2 
REMARK    2  A    between atoms: C6_7  and  N2_8 
REMARK       I    between atoms: N2_8  and  C7_9 
REMARK    3  A    between atoms: C7_9  and  C8_11 
REMARK    4  A    between atoms: C9_12  and  C10_13 
REMARK    5  A    between atoms: C13_16  and  N3_17 
REMARK    6  A    between atoms: N3_17  and  S1_18 
REMARK    7  A    between atoms: S1_18  and  C14_21 
ROOT
ATOM      1  C10 NON d   1     -41.926  17.952  -3.771  0.00  0.00    -0.036 A 
ATOM      2  C11 NON d   1     -41.641  18.266  -2.436  0.00  0.00     0.014 A 
ATOM      3  C12 NON d   1     -40.342  18.579  -2.019  0.00  0.00     0.033 A 
ATOM      4  C13 NON d   1     -39.266  18.584  -2.915  0.00  0.00     0.070 A 
ATOM      5  C26 NON d   1     -39.560  18.287  -4.255  0.00  0.00     0.033 A 
ATOM      6  C27 NON d   1     -40.866  17.969  -4.680  0.00  0.00     0.014 A 
ENDROOT
BRANCH   4   7
ATOM      7  N3  NON d   1     -38.002  18.892  -2.521  0.00  0.00    -0.160 NA
BRANCH   7   8
ATOM      8  S1  NON d   1     -37.463  20.402  -2.661  0.00  0.00     0.284 S 
ATOM      9  O2  NON d   1     -36.539  20.619  -3.771  0.00  0.00    -0.198 OA
ATOM     10  O3  NON d   1     -37.041  21.067  -1.426  0.00  0.00    -0.198 OA
BRANCH   8  11
ATOM     11  C14 NON d   1     -38.919  21.415  -3.112  0.00  0.00     0.095 A 
ATOM     12  C15 NON d   1     -39.514  22.113  -2.033  0.00  0.00     0.026 A 
ATOM     13  C16 NON d   1     -40.530  23.043  -2.231  0.00  0.00     0.004 A 
ATOM     14  C17 NON d   1     -40.978  23.329  -3.515  0.00  0.00     0.038 A 
ATOM     15  C18 NON d   1     -40.390  22.620  -4.565  0.00  0.00     0.088 A 
ATOM     16  O4  NON d   1     -40.719  22.814  -5.868  0.00  0.00    -0.309 OA
ATOM     17  C25 NON d   1     -39.395  21.644  -4.428  0.00  0.00     0.034 A 
ATOM     18  C19 NON d   1     -39.979  21.942  -6.596  0.00  0.00     0.087 A 
ATOM     19  C20 NON d   1     -40.032  21.838  -7.987  0.00  0.00     0.038 A 
ATOM     20  C24 NON d   1     -39.174  21.165  -5.767  0.00  0.00     0.012 A 
ATOM     21  C21 NON d   1     -39.234  20.855  -8.574  0.00  0.00     0.003 A 
ATOM     22  C22 NON d   1     -38.440  20.022  -7.788  0.00  0.00     0.001 A 
ATOM     23  C23 NON d   1     -38.403  20.164  -6.391  0.00  0.00     0.015 A 
ENDBRANCH   8  11
ENDBRANCH   7   8
ENDBRANCH   4   7
BRANCH   1  24
ATOM     24  C9  NON d   1     -43.333  17.666  -4.112  0.00  0.00     0.017 C 
ATOM     25  C8  NON d   1     -44.104  18.196  -5.077  0.00  0.00     0.075 C 
BRANCH  25  26
ATOM     26  C7  NON d   1     -45.531  17.743  -5.148  0.00  0.00     0.245 C 
ATOM     27  N2  NON d   1     -45.973  17.123  -3.999  0.00  0.00    -0.322 N 
ATOM     28  H7  NON d   1     -45.355  17.084  -3.200  0.00  0.00     0.169 HD
ATOM     29  O1  NON d   1     -46.184  17.915  -6.172  0.00  0.00    -0.268 OA
BRANCH  27  30
ATOM     30  C6  NON d   1     -47.268  16.588  -3.761  0.00  0.00     0.056 A 
ATOM     31  C5  NON d   1     -47.850  16.518  -2.490  0.00  0.00     0.031 A 
ATOM     32  C4  NON d   1     -49.094  15.910  -2.305  0.00  0.00     0.002 A 
ATOM     33  C3  NON d   1     -49.765  15.349  -3.386  0.00  0.00     0.002 A 
ATOM     34  C2  NON d   1     -49.203  15.418  -4.662  0.00  0.00     0.025 A 
ATOM     35  C1  NON d   1     -47.985  16.083  -4.870  0.00  0.00     0.033 A 
BRANCH  35  36
ATOM     36  N1  NON d   1     -47.440  16.130  -6.177  0.00  0.00    -0.301 NA
ATOM     37  H1  NON d   1     -47.510  17.060  -6.585  0.00  0.00     0.124 HD
ATOM     38  H2  NON d   1     -46.471  15.822  -6.175  0.00  0.00     0.124 HD
ENDBRANCH  35  36
ENDBRANCH  27  30
ENDBRANCH  25  26
ENDBRANCH   1  24
TORSDOF 7
ENDMDL
MODEL 7
REMARK VINA RESULT:   -35.308      4.019      5.836
REMARK INTER + INTRA:         -39.706
REMARK INTER:                 -37.396
REMARK INTRA:                  -2.310
REMARK CONF_INDEPENDENT:        2.088
REMARK UNBOUND:                -2.310
REMARK  7 active torsions:
REMARK  status: ('A' for Active; 'I' for Inactive)
REMARK    1  A    between atoms: N1_1  and  C1_2 
REMARK    2  A    between atoms: C6_7  and  N2_8 
REMARK       I    between atoms: N2_8  and  C7_9 
REMARK    3  A    between atoms: C7_9  and  C8_11 
REMARK    4  A    between atoms: C9_12  and  C10_13 
REMARK    5  A    between atoms: C13_16  and  N3_17 
REMARK    6  A    between atoms: N3_17  and  S1_18 
REMARK    7  A    between atoms: S1_18  and  C14_21 
ROOT
ATOM      1  C10 NON d   1     -42.064  18.732  -3.844  0.00  0.00    -0.036 A 
ATOM      2  C11 NON d   1     -41.946  19.962  -4.505  0.00  0.00     0.014 A 
ATOM      3  C12 NON d   1     -40.767  20.713  -4.448  0.00  0.00     0.033 A 
ATOM      4  C13 NON d   1     -39.654  20.277  -3.720  0.00  0.00     0.070 A 
ATOM      5  C26 NON d   1     -39.770  19.035  -3.074  0.00  0.00     0.033 A 
ATOM      6  C27 NON d   1     -40.956  18.275  -3.127  0.00  0.00     0.014 A 
ENDROOT
BRANCH   4   7
ATOM      7  N3  NON d   1     -38.503  20.997  -3.663  0.00  0.00    -0.160 NA
BRANCH   7   8
ATOM      8  S1  NON d   1     -37.286  20.646  -4.656  0.00  0.00     0.284 S 
ATOM      9  O2  NON d   1     -36.551  19.431  -4.314  0.00  0.00    -0.198 OA
ATOM     10  O3  NON d   1     -36.411  21.756  -5.042  0.00  0.00    -0.198 OA
BRANCH   8  11
ATOM     11  C14 NON d   1     -38.054  20.243  -6.268  0.00  0.00     0.095 A 
ATOM     12  C15 NON d   1     -38.055  18.866  -6.598  0.00  0.00     0.026 A 
ATOM     13  C16 NON d   1     -38.733  18.378  -7.710  0.00  0.00     0.004 A 
ATOM     14  C17 NON d   1     -39.455  19.242  -8.526  0.00  0.00     0.038 A 
ATOM     15  C18 NON d   1     -39.429  20.598  -8.194  0.00  0.00     0.088 A 
ATOM     16  O4  NON d   1     -40.104  21.547  -8.893  0.00  0.00    -0.309 OA
ATOM     17  C25 NON d   1     -38.733  21.155  -7.115  0.00  0.00     0.034 A 
ATOM     18  C19 NON d   1     -39.827  22.738  -8.309  0.00  0.00     0.087 A 
ATOM     19  C20 NON d   1     -40.341  23.962  -8.741  0.00  0.00     0.038 A 
ATOM     20  C24 NON d   1     -38.957  22.572  -7.235  0.00  0.00     0.012 A 
ATOM     21  C21 NON d   1     -39.917  25.100  -8.053  0.00  0.00     0.003 A 
ATOM     22  C22 NON d   1     -39.014  24.995  -6.996  0.00  0.00     0.001 A 
ATOM     23  C23 NON d   1     -38.527  23.744  -6.581  0.00  0.00     0.015 A 
ENDBRANCH   8  11
ENDBRANCH   7   8
ENDBRANCH   4   7
BRANCH   1  24
ATOM     24  C9  NON d   1     -43.339  18.005  -3.992  0.00  0.00     0.017 C 
ATOM     25  C8  NON d   1     -43.840  17.364  -5.063  0.00  0.00     0.075 C 
BRANCH  25  26
ATOM     26  C7  NON d   1     -45.203  16.757  -4.930  0.00  0.00     0.245 C 
ATOM     27  N2  NON d   1     -45.898  17.194  -3.822  0.00  0.00    -0.322 N 
ATOM     28  H7  NON d   1     -45.488  17.915  -3.245  0.00  0.00     0.169 HD
ATOM     29  O1  NON d   1     -45.596  15.933  -5.749  0.00  0.00    -0.268 OA
BRANCH  27  30
ATOM     30  C6  NON d   1     -47.206  16.804  -3.426  0.00  0.00     0.056 A 
ATOM     31  C5  NON d   1     -47.617  16.732  -2.090  0.00  0.00     0.031 A 
ATOM     32  C4  NON d   1     -48.891  16.266  -1.756  0.00  0.00     0.002 A 
ATOM     33  C3  NON d   1     -49.765  15.850  -2.754  0.00  0.00     0.002 A 
ATOM     34  C2  NON d   1     -49.376  15.924  -4.092  0.00  0.00     0.025 A 
ATOM     35  C1  NON d   1     -48.123  16.450  -4.443  0.00  0.00     0.033 A 
BRANCH  35  36
ATOM     36  N1  NON d   1     -47.757  16.505  -5.810  0.00  0.00    -0.301 NA
ATOM     37  H1  NON d   1     -47.242  17.355  -6.032  0.00  0.00     0.124 HD
ATOM     38  H2  NON d   1     -47.209  15.689  -6.070  0.00  0.00     0.124 HD
ENDBRANCH  35  36
ENDBRANCH  27  30
ENDBRANCH  25  26
ENDBRANCH   1  24
TORSDOF 7
ENDMDL
MODEL 8
REMARK VINA RESULT:   -35.071      4.846      7.604
REMARK INTER + INTRA:         -38.633
REMARK INTER:                 -37.159
REMARK INTRA:                  -1.473
REMARK CONF_INDEPENDENT:        2.088
REMARK UNBOUND:                -1.473
REMARK  7 active torsions:
REMARK  status: ('A' for Active; 'I' for Inactive)
REMARK    1  A    between atoms: N1_1  and  C1_2 
REMARK    2  A    between atoms: C6_7  and  N2_8 
REMARK       I    between atoms: N2_8  and  C7_9 
REMARK    3  A    between atoms: C7_9  and  C8_11 
REMARK    4  A    between atoms: C9_12  and  C10_13 
REMARK    5  A    between atoms: C13_16  and  N3_17 
REMARK    6  A    between atoms: N3_17  and  S1_18 
REMARK    7  A    between atoms: S1_18  and  C14_21 
ROOT
ATOM      1  C10 NON d   1     -42.446  19.493  -5.369  0.00  0.00    -0.036 A 
ATOM      2  C11 NON d   1     -41.862  20.051  -4.224  0.00  0.00     0.014 A 
ATOM      3  C12 NON d   1     -40.734  20.875  -4.307  0.00  0.00     0.033 A 
ATOM      4  C13 NON d   1     -40.132  21.174  -5.535  0.00  0.00     0.070 A 
ATOM      5  C26 NON d   1     -40.733  20.628  -6.681  0.00  0.00     0.033 A 
ATOM      6  C27 NON d   1     -41.867  19.795  -6.604  0.00  0.00     0.014 A 
ENDROOT
BRANCH   4   7
ATOM      7  N3  NON d   1     -39.040  21.978  -5.625  0.00  0.00    -0.160 NA
BRANCH   7   8
ATOM      8  S1  NON d   1     -38.870  22.962  -6.888  0.00  0.00     0.284 S 
ATOM      9  O2  NON d   1     -37.955  24.080  -6.672  0.00  0.00    -0.198 OA
ATOM     10  O3  NON d   1     -40.097  23.353  -7.587  0.00  0.00    -0.198 OA
BRANCH   8  11
ATOM     11  C14 NON d   1     -38.040  21.974  -8.186  0.00  0.00     0.095 A 
ATOM     12  C15 NON d   1     -37.165  20.972  -7.702  0.00  0.00     0.026 A 
ATOM     13  C16 NON d   1     -36.577  20.038  -8.549  0.00  0.00     0.004 A 
ATOM     14  C17 NON d   1     -36.856  20.054  -9.911  0.00  0.00     0.038 A 
ATOM     15  C18 NON d   1     -37.709  21.058 -10.372  0.00  0.00     0.088 A 
ATOM     16  O4  NON d   1     -38.080  21.178 -11.673  0.00  0.00    -0.309 OA
ATOM     17  C25 NON d   1     -38.298  22.050  -9.579  0.00  0.00     0.034 A 
ATOM     18  C19 NON d   1     -38.878  22.270 -11.757  0.00  0.00     0.087 A 
ATOM     19  C20 NON d   1     -39.466  22.724 -12.939  0.00  0.00     0.038 A 
ATOM     20  C24 NON d   1     -39.019  22.876 -10.511  0.00  0.00     0.012 A 
ATOM     21  C21 NON d   1     -40.225  23.892 -12.855  0.00  0.00     0.003 A 
ATOM     22  C22 NON d   1     -40.366  24.562 -11.640  0.00  0.00     0.001 A 
ATOM     23  C23 NON d   1     -39.769  24.068 -10.468  0.00  0.00     0.015 A 
ENDBRANCH   8  11
ENDBRANCH   7   8
ENDBRANCH   4   7
BRANCH   1  24
ATOM     24  C9  NON d   1     -43.650  18.662  -5.176  0.00  0.00     0.017 C 
ATOM     25  C8  NON d   1     -43.768  17.323  -5.141  0.00  0.00     0.075 C 
BRANCH  25  26
ATOM     26  C7  NON d   1     -45.146  16.755  -4.984  0.00  0.00     0.245 C 
ATOM     27  N2  NON d   1     -45.807  17.207  -3.861  0.00  0.00    -0.322 N 
ATOM     28  H7  NON d   1     -45.365  17.914  -3.290  0.00  0.00     0.169 HD
ATOM     29  O1  NON d   1     -45.578  15.946  -5.798  0.00  0.00    -0.268 OA
BRANCH  27  30
ATOM     30  C6  NON d   1     -47.118  16.854  -3.442  0.00  0.00     0.056 A 
ATOM     31  C5  NON d   1     -47.515  16.824  -2.100  0.00  0.00     0.031 A 
ATOM     32  C4  NON d   1     -48.794  16.393  -1.741  0.00  0.00     0.002 A 
ATOM     33  C3  NON d   1     -49.687  15.969  -2.718  0.00  0.00     0.002 A 
ATOM     34  C2  NON d   1     -49.311  16.001  -4.061  0.00  0.00     0.025 A 
ATOM     35  C1  NON d   1     -48.053  16.493  -4.439  0.00  0.00     0.033 A 
BRANCH  35  36
ATOM     36  N1  NON d   1     -47.701  16.505  -5.811  0.00  0.00    -0.301 NA
ATOM     37  H1  NON d   1     -46.917  17.128  -5.997  0.00  0.00     0.124 HD
ATOM     38  H2  NON d   1     -47.485  15.567  -6.136  0.00  0.00     0.124 HD
ENDBRANCH  35  36
ENDBRANCH  27  30
ENDBRANCH  25  26
ENDBRANCH   1  24
TORSDOF 7
ENDMDL
MODEL 9
REMARK VINA RESULT:   -34.891      3.515      5.996
REMARK INTER + INTRA:         -38.834
REMARK INTER:                 -36.979
REMARK INTRA:                  -1.855
REMARK CONF_INDEPENDENT:        2.088
REMARK UNBOUND:                -1.855
REMARK  7 active torsions:
REMARK  status: ('A' for Active; 'I' for Inactive)
REMARK    1  A    between atoms: N1_1  and  C1_2 
REMARK    2  A    between atoms: C6_7  and  N2_8 
REMARK       I    between atoms: N2_8  and  C7_9 
REMARK    3  A    between atoms: C7_9  and  C8_11 
REMARK    4  A    between atoms: C9_12  and  C10_13 
REMARK    5  A    between atoms: C13_16  and  N3_17 
REMARK    6  A    between atoms: N3_17  and  S1_18 
REMARK    7  A    between atoms: S1_18  and  C14_21 
ROOT
ATOM      1  C10 NON d   1     -41.841  18.222  -3.728  0.00  0.00    -0.036 A 
ATOM      2  C11 NON d   1     -41.184  18.678  -4.878  0.00  0.00     0.014 A 
ATOM      3  C12 NON d   1     -39.923  19.282  -4.809  0.00  0.00     0.033 A 
ATOM      4  C13 NON d   1     -39.265  19.468  -3.588  0.00  0.00     0.070 A 
ATOM      5  C26 NON d   1     -39.918  18.992  -2.440  0.00  0.00     0.033 A 
ATOM      6  C27 NON d   1     -41.189  18.385  -2.503  0.00  0.00     0.014 A 
ENDROOT
BRANCH   4   7
ATOM      7  N3  NON d   1     -38.038  20.049  -3.513  0.00  0.00    -0.160 NA
BRANCH   7   8
ATOM      8  S1  NON d   1     -37.914  21.648  -3.373  0.00  0.00     0.284 S 
ATOM      9  O2  NON d   1     -36.548  22.161  -3.422  0.00  0.00    -0.198 OA
ATOM     10  O3  NON d   1     -38.727  22.282  -2.332  0.00  0.00    -0.198 OA
BRANCH   8  11
ATOM     11  C14 NON d   1     -38.687  22.345  -4.879  0.00  0.00     0.095 A 
ATOM     12  C15 NON d   1     -39.412  23.544  -4.674  0.00  0.00     0.026 A 
ATOM     13  C16 NON d   1     -39.929  24.281  -5.735  0.00  0.00     0.004 A 
ATOM     14  C17 NON d   1     -39.724  23.861  -7.044  0.00  0.00     0.038 A 
ATOM     15  C18 NON d   1     -39.021  22.668  -7.226  0.00  0.00     0.088 A 
ATOM     16  O4  NON d   1     -38.735  22.153  -8.450  0.00  0.00    -0.309 OA
ATOM     17  C25 NON d   1     -38.513  21.862  -6.201  0.00  0.00     0.034 A 
ATOM     18  C19 NON d   1     -38.077  20.987  -8.244  0.00  0.00     0.087 A 
ATOM     19  C20 NON d   1     -37.609  20.158  -9.264  0.00  0.00     0.038 A 
ATOM     20  C24 NON d   1     -37.944  20.729  -6.881  0.00  0.00     0.012 A 
ATOM     21  C21 NON d   1     -36.989  18.970  -8.875  0.00  0.00     0.003 A 
ATOM     22  C22 NON d   1     -36.866  18.642  -7.526  0.00  0.00     0.001 A 
ATOM     23  C23 NON d   1     -37.339  19.507  -6.525  0.00  0.00     0.015 A 
ENDBRANCH   8  11
ENDBRANCH   7   8
ENDBRANCH   4   7
BRANCH   1  24
ATOM     24  C9  NON d   1     -43.153  17.573  -3.911  0.00  0.00     0.017 C 
ATOM     25  C8  NON d   1     -43.931  17.510  -5.006  0.00  0.00     0.075 C 
BRANCH  25  26
ATOM     26  C7  NON d   1     -45.254  16.820  -4.875  0.00  0.00     0.245 C 
ATOM     27  N2  NON d   1     -46.005  17.262  -3.806  0.00  0.00    -0.322 N 
ATOM     28  H7  NON d   1     -45.658  18.035  -3.256  0.00  0.00     0.169 HD
ATOM     29  O1  NON d   1     -45.571  15.934  -5.662  0.00  0.00    -0.268 OA
BRANCH  27  30
ATOM     30  C6  NON d   1     -47.295  16.805  -3.422  0.00  0.00     0.056 A 
ATOM     31  C5  NON d   1     -47.708  16.699  -2.088  0.00  0.00     0.031 A 
ATOM     32  C4  NON d   1     -48.960  16.169  -1.766  0.00  0.00     0.002 A 
ATOM     33  C3  NON d   1     -49.808  15.722  -2.773  0.00  0.00     0.002 A 
ATOM     34  C2  NON d   1     -49.416  15.828  -4.108  0.00  0.00     0.025 A 
ATOM     35  C1  NON d   1     -48.188  16.418  -4.447  0.00  0.00     0.033 A 
BRANCH  35  36
ATOM     36  N1  NON d   1     -47.818  16.505  -5.811  0.00  0.00    -0.301 NA
ATOM     37  H1  NON d   1     -46.883  16.890  -5.928  0.00  0.00     0.124 HD
ATOM     38  H2  NON d   1     -47.878  15.595  -6.260  0.00  0.00     0.124 HD
ENDBRANCH  35  36
ENDBRANCH  27  30
ENDBRANCH  25  26
ENDBRANCH   1  24
TORSDOF 7
ENDMDL
