MODEL 1
REMARK VINA RESULT:   -35.652      0.000      0.000
REMARK INTER + INTRA:         -38.286
REMARK INTER:                 -37.144
REMARK INTRA:                  -1.142
REMARK CONF_INDEPENDENT:        1.492
REMARK UNBOUND:                -1.142
REMARK  5 active torsions:
REMARK  status: ('A' for Active; 'I' for Inactive)
REMARK    1  A    between atoms: N1_1  and  C1_2 
REMARK    2  A    between atoms: C6_7  and  N2_8 
REMARK       I    between atoms: N2_8  and  C7_9 
REMARK    3  A    between atoms: C7_9  and  C8_11 
REMARK    4  A    between atoms: C11_14  and  C12_15 
REMARK    5  A    between atoms: C12_15  and  N3_16 
ROOT
ATOM      1  C8  NON d   1     -43.921  17.537  -4.954  0.00  0.00     0.032 A 
ATOM      2  C9  NON d   1     -43.928  18.932  -5.058  0.00  0.00     0.017 A 
ATOM      3  C10 NON d   1     -42.741  19.638  -5.271  0.00  0.00     0.010 A 
ATOM      4  C11 NON d   1     -41.500  18.983  -5.379  0.00  0.00    -0.040 A 
ATOM      5  C21 NON d   1     -41.486  17.598  -5.192  0.00  0.00     0.010 A 
ATOM      6  C22 NON d   1     -42.685  16.878  -4.993  0.00  0.00     0.017 A 
ENDROOT
BRANCH   4   7
ATOM      7  C12 NON d   1     -40.323  19.869  -5.766  0.00  0.00     0.175 C 
BRANCH   7   8
ATOM      8  N3  NON d   1     -40.451  20.999  -6.690  0.00  0.00    -0.261 N 
ATOM      9  C13 NON d   1     -40.554  20.636  -8.032  0.00  0.00     0.330 C 
ATOM     10  O2  NON d   1     -40.676  19.480  -8.438  0.00  0.00    -0.246 OA
ATOM     11  N4  NON d   1     -40.462  21.632  -8.962  0.00  0.00    -0.307 N 
ATOM     12  C14 NON d   1     -40.257  22.968  -8.649  0.00  0.00     0.052 A 
ATOM     13  H12 NON d   1     -40.552  21.335  -9.925  0.00  0.00     0.170 HD
ATOM     14  C15 NON d   1     -40.256  23.937  -9.653  0.00  0.00     0.030 A 
ATOM     15  C19 NON d   1     -40.035  23.320  -7.328  0.00  0.00     0.059 A 
ATOM     16  C16 NON d   1     -40.080  25.278  -9.308  0.00  0.00     0.002 A 
ATOM     17  C17 NON d   1     -39.899  25.644  -7.973  0.00  0.00     0.001 A 
ATOM     18  C18 NON d   1     -39.859  24.663  -6.978  0.00  0.00     0.019 A 
ATOM     19  C20 NON d   1     -39.915  22.236  -6.338  0.00  0.00     0.264 C 
ATOM     20  O3  NON d   1     -39.316  22.475  -5.293  0.00  0.00    -0.267 OA
ENDBRANCH   7   8
ENDBRANCH   4   7
BRANCH   1  21
ATOM     21  C7  NON d   1     -45.254  16.856  -4.825  0.00  0.00     0.256 C 
ATOM     22  N2  NON d   1     -46.047  17.229  -3.759  0.00  0.00    -0.321 N 
ATOM     23  H7  NON d   1     -45.739  17.956  -3.127  0.00  0.00     0.169 HD
ATOM     24  O1  NON d   1     -45.541  15.992  -5.649  0.00  0.00    -0.267 OA
BRANCH  22  25
ATOM     25  C6  NON d   1     -47.320  16.719  -3.403  0.00  0.00     0.056 A 
ATOM     26  C5  NON d   1     -47.803  16.637  -2.096  0.00  0.00     0.031 A 
ATOM     27  C4  NON d   1     -49.073  16.112  -1.845  0.00  0.00     0.002 A 
ATOM     28  C3  NON d   1     -49.873  15.671  -2.897  0.00  0.00     0.002 A 
ATOM     29  C2  NON d   1     -49.406  15.761  -4.209  0.00  0.00     0.025 A 
ATOM     30  C1  NON d   1     -48.123  16.257  -4.470  0.00  0.00     0.033 A 
BRANCH  30  31
ATOM     31  N1  NON d   1     -47.717  16.505  -5.811  0.00  0.00    -0.301 NA
ATOM     32  H1  NON d   1     -47.170  17.362  -5.870  0.00  0.00     0.124 HD
ATOM     33  H2  NON d   1     -47.135  15.728  -6.122  0.00  0.00     0.124 HD
ENDBRANCH  30  31
ENDBRANCH  22  25
ENDBRANCH   1  21
TORSDOF 5
ENDMDL
MODEL 2
REMARK VINA RESULT:   -35.282      3.353      4.540
REMARK INTER + INTRA:         -38.129
REMARK INTER:                 -36.774
REMARK INTRA:                  -1.355
REMARK CONF_INDEPENDENT:        1.492
REMARK UNBOUND:                -1.355
REMARK  5 active torsions:
REMARK  status: ('A' for Active; 'I' for Inactive)
REMARK    1  A    between atoms: N1_1  and  C1_2 
REMARK    2  A    between atoms: C6_7  and  N2_8 
REMARK       I    between atoms: N2_8  and  C7_9 
REMARK    3  A    between atoms: C7_9  and  C8_11 
REMARK    4  A    between atoms: C11_14  and  C12_15 
REMARK    5  A    between atoms: C12_15  and  N3_16 
ROOT
ATOM      1  C8  NON d   1     -43.872  17.799  -5.005  0.00  0.00     0.032 A 
ATOM      2  C9  NON d   1     -42.693  17.203  -4.544  0.00  0.00     0.017 A 
ATOM      3  C10 NON d   1     -41.511  17.942  -4.446  0.00  0.00     0.010 A 
ATOM      4  C11 NON d   1     -41.455  19.300  -4.813  0.00  0.00    -0.040 A 
ATOM      5  C21 NON d   1     -42.613  19.868  -5.351  0.00  0.00     0.010 A 
ATOM      6  C22 NON d   1     -43.814  19.131  -5.436  0.00  0.00     0.017 A 
ENDROOT
BRANCH   4   7
ATOM      7  C12 NON d   1     -40.143  20.009  -4.503  0.00  0.00     0.175 C 
BRANCH   7   8
ATOM      8  N3  NON d   1     -39.925  20.772  -3.273  0.00  0.00    -0.261 N 
ATOM      9  C13 NON d   1     -39.448  20.017  -2.202  0.00  0.00     0.330 C 
ATOM     10  O2  NON d   1     -39.092  18.841  -2.280  0.00  0.00    -0.246 OA
ATOM     11  N4  NON d   1     -39.426  20.611  -0.973  0.00  0.00    -0.307 N 
ATOM     12  C14 NON d   1     -39.861  21.905  -0.730  0.00  0.00     0.052 A 
ATOM     13  H12 NON d   1     -39.063  20.038  -0.221  0.00  0.00     0.170 HD
ATOM     14  C15 NON d   1     -39.729  22.469   0.540  0.00  0.00     0.030 A 
ATOM     15  C19 NON d   1     -40.447  22.620  -1.762  0.00  0.00     0.059 A 
ATOM     16  C16 NON d   1     -40.146  23.784   0.751  0.00  0.00     0.002 A 
ATOM     17  C17 NON d   1     -40.696  24.526  -0.297  0.00  0.00     0.001 A 
ATOM     18  C18 NON d   1     -40.864  23.939  -1.556  0.00  0.00     0.019 A 
ATOM     19  C20 NON d   1     -40.678  21.922  -3.038  0.00  0.00     0.264 C 
ATOM     20  O3  NON d   1     -41.542  22.366  -3.789  0.00  0.00    -0.267 OA
ENDBRANCH   7   8
ENDBRANCH   4   7
BRANCH   1  21
ATOM     21  C7  NON d   1     -45.115  16.956  -4.983  0.00  0.00     0.256 C 
ATOM     22  N2  NON d   1     -46.046  17.240  -4.004  0.00  0.00    -0.321 N 
ATOM     23  H7  NON d   1     -45.893  18.010  -3.365  0.00  0.00     0.169 HD
ATOM     24  O1  NON d   1     -45.213  16.050  -5.807  0.00  0.00    -0.267 OA
BRANCH  22  25
ATOM     25  C6  NON d   1     -47.273  16.577  -3.754  0.00  0.00     0.056 A 
ATOM     26  C5  NON d   1     -47.850  16.430  -2.491  0.00  0.00     0.031 A 
ATOM     27  C4  NON d   1     -49.065  15.754  -2.345  0.00  0.00     0.002 A 
ATOM     28  C3  NON d   1     -49.714  15.226  -3.459  0.00  0.00     0.002 A 
ATOM     29  C2  NON d   1     -49.154  15.380  -4.727  0.00  0.00     0.025 A 
ATOM     30  C1  NON d   1     -47.923  16.028  -4.882  0.00  0.00     0.033 A 
BRANCH  30  31
ATOM     31  N1  NON d   1     -47.440  16.331  -6.185  0.00  0.00    -0.301 NA
ATOM     32  H1  NON d   1     -47.002  17.251  -6.203  0.00  0.00     0.124 HD
ATOM     33  H2  NON d   1     -46.740  15.635  -6.441  0.00  0.00     0.124 HD
ENDBRANCH  30  31
ENDBRANCH  22  25
ENDBRANCH   1  21
TORSDOF 5
ENDMDL
MODEL 3
REMARK VINA RESULT:   -35.027      1.043      2.018
REMARK INTER + INTRA:         -37.472
REMARK INTER:                 -36.519
REMARK INTRA:                  -0.953
REMARK CONF_INDEPENDENT:        1.492
REMARK UNBOUND:                -0.953
REMARK  5 active torsions:
REMARK  status: ('A' for Active; 'I' for Inactive)
REMARK    1  A    between atoms: N1_1  and  C1_2 
REMARK    2  A    between atoms: C6_7  and  N2_8 
REMARK       I    between atoms: N2_8  and  C7_9 
REMARK    3  A    between atoms: C7_9  and  C8_11 
REMARK    4  A    between atoms: C11_14  and  C12_15 
REMARK    5  A    between atoms: C12_15  and  N3_16 
ROOT
ATOM      1  C8  NON d   1     -43.843  18.127  -5.034  0.00  0.00     0.032 A 
ATOM      2  C9  NON d   1     -43.520  19.428  -5.432  0.00  0.00     0.017 A 
ATOM      3  C10 NON d   1     -42.189  19.810  -5.615  0.00  0.00     0.010 A 
ATOM      4  C11 NON d   1     -41.125  18.913  -5.398  0.00  0.00    -0.040 A 
ATOM      5  C21 NON d   1     -41.447  17.639  -4.921  0.00  0.00     0.010 A 
ATOM      6  C22 NON d   1     -42.792  17.243  -4.752  0.00  0.00     0.017 A 
ENDROOT
BRANCH   4   7
ATOM      7  C12 NON d   1     -39.746  19.427  -5.789  0.00  0.00     0.175 C 
BRANCH   7   8
ATOM      8  N3  NON d   1     -39.549  20.573  -6.678  0.00  0.00    -0.261 N 
ATOM      9  C13 NON d   1     -39.841  21.808  -6.099  0.00  0.00     0.330 C 
ATOM     10  O2  NON d   1     -40.105  21.978  -4.908  0.00  0.00    -0.246 OA
ATOM     11  N4  NON d   1     -39.887  22.895  -6.924  0.00  0.00    -0.307 N 
ATOM     12  C14 NON d   1     -39.677  22.838  -8.294  0.00  0.00     0.052 A 
ATOM     13  H12 NON d   1     -40.090  23.776  -6.469  0.00  0.00     0.170 HD
ATOM     14  C15 NON d   1     -39.660  24.006  -9.056  0.00  0.00     0.030 A 
ATOM     15  C19 NON d   1     -39.504  21.600  -8.894  0.00  0.00     0.059 A 
ATOM     16  C16 NON d   1     -39.414  23.924 -10.428  0.00  0.00     0.002 A 
ATOM     17  C17 NON d   1     -39.196  22.684 -11.032  0.00  0.00     0.001 A 
ATOM     18  C18 NON d   1     -39.256  21.514 -10.268  0.00  0.00     0.019 A 
ATOM     19  C20 NON d   1     -39.667  20.401  -8.056  0.00  0.00     0.264 C 
ATOM     20  O3  NON d   1     -39.939  19.342  -8.614  0.00  0.00    -0.267 OA
ENDBRANCH   7   8
ENDBRANCH   4   7
BRANCH   1  21
ATOM     21  C7  NON d   1     -45.302  17.778  -4.961  0.00  0.00     0.256 C 
ATOM     22  N2  NON d   1     -45.759  17.246  -3.772  0.00  0.00    -0.321 N 
ATOM     23  H7  NON d   1     -45.129  17.141  -2.987  0.00  0.00     0.169 HD
ATOM     24  O1  NON d   1     -45.988  17.952  -5.965  0.00  0.00    -0.267 OA
BRANCH  22  25
ATOM     25  C6  NON d   1     -47.072  16.812  -3.462  0.00  0.00     0.056 A 
ATOM     26  C5  NON d   1     -47.692  16.986  -2.224  0.00  0.00     0.031 A 
ATOM     27  C4  NON d   1     -48.991  16.516  -2.013  0.00  0.00     0.002 A 
ATOM     28  C3  NON d   1     -49.682  15.876  -3.039  0.00  0.00     0.002 A 
ATOM     29  C2  NON d   1     -49.078  15.709  -4.286  0.00  0.00     0.025 A 
ATOM     30  C1  NON d   1     -47.766  16.148  -4.499  0.00  0.00     0.033 A 
BRANCH  30  31
ATOM     31  N1  NON d   1     -47.216  16.131  -5.811  0.00  0.00    -0.301 NA
ATOM     32  H1  NON d   1     -47.425  16.999  -6.302  0.00  0.00     0.124 HD
ATOM     33  H2  NON d   1     -46.203  16.037  -5.736  0.00  0.00     0.124 HD
ENDBRANCH  30  31
ENDBRANCH  22  25
ENDBRANCH   1  21
TORSDOF 5
ENDMDL
MODEL 4
REMARK VINA RESULT:   -34.654      1.285      2.271
REMARK INTER + INTRA:         -36.341
REMARK INTER:                 -36.146
REMARK INTRA:                  -0.195
REMARK CONF_INDEPENDENT:        1.492
REMARK UNBOUND:                -0.195
REMARK  5 active torsions:
REMARK  status: ('A' for Active; 'I' for Inactive)
REMARK    1  A    between atoms: N1_1  and  C1_2 
REMARK    2  A    between atoms: C6_7  and  N2_8 
REMARK       I    between atoms: N2_8  and  C7_9 
REMARK    3  A    between atoms: C7_9  and  C8_11 
REMARK    4  A    between atoms: C11_14  and  C12_15 
REMARK    5  A    between atoms: C12_15  and  N3_16 
ROOT
ATOM      1  C8  NON d   1     -43.982  17.752  -4.930  0.00  0.00     0.032 A 
ATOM      2  C9  NON d   1     -42.831  17.200  -4.360  0.00  0.00     0.017 A 
ATOM      3  C10 NON d   1     -41.665  17.958  -4.230  0.00  0.00     0.010 A 
ATOM      4  C11 NON d   1     -41.597  19.293  -4.671  0.00  0.00    -0.040 A 
ATOM      5  C21 NON d   1     -42.723  19.814  -5.315  0.00  0.00     0.010 A 
ATOM      6  C22 NON d   1     -43.909  19.058  -5.434  0.00  0.00     0.017 A 
ENDROOT
BRANCH   4   7
ATOM      7  C12 NON d   1     -40.314  20.035  -4.319  0.00  0.00     0.175 C 
BRANCH   7   8
ATOM      8  N3  NON d   1     -39.797  21.148  -5.118  0.00  0.00    -0.261 N 
ATOM      9  C13 NON d   1     -39.672  22.349  -4.420  0.00  0.00     0.330 C 
ATOM     10  O2  NON d   1     -39.833  22.472  -3.205  0.00  0.00    -0.246 OA
ATOM     11  N4  NON d   1     -39.402  23.474  -5.145  0.00  0.00    -0.307 N 
ATOM     12  C14 NON d   1     -39.263  23.491  -6.525  0.00  0.00     0.052 A 
ATOM     13  H12 NON d   1     -39.307  24.325  -4.606  0.00  0.00     0.170 HD
ATOM     14  C15 NON d   1     -38.907  24.668  -7.185  0.00  0.00     0.030 A 
ATOM     15  C19 NON d   1     -39.504  22.327  -7.237  0.00  0.00     0.059 A 
ATOM     16  C16 NON d   1     -38.742  24.651  -8.571  0.00  0.00     0.002 A 
ATOM     17  C17 NON d   1     -38.939  23.470  -9.290  0.00  0.00     0.001 A 
ATOM     18  C18 NON d   1     -39.338  22.306  -8.626  0.00  0.00     0.019 A 
ATOM     19  C20 NON d   1     -40.006  21.158  -6.496  0.00  0.00     0.264 C 
ATOM     20  O3  NON d   1     -40.612  20.295  -7.125  0.00  0.00    -0.267 OA
ENDBRANCH   7   8
ENDBRANCH   4   7
BRANCH   1  21
ATOM     21  C7  NON d   1     -45.217  16.896  -4.938  0.00  0.00     0.256 C 
ATOM     22  N2  NON d   1     -46.174  17.170  -3.982  0.00  0.00    -0.321 N 
ATOM     23  H7  NON d   1     -46.045  17.941  -3.339  0.00  0.00     0.169 HD
ATOM     24  O1  NON d   1     -45.285  15.990  -5.765  0.00  0.00    -0.267 OA
BRANCH  22  25
ATOM     25  C6  NON d   1     -47.400  16.494  -3.762  0.00  0.00     0.056 A 
ATOM     26  C5  NON d   1     -48.037  16.393  -2.524  0.00  0.00     0.031 A 
ATOM     27  C4  NON d   1     -49.244  15.698  -2.407  0.00  0.00     0.002 A 
ATOM     28  C3  NON d   1     -49.827  15.107  -3.525  0.00  0.00     0.002 A 
ATOM     29  C2  NON d   1     -49.207  15.215  -4.771  0.00  0.00     0.025 A 
ATOM     30  C1  NON d   1     -47.982  15.881  -4.894  0.00  0.00     0.033 A 
BRANCH  30  31
ATOM     31  N1  NON d   1     -47.440  16.135  -6.185  0.00  0.00    -0.301 NA
ATOM     32  H1  NON d   1     -47.077  15.277  -6.599  0.00  0.00     0.124 HD
ATOM     33  H2  NON d   1     -48.183  16.494  -6.784  0.00  0.00     0.124 HD
ENDBRANCH  30  31
ENDBRANCH  22  25
ENDBRANCH   1  21
TORSDOF 5
ENDMDL
MODEL 5
REMARK VINA RESULT:   -34.556      1.709      2.314
REMARK INTER + INTRA:         -36.368
REMARK INTER:                 -36.048
REMARK INTRA:                  -0.320
REMARK CONF_INDEPENDENT:        1.492
REMARK UNBOUND:                -0.320
REMARK  5 active torsions:
REMARK  status: ('A' for Active; 'I' for Inactive)
REMARK    1  A    between atoms: N1_1  and  C1_2 
REMARK    2  A    between atoms: C6_7  and  N2_8 
REMARK       I    between atoms: N2_8  and  C7_9 
REMARK    3  A    between atoms: C7_9  and  C8_11 
REMARK    4  A    between atoms: C11_14  and  C12_15 
REMARK    5  A    between atoms: C12_15  and  N3_16 
ROOT
ATOM      1  C8  NON d   1     -43.943  17.588  -4.934  0.00  0.00     0.032 A 
ATOM      2  C9  NON d   1     -43.964  18.982  -5.035  0.00  0.00     0.017 A 
ATOM      3  C10 NON d   1     -42.784  19.701  -5.242  0.00  0.00     0.010 A 
ATOM      4  C11 NON d   1     -41.535  19.058  -5.347  0.00  0.00    -0.040 A 
ATOM      5  C21 NON d   1     -41.509  17.673  -5.162  0.00  0.00     0.010 A 
ATOM      6  C22 NON d   1     -42.701  16.941  -4.969  0.00  0.00     0.017 A 
ENDROOT
BRANCH   4   7
ATOM      7  C12 NON d   1     -40.366  19.957  -5.728  0.00  0.00     0.175 C 
BRANCH   7   8
ATOM      8  N3  NON d   1     -40.400  21.412  -5.570  0.00  0.00    -0.261 N 
ATOM      9  C13 NON d   1     -39.689  22.114  -6.544  0.00  0.00     0.330 C 
ATOM     10  O2  NON d   1     -39.184  21.604  -7.545  0.00  0.00    -0.246 OA
ATOM     11  N4  NON d   1     -39.498  23.450  -6.343  0.00  0.00    -0.307 N 
ATOM     12  C14 NON d   1     -39.953  24.139  -5.228  0.00  0.00     0.052 A 
ATOM     13  H12 NON d   1     -38.989  23.930  -7.074  0.00  0.00     0.170 HD
ATOM     14  C15 NON d   1     -39.788  25.522  -5.135  0.00  0.00     0.030 A 
ATOM     15  C19 NON d   1     -40.554  23.429  -4.201  0.00  0.00     0.059 A 
ATOM     16  C16 NON d   1     -40.284  26.195  -4.018  0.00  0.00     0.002 A 
ATOM     17  C17 NON d   1     -40.930  25.492  -2.999  0.00  0.00     0.001 A 
ATOM     18  C18 NON d   1     -41.053  24.101  -3.080  0.00  0.00     0.019 A 
ATOM     19  C20 NON d   1     -40.576  21.960  -4.301  0.00  0.00     0.264 C 
ATOM     20  O3  NON d   1     -40.701  21.315  -3.264  0.00  0.00    -0.267 OA
ENDBRANCH   7   8
ENDBRANCH   4   7
BRANCH   1  21
ATOM     21  C7  NON d   1     -45.270  16.894  -4.812  0.00  0.00     0.256 C 
ATOM     22  N2  NON d   1     -46.073  17.260  -3.750  0.00  0.00    -0.321 N 
ATOM     23  H7  NON d   1     -45.776  17.992  -3.118  0.00  0.00     0.169 HD
ATOM     24  O1  NON d   1     -45.544  16.025  -5.636  0.00  0.00    -0.267 OA
BRANCH  22  25
ATOM     25  C6  NON d   1     -47.343  16.738  -3.401  0.00  0.00     0.056 A 
ATOM     26  C5  NON d   1     -47.835  16.659  -2.097  0.00  0.00     0.031 A 
ATOM     27  C4  NON d   1     -49.102  16.121  -1.852  0.00  0.00     0.002 A 
ATOM     28  C3  NON d   1     -49.888  15.665  -2.908  0.00  0.00     0.002 A 
ATOM     29  C2  NON d   1     -49.412  15.752  -4.217  0.00  0.00     0.025 A 
ATOM     30  C1  NON d   1     -48.133  16.260  -4.471  0.00  0.00     0.033 A 
BRANCH  30  31
ATOM     31  N1  NON d   1     -47.720  16.505  -5.810  0.00  0.00    -0.301 NA
ATOM     32  H1  NON d   1     -48.505  16.414  -6.453  0.00  0.00     0.124 HD
ATOM     33  H2  NON d   1     -47.362  17.458  -5.870  0.00  0.00     0.124 HD
ENDBRANCH  30  31
ENDBRANCH  22  25
ENDBRANCH   1  21
TORSDOF 5
ENDMDL
MODEL 6
REMARK VINA RESULT:   -34.264      1.993      2.584
REMARK INTER + INTRA:         -36.809
REMARK INTER:                 -35.755
REMARK INTRA:                  -1.054
REMARK CONF_INDEPENDENT:        1.492
REMARK UNBOUND:                -1.054
REMARK  5 active torsions:
REMARK  status: ('A' for Active; 'I' for Inactive)
REMARK    1  A    between atoms: N1_1  and  C1_2 
REMARK    2  A    between atoms: C6_7  and  N2_8 
REMARK       I    between atoms: N2_8  and  C7_9 
REMARK    3  A    between atoms: C7_9  and  C8_11 
REMARK    4  A    between atoms: C11_14  and  C12_15 
REMARK    5  A    between atoms: C12_15  and  N3_16 
ROOT
ATOM      1  C8  NON d   1     -43.893  17.649  -4.791  0.00  0.00     0.032 A 
ATOM      2  C9  NON d   1     -43.886  18.892  -5.434  0.00  0.00     0.017 A 
ATOM      3  C10 NON d   1     -42.718  19.654  -5.501  0.00  0.00     0.010 A 
ATOM      4  C11 NON d   1     -41.512  19.214  -4.922  0.00  0.00    -0.040 A 
ATOM      5  C21 NON d   1     -41.544  18.011  -4.210  0.00  0.00     0.010 A 
ATOM      6  C22 NON d   1     -42.718  17.229  -4.154  0.00  0.00     0.017 A 
ENDROOT
BRANCH   4   7
ATOM      7  C12 NON d   1     -40.292  20.078  -5.213  0.00  0.00     0.175 C 
BRANCH   7   8
ATOM      8  N3  NON d   1     -39.516  19.963  -6.450  0.00  0.00    -0.261 N 
ATOM      9  C13 NON d   1     -38.375  19.168  -6.344  0.00  0.00     0.330 C 
ATOM     10  O2  NON d   1     -38.086  18.489  -5.358  0.00  0.00    -0.246 OA
ATOM     11  N4  NON d   1     -37.495  19.188  -7.386  0.00  0.00    -0.307 N 
ATOM     12  C14 NON d   1     -37.661  19.959  -8.528  0.00  0.00     0.052 A 
ATOM     13  H12 NON d   1     -36.684  18.592  -7.280  0.00  0.00     0.170 HD
ATOM     14  C15 NON d   1     -36.757  19.862  -9.586  0.00  0.00     0.030 A 
ATOM     15  C19 NON d   1     -38.729  20.841  -8.590  0.00  0.00     0.059 A 
ATOM     16  C16 NON d   1     -36.966  20.625 -10.736  0.00  0.00     0.002 A 
ATOM     17  C17 NON d   1     -38.064  21.482 -10.823  0.00  0.00     0.001 A 
ATOM     18  C18 NON d   1     -38.942  21.606  -9.742  0.00  0.00     0.019 A 
ATOM     19  C20 NON d   1     -39.567  20.993  -7.389  0.00  0.00     0.264 C 
ATOM     20  O3  NON d   1     -40.217  22.027  -7.268  0.00  0.00    -0.267 OA
ENDBRANCH   7   8
ENDBRANCH   4   7
BRANCH   1  21
ATOM     21  C7  NON d   1     -45.167  16.856  -4.855  0.00  0.00     0.256 C 
ATOM     22  N2  NON d   1     -46.113  17.111  -3.883  0.00  0.00    -0.321 N 
ATOM     23  H7  NON d   1     -45.949  17.831  -3.191  0.00  0.00     0.169 HD
ATOM     24  O1  NON d   1     -45.275  16.010  -5.740  0.00  0.00    -0.267 OA
BRANCH  22  25
ATOM     25  C6  NON d   1     -47.370  16.482  -3.708  0.00  0.00     0.056 A 
ATOM     26  C5  NON d   1     -48.005  16.311  -2.477  0.00  0.00     0.031 A 
ATOM     27  C4  NON d   1     -49.245  15.670  -2.405  0.00  0.00     0.002 A 
ATOM     28  C3  NON d   1     -49.863  15.203  -3.563  0.00  0.00     0.002 A 
ATOM     29  C2  NON d   1     -49.244  15.381  -4.801  0.00  0.00     0.025 A 
ATOM     30  C1  NON d   1     -47.988  15.993  -4.882  0.00  0.00     0.033 A 
BRANCH  30  31
ATOM     31  N1  NON d   1     -47.440  16.324  -6.152  0.00  0.00    -0.301 NA
ATOM     32  H1  NON d   1     -47.006  17.246  -6.129  0.00  0.00     0.124 HD
ATOM     33  H2  NON d   1     -46.724  15.636  -6.385  0.00  0.00     0.124 HD
ENDBRANCH  30  31
ENDBRANCH  22  25
ENDBRANCH   1  21
TORSDOF 5
ENDMDL
MODEL 7
REMARK VINA RESULT:   -34.071      3.556      4.888
REMARK INTER + INTRA:         -36.559
REMARK INTER:                 -35.563
REMARK INTRA:                  -0.996
REMARK CONF_INDEPENDENT:        1.492
REMARK UNBOUND:                -0.996
REMARK  5 active torsions:
REMARK  status: ('A' for Active; 'I' for Inactive)
REMARK    1  A    between atoms: N1_1  and  C1_2 
REMARK    2  A    between atoms: C6_7  and  N2_8 
REMARK       I    between atoms: N2_8  and  C7_9 
REMARK    3  A    between atoms: C7_9  and  C8_11 
REMARK    4  A    between atoms: C11_14  and  C12_15 
REMARK    5  A    between atoms: C12_15  and  N3_16 
ROOT
ATOM      1  C8  NON d   1     -43.834  18.130  -4.828  0.00  0.00     0.032 A 
ATOM      2  C9  NON d   1     -42.976  17.278  -4.126  0.00  0.00     0.017 A 
ATOM      3  C10 NON d   1     -41.619  17.584  -3.993  0.00  0.00     0.010 A 
ATOM      4  C11 NON d   1     -41.062  18.745  -4.562  0.00  0.00    -0.040 A 
ATOM      5  C21 NON d   1     -41.906  19.550  -5.333  0.00  0.00     0.010 A 
ATOM      6  C22 NON d   1     -43.282  19.254  -5.456  0.00  0.00     0.017 A 
ENDROOT
BRANCH   4   7
ATOM      7  C12 NON d   1     -39.609  19.020  -4.200  0.00  0.00     0.175 C 
BRANCH   7   8
ATOM      8  N3  NON d   1     -39.217  20.007  -3.191  0.00  0.00    -0.261 N 
ATOM      9  C13 NON d   1     -37.902  20.458  -3.306  0.00  0.00     0.330 C 
ATOM     10  O2  NON d   1     -37.149  20.186  -4.241  0.00  0.00    -0.246 OA
ATOM     11  N4  NON d   1     -37.402  21.210  -2.282  0.00  0.00    -0.307 N 
ATOM     12  C14 NON d   1     -38.117  21.535  -1.139  0.00  0.00     0.052 A 
ATOM     13  H12 NON d   1     -36.450  21.529  -2.404  0.00  0.00     0.170 HD
ATOM     14  C15 NON d   1     -37.563  22.377  -0.174  0.00  0.00     0.030 A 
ATOM     15  C19 NON d   1     -39.380  20.993  -0.962  0.00  0.00     0.059 A 
ATOM     16  C16 NON d   1     -38.316  22.714   0.952  0.00  0.00     0.002 A 
ATOM     17  C17 NON d   1     -39.606  22.207   1.115  0.00  0.00     0.001 A 
ATOM     18  C18 NON d   1     -40.138  21.329   0.165  0.00  0.00     0.019 A 
ATOM     19  C20 NON d   1     -39.850  20.007  -1.950  0.00  0.00     0.264 C 
ATOM     20  O3  NON d   1     -40.733  19.225  -1.607  0.00  0.00    -0.267 OA
ENDBRANCH   7   8
ENDBRANCH   4   7
BRANCH   1  21
ATOM     21  C7  NON d   1     -45.293  17.773  -4.834  0.00  0.00     0.256 C 
ATOM     22  N2  NON d   1     -45.807  17.217  -3.680  0.00  0.00    -0.321 N 
ATOM     23  H7  NON d   1     -45.216  17.099  -2.867  0.00  0.00     0.169 HD
ATOM     24  O1  NON d   1     -45.929  17.963  -5.868  0.00  0.00    -0.267 OA
BRANCH  22  25
ATOM     25  C6  NON d   1     -47.131  16.770  -3.446  0.00  0.00     0.056 A 
ATOM     26  C5  NON d   1     -47.814  16.919  -2.238  0.00  0.00     0.031 A 
ATOM     27  C4  NON d   1     -49.119  16.438  -2.101  0.00  0.00     0.002 A 
ATOM     28  C3  NON d   1     -49.754  15.813  -3.172  0.00  0.00     0.002 A 
ATOM     29  C2  NON d   1     -49.086  15.672  -4.389  0.00  0.00     0.025 A 
ATOM     30  C1  NON d   1     -47.768  16.121  -4.528  0.00  0.00     0.033 A 
BRANCH  30  31
ATOM     31  N1  NON d   1     -47.152  16.130  -5.810  0.00  0.00    -0.301 NA
ATOM     32  H1  NON d   1     -47.249  17.044  -6.251  0.00  0.00     0.124 HD
ATOM     33  H2  NON d   1     -46.158  15.932  -5.694  0.00  0.00     0.124 HD
ENDBRANCH  30  31
ENDBRANCH  22  25
ENDBRANCH   1  21
TORSDOF 5
ENDMDL
MODEL 8
REMARK VINA RESULT:   -34.008      3.485      4.841
REMARK INTER + INTRA:         -36.635
REMARK INTER:                 -35.500
REMARK INTRA:                  -1.135
REMARK CONF_INDEPENDENT:        1.492
REMARK UNBOUND:                -1.135
REMARK  5 active torsions:
REMARK  status: ('A' for Active; 'I' for Inactive)
REMARK    1  A    between atoms: N1_1  and  C1_2 
REMARK    2  A    between atoms: C6_7  and  N2_8 
REMARK       I    between atoms: N2_8  and  C7_9 
REMARK    3  A    between atoms: C7_9  and  C8_11 
REMARK    4  A    between atoms: C11_14  and  C12_15 
REMARK    5  A    between atoms: C12_15  and  N3_16 
ROOT
ATOM      1  C8  NON d   1     -43.824  17.761  -4.918  0.00  0.00     0.032 A 
ATOM      2  C9  NON d   1     -42.694  17.151  -4.366  0.00  0.00     0.017 A 
ATOM      3  C10 NON d   1     -41.493  17.855  -4.238  0.00  0.00     0.010 A 
ATOM      4  C11 NON d   1     -41.369  19.190  -4.666  0.00  0.00    -0.040 A 
ATOM      5  C21 NON d   1     -42.477  19.769  -5.293  0.00  0.00     0.010 A 
ATOM      6  C22 NON d   1     -43.697  19.068  -5.409  0.00  0.00     0.017 A 
ENDROOT
BRANCH   4   7
ATOM      7  C12 NON d   1     -40.051  19.870  -4.319  0.00  0.00     0.175 C 
BRANCH   7   8
ATOM      8  N3  NON d   1     -39.833  20.580  -3.057  0.00  0.00    -0.261 N 
ATOM      9  C13 NON d   1     -40.503  21.799  -2.959  0.00  0.00     0.330 C 
ATOM     10  O2  NON d   1     -41.327  22.212  -3.775  0.00  0.00    -0.246 OA
ATOM     11  N4  NON d   1     -40.181  22.612  -1.910  0.00  0.00    -0.307 N 
ATOM     12  C14 NON d   1     -39.224  22.302  -0.955  0.00  0.00     0.052 A 
ATOM     13  H12 NON d   1     -40.694  23.483  -1.864  0.00  0.00     0.170 HD
ATOM     14  C15 NON d   1     -39.010  23.149   0.133  0.00  0.00     0.030 A 
ATOM     15  C19 NON d   1     -38.470  21.150  -1.112  0.00  0.00     0.059 A 
ATOM     16  C16 NON d   1     -38.063  22.799   1.096  0.00  0.00     0.002 A 
ATOM     17  C17 NON d   1     -37.332  21.616   0.968  0.00  0.00     0.001 A 
ATOM     18  C18 NON d   1     -37.521  20.794  -0.147  0.00  0.00     0.019 A 
ATOM     19  C20 NON d   1     -38.651  20.372  -2.349  0.00  0.00     0.264 C 
ATOM     20  O3  NON d   1     -37.739  19.628  -2.699  0.00  0.00    -0.267 OA
ENDBRANCH   7   8
ENDBRANCH   4   7
BRANCH   1  21
ATOM     21  C7  NON d   1     -45.096  16.962  -4.923  0.00  0.00     0.256 C 
ATOM     22  N2  NON d   1     -46.000  17.218  -3.911  0.00  0.00    -0.321 N 
ATOM     23  H7  NON d   1     -45.809  17.941  -3.230  0.00  0.00     0.169 HD
ATOM     24  O1  NON d   1     -45.240  16.113  -5.799  0.00  0.00    -0.267 OA
BRANCH  22  25
ATOM     25  C6  NON d   1     -47.245  16.584  -3.679  0.00  0.00     0.056 A 
ATOM     26  C5  NON d   1     -47.816  16.399  -2.418  0.00  0.00     0.031 A 
ATOM     27  C4  NON d   1     -49.050  15.755  -2.290  0.00  0.00     0.002 A 
ATOM     28  C3  NON d   1     -49.726  15.298  -3.420  0.00  0.00     0.002 A 
ATOM     29  C2  NON d   1     -49.172  15.490  -4.686  0.00  0.00     0.025 A 
ATOM     30  C1  NON d   1     -47.922  16.106  -4.824  0.00  0.00     0.033 A 
BRANCH  30  31
ATOM     31  N1  NON d   1     -47.440  16.451  -6.117  0.00  0.00    -0.301 NA
ATOM     32  H1  NON d   1     -46.972  17.356  -6.098  0.00  0.00     0.124 HD
ATOM     33  H2  NON d   1     -46.765  15.745  -6.410  0.00  0.00     0.124 HD
ENDBRANCH  30  31
ENDBRANCH  22  25
ENDBRANCH   1  21
TORSDOF 5
ENDMDL
