MODEL 1
REMARK VINA RESULT:   -16.047      0.000      0.000
REMARK INTER + INTRA:         -19.887
REMARK INTER:                 -19.030
REMARK INTRA:                  -0.856
REMARK CONF_INDEPENDENT:        2.983
REMARK UNBOUND:                -0.856
REMARK  10 active torsions:
REMARK  status: ('A' for Active; 'I' for Inactive)
REMARK       I    between atoms: N1_2  and  C2_3 
REMARK    1  A    between atoms: C2_3  and  C3_5 
REMARK    2  A    between atoms: C3_5  and  C4_7 
REMARK    3  A    between atoms: C4_7  and  C5_8 
REMARK    4  A    between atoms: C5_8  and  C6_9 
REMARK    5  A    between atoms: C6_9  and  C7_10 
REMARK    6  A    between atoms: C7_10  and  C8_11 
REMARK    7  A    between atoms: C8_11  and  C9_12 
REMARK    8  A    between atoms: C9_12  and  C10_13 
REMARK       I    between atoms: C10_13  and  N2_15 
REMARK    9  A    between atoms: N2_15  and  C11_16 
REMARK   10  A    between atoms: C15_20  and  C16_21 
ROOT
ATOM      1  C10 NON d   1     -39.921  20.528  -1.254  0.00  0.00     0.222 C 
ATOM      2  O3  NON d   1     -39.146  21.097  -2.016  0.00  0.00    -0.273 OA
ATOM      3  N2  NON d   1     -40.199  20.897   0.059  0.00  0.00    -0.327 N 
ATOM      4  H17 NON d   1     -40.868  20.329   0.565  0.00  0.00     0.169 HD
ENDROOT
BRANCH   1   5
ATOM      5  C9  NON d   1     -40.696  19.295  -1.695  0.00  0.00     0.103 C 
BRANCH   5   6
ATOM      6  C8  NON d   1     -40.824  19.178  -3.223  0.00  0.00     0.009 C 
BRANCH   6   7
ATOM      7  C7  NON d   1     -41.459  17.855  -3.677  0.00  0.00     0.000 C 
BRANCH   7   8
ATOM      8  C6  NON d   1     -42.697  18.021  -4.574  0.00  0.00     0.000 C 
BRANCH   8   9
ATOM      9  C5  NON d   1     -43.635  16.809  -4.643  0.00  0.00     0.008 C 
BRANCH   9  10
ATOM     10  C4  NON d   1     -45.057  17.100  -4.178  0.00  0.00     0.089 C 
BRANCH  10  11
ATOM     11  C3  NON d   1     -46.060  17.117  -5.309  0.00  0.00     0.216 C 
ATOM     12  O2  NON d   1     -46.134  17.974  -6.185  0.00  0.00    -0.287 OA
BRANCH  11  13
ATOM     13  C2  NON d   1     -47.070  15.966  -5.307  0.00  0.00     0.286 C 
ATOM     14  N1  NON d   1     -48.000  16.044  -4.295  0.00  0.00    -0.359 N 
ATOM     15  C1  NON d   1     -48.974  15.012  -4.068  0.00  0.00     0.149 C 
ATOM     16  H4  NON d   1     -47.881  16.798  -3.623  0.00  0.00     0.162 HD
ATOM     17  O1  NON d   1     -46.995  15.078  -6.142  0.00  0.00    -0.265 OA
ENDBRANCH  11  13
ENDBRANCH  10  11
ENDBRANCH   9  10
ENDBRANCH   8   9
ENDBRANCH   7   8
ENDBRANCH   6   7
ENDBRANCH   5   6
ENDBRANCH   1   5
BRANCH   3  18
ATOM     18  C11 NON d   1     -39.631  21.986   0.771  0.00  0.00     0.035 A 
ATOM     19  C12 NON d   1     -38.258  22.178   0.878  0.00  0.00     0.029 A 
ATOM     20  C13 NON d   1     -37.752  23.258   1.586  0.00  0.00     0.003 A 
ATOM     21  C14 NON d   1     -38.616  24.162   2.202  0.00  0.00     0.012 A 
ATOM     22  C15 NON d   1     -40.017  24.030   2.137  0.00  0.00    -0.024 A 
ATOM     23  C22 NON d   1     -40.494  22.912   1.402  0.00  0.00     0.042 A 
BRANCH  22  24
ATOM     24  C16 NON d   1     -40.921  25.027   2.814  0.00  0.00    -0.026 A 
ATOM     25  C17 NON d   1     -41.401  24.828   4.131  0.00  0.00     0.012 A 
ATOM     26  C18 NON d   1     -42.240  25.744   4.780  0.00  0.00     0.001 A 
ATOM     27  C19 NON d   1     -42.636  26.902   4.132  0.00  0.00     0.000 A 
ATOM     28  C20 NON d   1     -42.190  27.139   2.838  0.00  0.00     0.001 A 
ATOM     29  C21 NON d   1     -41.349  26.216   2.192  0.00  0.00     0.012 A 
ENDBRANCH  22  24
ENDBRANCH   3  18
TORSDOF 10
ENDMDL
MODEL 2
REMARK VINA RESULT:   -15.951      1.518      2.196
REMARK INTER + INTRA:         -19.946
REMARK INTER:                 -18.934
REMARK INTRA:                  -1.012
REMARK CONF_INDEPENDENT:        2.983
REMARK UNBOUND:                -1.012
REMARK  10 active torsions:
REMARK  status: ('A' for Active; 'I' for Inactive)
REMARK       I    between atoms: N1_2  and  C2_3 
REMARK    1  A    between atoms: C2_3  and  C3_5 
REMARK    2  A    between atoms: C3_5  and  C4_7 
REMARK    3  A    between atoms: C4_7  and  C5_8 
REMARK    4  A    between atoms: C5_8  and  C6_9 
REMARK    5  A    between atoms: C6_9  and  C7_10 
REMARK    6  A    between atoms: C7_10  and  C8_11 
REMARK    7  A    between atoms: C8_11  and  C9_12 
REMARK    8  A    between atoms: C9_12  and  C10_13 
REMARK       I    between atoms: C10_13  and  N2_15 
REMARK    9  A    between atoms: N2_15  and  C11_16 
REMARK   10  A    between atoms: C15_20  and  C16_21 
ROOT
ATOM      1  C10 NON d   1     -40.055  19.745  -2.750  0.00  0.00     0.222 C 
ATOM      2  O3  NON d   1     -40.347  20.114  -3.884  0.00  0.00    -0.273 OA
ATOM      3  N2  NON d   1     -40.022  20.544  -1.611  0.00  0.00    -0.327 N 
ATOM      4  H17 NON d   1     -39.764  20.093  -0.740  0.00  0.00     0.169 HD
ENDROOT
BRANCH   1   5
ATOM      5  C9  NON d   1     -39.681  18.297  -2.465  0.00  0.00     0.103 C 
BRANCH   5   6
ATOM      6  C8  NON d   1     -40.809  17.306  -2.799  0.00  0.00     0.009 C 
BRANCH   6   7
ATOM      7  C7  NON d   1     -42.196  17.963  -2.848  0.00  0.00     0.000 C 
BRANCH   7   8
ATOM      8  C6  NON d   1     -42.707  18.259  -4.268  0.00  0.00     0.000 C 
BRANCH   8   9
ATOM      9  C5  NON d   1     -43.663  17.216  -4.861  0.00  0.00     0.008 C 
BRANCH   9  10
ATOM     10  C4  NON d   1     -45.082  17.294  -4.311  0.00  0.00     0.089 C 
BRANCH  10  11
ATOM     11  C3  NON d   1     -46.142  17.201  -5.387  0.00  0.00     0.216 C 
ATOM     12  O2  NON d   1     -46.292  17.995  -6.311  0.00  0.00    -0.287 OA
BRANCH  11  13
ATOM     13  C2  NON d   1     -47.106  16.018  -5.256  0.00  0.00     0.286 C 
ATOM     14  N1  NON d   1     -48.116  16.223  -4.344  0.00  0.00    -0.359 N 
ATOM     15  C1  NON d   1     -49.067  15.197  -4.011  0.00  0.00     0.149 C 
ATOM     16  H4  NON d   1     -48.078  17.086  -3.807  0.00  0.00     0.162 HD
ATOM     17  O1  NON d   1     -46.932  15.005  -5.916  0.00  0.00    -0.265 OA
ENDBRANCH  11  13
ENDBRANCH  10  11
ENDBRANCH   9  10
ENDBRANCH   8   9
ENDBRANCH   7   8
ENDBRANCH   6   7
ENDBRANCH   5   6
ENDBRANCH   1   5
BRANCH   3  18
ATOM     18  C11 NON d   1     -40.300  21.934  -1.543  0.00  0.00     0.035 A 
ATOM     19  C12 NON d   1     -40.354  22.745  -2.671  0.00  0.00     0.029 A 
ATOM     20  C13 NON d   1     -40.629  24.099  -2.552  0.00  0.00     0.003 A 
ATOM     21  C14 NON d   1     -40.851  24.663  -1.297  0.00  0.00     0.012 A 
ATOM     22  C15 NON d   1     -40.811  23.904  -0.111  0.00  0.00    -0.024 A 
ATOM     23  C22 NON d   1     -40.527  22.522  -0.277  0.00  0.00     0.042 A 
BRANCH  22  24
ATOM     24  C16 NON d   1     -41.057  24.547   1.228  0.00  0.00    -0.026 A 
ATOM     25  C17 NON d   1     -41.297  25.936   1.358  0.00  0.00     0.012 A 
ATOM     26  C18 NON d   1     -41.530  26.554   2.594  0.00  0.00     0.001 A 
ATOM     27  C19 NON d   1     -41.531  25.803   3.757  0.00  0.00     0.000 A 
ATOM     28  C20 NON d   1     -41.299  24.436   3.678  0.00  0.00     0.001 A 
ATOM     29  C21 NON d   1     -41.065  23.821   2.436  0.00  0.00     0.012 A 
ENDBRANCH  22  24
ENDBRANCH   3  18
TORSDOF 10
ENDMDL
MODEL 3
REMARK VINA RESULT:   -15.832      6.546      9.710
REMARK INTER + INTRA:         -19.742
REMARK INTER:                 -18.815
REMARK INTRA:                  -0.928
REMARK CONF_INDEPENDENT:        2.983
REMARK UNBOUND:                -0.928
REMARK  10 active torsions:
REMARK  status: ('A' for Active; 'I' for Inactive)
REMARK       I    between atoms: N1_2  and  C2_3 
REMARK    1  A    between atoms: C2_3  and  C3_5 
REMARK    2  A    between atoms: C3_5  and  C4_7 
REMARK    3  A    between atoms: C4_7  and  C5_8 
REMARK    4  A    between atoms: C5_8  and  C6_9 
REMARK    5  A    between atoms: C6_9  and  C7_10 
REMARK    6  A    between atoms: C7_10  and  C8_11 
REMARK    7  A    between atoms: C8_11  and  C9_12 
REMARK    8  A    between atoms: C9_12  and  C10_13 
REMARK       I    between atoms: C10_13  and  N2_15 
REMARK    9  A    between atoms: N2_15  and  C11_16 
REMARK   10  A    between atoms: C15_20  and  C16_21 
ROOT
ATOM      1  C10 NON d   1     -40.022  19.222  -7.407  0.00  0.00     0.222 C 
ATOM      2  O3  NON d   1     -40.976  19.628  -8.062  0.00  0.00    -0.273 OA
ATOM      3  N2  NON d   1     -38.678  19.369  -7.739  0.00  0.00    -0.327 N 
ATOM      4  H17 NON d   1     -37.999  18.982  -7.093  0.00  0.00     0.169 HD
ENDROOT
BRANCH   1   5
ATOM      5  C9  NON d   1     -40.226  18.479  -6.094  0.00  0.00     0.103 C 
BRANCH   5   6
ATOM      6  C8  NON d   1     -41.263  19.148  -5.178  0.00  0.00     0.009 C 
BRANCH   6   7
ATOM      7  C7  NON d   1     -41.463  18.406  -3.848  0.00  0.00     0.000 C 
BRANCH   7   8
ATOM      8  C6  NON d   1     -42.603  17.375  -3.862  0.00  0.00     0.000 C 
BRANCH   8   9
ATOM      9  C5  NON d   1     -43.838  17.762  -4.686  0.00  0.00     0.008 C 
BRANCH   9  10
ATOM     10  C4  NON d   1     -45.089  16.962  -4.340  0.00  0.00     0.089 C 
BRANCH  10  11
ATOM     11  C3  NON d   1     -46.171  17.068  -5.390  0.00  0.00     0.216 C 
ATOM     12  O2  NON d   1     -46.296  17.984  -6.197  0.00  0.00    -0.287 OA
BRANCH  11  13
ATOM     13  C2  NON d   1     -47.196  15.929  -5.392  0.00  0.00     0.286 C 
ATOM     14  N1  NON d   1     -48.175  16.062  -4.434  0.00  0.00    -0.359 N 
ATOM     15  C1  NON d   1     -49.174  15.051  -4.216  0.00  0.00     0.149 C 
ATOM     16  H4  NON d   1     -48.081  16.842  -3.789  0.00  0.00     0.162 HD
ATOM     17  O1  NON d   1     -47.090  15.006  -6.184  0.00  0.00    -0.265 OA
ENDBRANCH  11  13
ENDBRANCH  10  11
ENDBRANCH   9  10
ENDBRANCH   8   9
ENDBRANCH   7   8
ENDBRANCH   6   7
ENDBRANCH   5   6
ENDBRANCH   1   5
BRANCH   3  18
ATOM     18  C11 NON d   1     -38.156  19.996  -8.901  0.00  0.00     0.035 A 
ATOM     19  C12 NON d   1     -36.909  19.680  -9.429  0.00  0.00     0.029 A 
ATOM     20  C13 NON d   1     -36.444  20.322 -10.567  0.00  0.00     0.003 A 
ATOM     21  C14 NON d   1     -37.223  21.295 -11.192  0.00  0.00     0.012 A 
ATOM     22  C15 NON d   1     -38.494  21.667 -10.713  0.00  0.00    -0.024 A 
ATOM     23  C22 NON d   1     -38.933  20.985  -9.547  0.00  0.00     0.042 A 
BRANCH  22  24
ATOM     24  C16 NON d   1     -39.308  22.721 -11.416  0.00  0.00    -0.026 A 
ATOM     25  C17 NON d   1     -39.799  23.863 -10.738  0.00  0.00     0.012 A 
ATOM     26  C18 NON d   1     -40.556  24.857 -11.374  0.00  0.00     0.001 A 
ATOM     27  C19 NON d   1     -40.854  24.747 -12.722  0.00  0.00     0.000 A 
ATOM     28  C20 NON d   1     -40.394  23.643 -13.427  0.00  0.00     0.001 A 
ATOM     29  C21 NON d   1     -39.636  22.649 -12.785  0.00  0.00     0.012 A 
ENDBRANCH  22  24
ENDBRANCH   3  18
TORSDOF 10
ENDMDL
MODEL 4
REMARK VINA RESULT:   -15.775      6.719      9.550
REMARK INTER + INTRA:         -19.720
REMARK INTER:                 -18.758
REMARK INTRA:                  -0.962
REMARK CONF_INDEPENDENT:        2.983
REMARK UNBOUND:                -0.962
REMARK  10 active torsions:
REMARK  status: ('A' for Active; 'I' for Inactive)
REMARK       I    between atoms: N1_2  and  C2_3 
REMARK    1  A    between atoms: C2_3  and  C3_5 
REMARK    2  A    between atoms: C3_5  and  C4_7 
REMARK    3  A    between atoms: C4_7  and  C5_8 
REMARK    4  A    between atoms: C5_8  and  C6_9 
REMARK    5  A    between atoms: C6_9  and  C7_10 
REMARK    6  A    between atoms: C7_10  and  C8_11 
REMARK    7  A    between atoms: C8_11  and  C9_12 
REMARK    8  A    between atoms: C9_12  and  C10_13 
REMARK       I    between atoms: C10_13  and  N2_15 
REMARK    9  A    between atoms: N2_15  and  C11_16 
REMARK   10  A    between atoms: C15_20  and  C16_21 
ROOT
ATOM      1  C10 NON d   1     -40.573  20.080  -7.486  0.00  0.00     0.222 C 
ATOM      2  O3  NON d   1     -41.100  19.933  -8.584  0.00  0.00    -0.273 OA
ATOM      3  N2  NON d   1     -40.003  21.253  -6.999  0.00  0.00    -0.327 N 
ATOM      4  H17 NON d   1     -39.607  21.220  -6.067  0.00  0.00     0.169 HD
ENDROOT
BRANCH   1   5
ATOM      5  C9  NON d   1     -40.487  18.928  -6.494  0.00  0.00     0.103 C 
BRANCH   5   6
ATOM      6  C8  NON d   1     -41.782  18.727  -5.690  0.00  0.00     0.009 C 
BRANCH   6   7
ATOM      7  C7  NON d   1     -41.534  18.207  -4.266  0.00  0.00     0.000 C 
BRANCH   7   8
ATOM      8  C6  NON d   1     -42.683  17.360  -3.692  0.00  0.00     0.000 C 
BRANCH   8   9
ATOM      9  C5  NON d   1     -43.766  16.943  -4.695  0.00  0.00     0.008 C 
BRANCH   9  10
ATOM     10  C4  NON d   1     -45.169  17.407  -4.319  0.00  0.00     0.089 C 
BRANCH  10  11
ATOM     11  C3  NON d   1     -46.171  17.235  -5.439  0.00  0.00     0.216 C 
ATOM     12  O2  NON d   1     -46.317  17.998  -6.390  0.00  0.00    -0.287 OA
BRANCH  11  13
ATOM     13  C2  NON d   1     -47.081  16.009  -5.321  0.00  0.00     0.286 C 
ATOM     14  N1  NON d   1     -47.992  16.091  -4.293  0.00  0.00    -0.359 N 
ATOM     15  C1  NON d   1     -48.872  15.003  -3.961  0.00  0.00     0.149 C 
ATOM     16  H4  NON d   1     -47.922  16.902  -3.683  0.00  0.00     0.162 HD
ATOM     17  O1  NON d   1     -46.951  15.068  -6.088  0.00  0.00    -0.265 OA
ENDBRANCH  11  13
ENDBRANCH  10  11
ENDBRANCH   9  10
ENDBRANCH   8   9
ENDBRANCH   7   8
ENDBRANCH   6   7
ENDBRANCH   5   6
ENDBRANCH   1   5
BRANCH   3  18
ATOM     18  C11 NON d   1     -39.907  22.494  -7.682  0.00  0.00     0.035 A 
ATOM     19  C12 NON d   1     -39.760  23.707  -7.019  0.00  0.00     0.029 A 
ATOM     20  C13 NON d   1     -39.670  24.893  -7.732  0.00  0.00     0.003 A 
ATOM     21  C14 NON d   1     -39.731  24.881  -9.125  0.00  0.00     0.012 A 
ATOM     22  C15 NON d   1     -39.880  23.691  -9.863  0.00  0.00    -0.024 A 
ATOM     23  C22 NON d   1     -39.967  22.500  -9.095  0.00  0.00     0.042 A 
BRANCH  22  24
ATOM     24  C16 NON d   1     -39.940  23.717 -11.368  0.00  0.00    -0.026 A 
ATOM     25  C17 NON d   1     -40.700  24.683 -12.070  0.00  0.00     0.012 A 
ATOM     26  C18 NON d   1     -40.767  24.725 -13.470  0.00  0.00     0.001 A 
ATOM     27  C19 NON d   1     -40.074  23.797 -14.227  0.00  0.00     0.000 A 
ATOM     28  C20 NON d   1     -39.315  22.829 -13.581  0.00  0.00     0.001 A 
ATOM     29  C21 NON d   1     -39.252  22.791 -12.177  0.00  0.00     0.012 A 
ENDBRANCH  22  24
ENDBRANCH   3  18
TORSDOF 10
ENDMDL
MODEL 5
REMARK VINA RESULT:   -15.501      6.871     10.527
REMARK INTER + INTRA:         -19.496
REMARK INTER:                 -18.484
REMARK INTRA:                  -1.012
REMARK CONF_INDEPENDENT:        2.983
REMARK UNBOUND:                -1.012
REMARK  10 active torsions:
REMARK  status: ('A' for Active; 'I' for Inactive)
REMARK       I    between atoms: N1_2  and  C2_3 
REMARK    1  A    between atoms: C2_3  and  C3_5 
REMARK    2  A    between atoms: C3_5  and  C4_7 
REMARK    3  A    between atoms: C4_7  and  C5_8 
REMARK    4  A    between atoms: C5_8  and  C6_9 
REMARK    5  A    between atoms: C6_9  and  C7_10 
REMARK    6  A    between atoms: C7_10  and  C8_11 
REMARK    7  A    between atoms: C8_11  and  C9_12 
REMARK    8  A    between atoms: C9_12  and  C10_13 
REMARK       I    between atoms: C10_13  and  N2_15 
REMARK    9  A    between atoms: N2_15  and  C11_16 
REMARK   10  A    between atoms: C15_20  and  C16_21 
ROOT
ATOM      1  C10 NON d   1     -40.695  20.519  -7.506  0.00  0.00     0.222 C 
ATOM      2  O3  NON d   1     -41.251  19.898  -8.406  0.00  0.00    -0.273 OA
ATOM      3  N2  NON d   1     -40.020  21.730  -7.641  0.00  0.00    -0.327 N 
ATOM      4  H17 NON d   1     -39.613  22.125  -6.802  0.00  0.00     0.169 HD
ENDROOT
BRANCH   1   5
ATOM      5  C9  NON d   1     -40.690  19.999  -6.076  0.00  0.00     0.103 C 
BRANCH   5   6
ATOM      6  C8  NON d   1     -41.515  18.714  -5.898  0.00  0.00     0.009 C 
BRANCH   6   7
ATOM      7  C7  NON d   1     -42.257  18.652  -4.555  0.00  0.00     0.000 C 
BRANCH   7   8
ATOM      8  C6  NON d   1     -42.562  17.227  -4.064  0.00  0.00     0.000 C 
BRANCH   8   9
ATOM      9  C5  NON d   1     -43.892  16.630  -4.542  0.00  0.00     0.008 C 
BRANCH   9  10
ATOM     10  C4  NON d   1     -45.058  17.611  -4.507  0.00  0.00     0.089 C 
BRANCH  10  11
ATOM     11  C3  NON d   1     -46.106  17.326  -5.559  0.00  0.00     0.216 C 
ATOM     12  O2  NON d   1     -46.317  18.005  -6.559  0.00  0.00    -0.287 OA
BRANCH  11  13
ATOM     13  C2  NON d   1     -46.975  16.091  -5.300  0.00  0.00     0.286 C 
ATOM     14  N1  NON d   1     -48.037  16.327  -4.457  0.00  0.00    -0.359 N 
ATOM     15  C1  NON d   1     -48.915  15.276  -4.019  0.00  0.00     0.149 C 
ATOM     16  H4  NON d   1     -48.094  17.253  -4.042  0.00  0.00     0.162 HD
ATOM     17  O1  NON d   1     -46.691  15.019  -5.810  0.00  0.00    -0.265 OA
ENDBRANCH  11  13
ENDBRANCH  10  11
ENDBRANCH   9  10
ENDBRANCH   8   9
ENDBRANCH   7   8
ENDBRANCH   6   7
ENDBRANCH   5   6
ENDBRANCH   1   5
BRANCH   3  18
ATOM     18  C11 NON d   1     -39.830  22.464  -8.841  0.00  0.00     0.035 A 
ATOM     19  C12 NON d   1     -40.315  23.755  -9.016  0.00  0.00     0.029 A 
ATOM     20  C13 NON d   1     -40.103  24.431 -10.209  0.00  0.00     0.003 A 
ATOM     21  C14 NON d   1     -39.404  23.819 -11.248  0.00  0.00     0.012 A 
ATOM     22  C15 NON d   1     -38.886  22.513 -11.143  0.00  0.00    -0.024 A 
ATOM     23  C22 NON d   1     -39.124  21.858  -9.906  0.00  0.00     0.042 A 
BRANCH  22  24
ATOM     24  C16 NON d   1     -38.135  21.885 -12.286  0.00  0.00    -0.026 A 
ATOM     25  C17 NON d   1     -37.155  20.884 -12.078  0.00  0.00     0.012 A 
ATOM     26  C18 NON d   1     -36.446  20.285 -13.129  0.00  0.00     0.001 A 
ATOM     27  C19 NON d   1     -36.690  20.667 -14.437  0.00  0.00     0.000 A 
ATOM     28  C20 NON d   1     -37.642  21.646 -14.689  0.00  0.00     0.001 A 
ATOM     29  C21 NON d   1     -38.349  22.244 -13.632  0.00  0.00     0.012 A 
ENDBRANCH  22  24
ENDBRANCH   3  18
TORSDOF 10
ENDMDL
MODEL 6
REMARK VINA RESULT:   -15.466      1.071      1.405
REMARK INTER + INTRA:         -19.479
REMARK INTER:                 -18.449
REMARK INTRA:                  -1.030
REMARK CONF_INDEPENDENT:        2.983
REMARK UNBOUND:                -1.030
REMARK  10 active torsions:
REMARK  status: ('A' for Active; 'I' for Inactive)
REMARK       I    between atoms: N1_2  and  C2_3 
REMARK    1  A    between atoms: C2_3  and  C3_5 
REMARK    2  A    between atoms: C3_5  and  C4_7 
REMARK    3  A    between atoms: C4_7  and  C5_8 
REMARK    4  A    between atoms: C5_8  and  C6_9 
REMARK    5  A    between atoms: C6_9  and  C7_10 
REMARK    6  A    between atoms: C7_10  and  C8_11 
REMARK    7  A    between atoms: C8_11  and  C9_12 
REMARK    8  A    between atoms: C9_12  and  C10_13 
REMARK       I    between atoms: C10_13  and  N2_15 
REMARK    9  A    between atoms: N2_15  and  C11_16 
REMARK   10  A    between atoms: C15_20  and  C16_21 
ROOT
ATOM      1  C10 NON d   1     -40.019  20.620  -2.708  0.00  0.00     0.222 C 
ATOM      2  O3  NON d   1     -39.970  21.737  -3.213  0.00  0.00    -0.273 OA
ATOM      3  N2  NON d   1     -39.640  20.288  -1.410  0.00  0.00    -0.327 N 
ATOM      4  H17 NON d   1     -39.742  19.319  -1.134  0.00  0.00     0.169 HD
ENDROOT
BRANCH   1   5
ATOM      5  C9  NON d   1     -40.529  19.421  -3.496  0.00  0.00     0.103 C 
BRANCH   5   6
ATOM      6  C8  NON d   1     -41.420  19.816  -4.685  0.00  0.00     0.009 C 
BRANCH   6   7
ATOM      7  C7  NON d   1     -42.729  19.015  -4.751  0.00  0.00     0.000 C 
BRANCH   7   8
ATOM      8  C6  NON d   1     -42.543  17.519  -5.056  0.00  0.00     0.000 C 
BRANCH   8   9
ATOM      9  C5  NON d   1     -43.727  16.615  -4.692  0.00  0.00     0.008 C 
BRANCH   9  10
ATOM     10  C4  NON d   1     -45.006  17.374  -4.357  0.00  0.00     0.089 C 
BRANCH  10  11
ATOM     11  C3  NON d   1     -46.066  17.254  -5.429  0.00  0.00     0.216 C 
ATOM     12  O2  NON d   1     -46.191  18.000  -6.396  0.00  0.00    -0.287 OA
BRANCH  11  13
ATOM     13  C2  NON d   1     -47.065  16.110  -5.237  0.00  0.00     0.286 C 
ATOM     14  N1  NON d   1     -48.055  16.385  -4.320  0.00  0.00    -0.359 N 
ATOM     15  C1  NON d   1     -49.034  15.406  -3.933  0.00  0.00     0.149 C 
ATOM     16  H4  NON d   1     -47.982  17.267  -3.820  0.00  0.00     0.162 HD
ATOM     17  O1  NON d   1     -46.934  15.066  -5.856  0.00  0.00    -0.265 OA
ENDBRANCH  11  13
ENDBRANCH  10  11
ENDBRANCH   9  10
ENDBRANCH   8   9
ENDBRANCH   7   8
ENDBRANCH   6   7
ENDBRANCH   5   6
ENDBRANCH   1   5
BRANCH   3  18
ATOM     18  C11 NON d   1     -39.109  21.170  -0.432  0.00  0.00     0.035 A 
ATOM     19  C12 NON d   1     -37.843  21.007   0.118  0.00  0.00     0.029 A 
ATOM     20  C13 NON d   1     -37.370  21.896   1.071  0.00  0.00     0.003 A 
ATOM     21  C14 NON d   1     -38.163  22.962   1.492  0.00  0.00     0.012 A 
ATOM     22  C15 NON d   1     -39.456  23.189   0.980  0.00  0.00    -0.024 A 
ATOM     23  C22 NON d   1     -39.902  22.257   0.006  0.00  0.00     0.042 A 
BRANCH  22  24
ATOM     24  C16 NON d   1     -40.284  24.353   1.458  0.00  0.00    -0.026 A 
ATOM     25  C17 NON d   1     -40.418  24.662   2.833  0.00  0.00     0.012 A 
ATOM     26  C18 NON d   1     -41.182  25.741   3.298  0.00  0.00     0.001 A 
ATOM     27  C19 NON d   1     -41.847  26.559   2.400  0.00  0.00     0.000 A 
ATOM     28  C20 NON d   1     -41.745  26.293   1.041  0.00  0.00     0.001 A 
ATOM     29  C21 NON d   1     -40.978  25.209   0.580  0.00  0.00     0.012 A 
ENDBRANCH  22  24
ENDBRANCH   3  18
TORSDOF 10
ENDMDL
MODEL 7
REMARK VINA RESULT:   -15.349      6.684      9.915
REMARK INTER + INTRA:         -19.319
REMARK INTER:                 -18.332
REMARK INTRA:                  -0.987
REMARK CONF_INDEPENDENT:        2.983
REMARK UNBOUND:                -0.987
REMARK  10 active torsions:
REMARK  status: ('A' for Active; 'I' for Inactive)
REMARK       I    between atoms: N1_2  and  C2_3 
REMARK    1  A    between atoms: C2_3  and  C3_5 
REMARK    2  A    between atoms: C3_5  and  C4_7 
REMARK    3  A    between atoms: C4_7  and  C5_8 
REMARK    4  A    between atoms: C5_8  and  C6_9 
REMARK    5  A    between atoms: C6_9  and  C7_10 
REMARK    6  A    between atoms: C7_10  and  C8_11 
REMARK    7  A    between atoms: C8_11  and  C9_12 
REMARK    8  A    between atoms: C9_12  and  C10_13 
REMARK       I    between atoms: C10_13  and  N2_15 
REMARK    9  A    between atoms: N2_15  and  C11_16 
REMARK   10  A    between atoms: C15_20  and  C16_21 
ROOT
ATOM      1  C10 NON d   1     -40.687  19.721  -7.398  0.00  0.00     0.222 C 
ATOM      2  O3  NON d   1     -41.295  20.060  -8.408  0.00  0.00    -0.273 OA
ATOM      3  N2  NON d   1     -39.308  19.567  -7.282  0.00  0.00    -0.327 N 
ATOM      4  H17 NON d   1     -38.951  19.283  -6.378  0.00  0.00     0.169 HD
ENDROOT
BRANCH   1   5
ATOM      5  C9  NON d   1     -41.423  19.420  -6.100  0.00  0.00     0.103 C 
BRANCH   5   6
ATOM      6  C8  NON d   1     -41.003  18.085  -5.463  0.00  0.00     0.009 C 
BRANCH   6   7
ATOM      7  C7  NON d   1     -41.322  18.003  -3.963  0.00  0.00     0.000 C 
BRANCH   7   8
ATOM      8  C6  NON d   1     -42.824  18.020  -3.633  0.00  0.00     0.000 C 
BRANCH   8   9
ATOM      9  C5  NON d   1     -43.762  17.627  -4.783  0.00  0.00     0.008 C 
BRANCH   9  10
ATOM     10  C4  NON d   1     -45.080  17.015  -4.324  0.00  0.00     0.089 C 
BRANCH  10  11
ATOM     11  C3  NON d   1     -46.168  17.094  -5.372  0.00  0.00     0.216 C 
ATOM     12  O2  NON d   1     -46.311  18.002  -6.185  0.00  0.00    -0.287 OA
BRANCH  11  13
ATOM     13  C2  NON d   1     -47.173  15.939  -5.361  0.00  0.00     0.286 C 
ATOM     14  N1  NON d   1     -48.160  16.070  -4.410  0.00  0.00    -0.359 N 
ATOM     15  C1  NON d   1     -49.143  15.046  -4.181  0.00  0.00     0.149 C 
ATOM     16  H4  NON d   1     -48.082  16.861  -3.777  0.00  0.00     0.162 HD
ATOM     17  O1  NON d   1     -47.048  15.005  -6.138  0.00  0.00    -0.265 OA
ENDBRANCH  11  13
ENDBRANCH  10  11
ENDBRANCH   9  10
ENDBRANCH   8   9
ENDBRANCH   7   8
ENDBRANCH   6   7
ENDBRANCH   5   6
ENDBRANCH   1   5
BRANCH   3  18
ATOM     18  C11 NON d   1     -38.347  19.753  -8.310  0.00  0.00     0.035 A 
ATOM     19  C12 NON d   1     -37.155  19.039  -8.362  0.00  0.00     0.029 A 
ATOM     20  C13 NON d   1     -36.247  19.258  -9.388  0.00  0.00     0.003 A 
ATOM     21  C14 NON d   1     -36.520  20.201 -10.377  0.00  0.00     0.012 A 
ATOM     22  C15 NON d   1     -37.705  20.962 -10.388  0.00  0.00    -0.024 A 
ATOM     23  C22 NON d   1     -38.607  20.707  -9.321  0.00  0.00     0.042 A 
BRANCH  22  24
ATOM     24  C16 NON d   1     -37.966  21.972 -11.474  0.00  0.00    -0.026 A 
ATOM     25  C17 NON d   1     -39.215  22.053 -12.137  0.00  0.00     0.012 A 
ATOM     26  C18 NON d   1     -39.479  22.987 -13.149  0.00  0.00     0.001 A 
ATOM     27  C19 NON d   1     -38.498  23.882 -13.541  0.00  0.00     0.000 A 
ATOM     28  C20 NON d   1     -37.257  23.839 -12.918  0.00  0.00     0.001 A 
ATOM     29  C21 NON d   1     -36.997  22.900 -11.905  0.00  0.00     0.012 A 
ENDBRANCH  22  24
ENDBRANCH   3  18
TORSDOF 10
ENDMDL
MODEL 8
REMARK VINA RESULT:   -14.981      5.133      8.155
REMARK INTER + INTRA:         -19.120
REMARK INTER:                 -17.964
REMARK INTRA:                  -1.156
REMARK CONF_INDEPENDENT:        2.983
REMARK UNBOUND:                -1.156
REMARK  10 active torsions:
REMARK  status: ('A' for Active; 'I' for Inactive)
REMARK       I    between atoms: N1_2  and  C2_3 
REMARK    1  A    between atoms: C2_3  and  C3_5 
REMARK    2  A    between atoms: C3_5  and  C4_7 
REMARK    3  A    between atoms: C4_7  and  C5_8 
REMARK    4  A    between atoms: C5_8  and  C6_9 
REMARK    5  A    between atoms: C6_9  and  C7_10 
REMARK    6  A    between atoms: C7_10  and  C8_11 
REMARK    7  A    between atoms: C8_11  and  C9_12 
REMARK    8  A    between atoms: C9_12  and  C10_13 
REMARK       I    between atoms: C10_13  and  N2_15 
REMARK    9  A    between atoms: N2_15  and  C11_16 
REMARK   10  A    between atoms: C15_20  and  C16_21 
ROOT
ATOM      1  C10 NON d   1     -39.725  20.194  -4.049  0.00  0.00     0.222 C 
ATOM      2  O3  NON d   1     -38.635  20.755  -4.019  0.00  0.00    -0.273 OA
ATOM      3  N2  NON d   1     -40.387  19.746  -5.188  0.00  0.00    -0.327 N 
ATOM      4  H17 NON d   1     -41.284  19.295  -5.052  0.00  0.00     0.169 HD
ENDROOT
BRANCH   1   5
ATOM      5  C9  NON d   1     -40.503  19.918  -2.770  0.00  0.00     0.103 C 
BRANCH   5   6
ATOM      6  C8  NON d   1     -40.733  18.419  -2.516  0.00  0.00     0.009 C 
BRANCH   6   7
ATOM      7  C7  NON d   1     -42.207  18.004  -2.642  0.00  0.00     0.000 C 
BRANCH   7   8
ATOM      8  C6  NON d   1     -42.597  17.467  -4.030  0.00  0.00     0.000 C 
BRANCH   8   9
ATOM      9  C5  NON d   1     -43.955  17.938  -4.566  0.00  0.00     0.008 C 
BRANCH   9  10
ATOM     10  C4  NON d   1     -45.089  16.946  -4.336  0.00  0.00     0.089 C 
BRANCH  10  11
ATOM     11  C3  NON d   1     -46.183  17.042  -5.376  0.00  0.00     0.216 C 
ATOM     12  O2  NON d   1     -46.314  17.949  -6.192  0.00  0.00    -0.287 OA
BRANCH  11  13
ATOM     13  C2  NON d   1     -47.210  15.906  -5.353  0.00  0.00     0.286 C 
ATOM     14  N1  NON d   1     -48.127  16.007  -4.331  0.00  0.00    -0.359 N 
ATOM     15  C1  NON d   1     -49.114  14.991  -4.085  0.00  0.00     0.149 C 
ATOM     16  H4  NON d   1     -47.988  16.764  -3.666  0.00  0.00     0.162 HD
ATOM     17  O1  NON d   1     -47.158  15.011  -6.182  0.00  0.00    -0.265 OA
ENDBRANCH  11  13
ENDBRANCH  10  11
ENDBRANCH   9  10
ENDBRANCH   8   9
ENDBRANCH   7   8
ENDBRANCH   6   7
ENDBRANCH   5   6
ENDBRANCH   1   5
BRANCH   3  18
ATOM     18  C11 NON d   1     -39.939  19.867  -6.530  0.00  0.00     0.035 A 
ATOM     19  C12 NON d   1     -39.400  18.800  -7.241  0.00  0.00     0.029 A 
ATOM     20  C13 NON d   1     -38.976  18.970  -8.550  0.00  0.00     0.003 A 
ATOM     21  C14 NON d   1     -39.083  20.215  -9.167  0.00  0.00     0.012 A 
ATOM     22  C15 NON d   1     -39.617  21.340  -8.509  0.00  0.00    -0.024 A 
ATOM     23  C22 NON d   1     -40.039  21.123  -7.171  0.00  0.00     0.042 A 
BRANCH  22  24
ATOM     24  C16 NON d   1     -39.718  22.670  -9.208  0.00  0.00    -0.026 A 
ATOM     25  C17 NON d   1     -39.557  22.794 -10.609  0.00  0.00     0.012 A 
ATOM     26  C18 NON d   1     -39.649  24.021 -11.279  0.00  0.00     0.001 A 
ATOM     27  C19 NON d   1     -39.906  25.182 -10.569  0.00  0.00     0.000 A 
ATOM     28  C20 NON d   1     -40.069  25.109  -9.192  0.00  0.00     0.001 A 
ATOM     29  C21 NON d   1     -39.975  23.876  -8.525  0.00  0.00     0.012 A 
ENDBRANCH  22  24
ENDBRANCH   3  18
TORSDOF 10
ENDMDL
MODEL 9
REMARK VINA RESULT:   -14.977      2.897      3.834
REMARK INTER + INTRA:         -18.980
REMARK INTER:                 -17.960
REMARK INTRA:                  -1.020
REMARK CONF_INDEPENDENT:        2.983
REMARK UNBOUND:                -1.020
REMARK  10 active torsions:
REMARK  status: ('A' for Active; 'I' for Inactive)
REMARK       I    between atoms: N1_2  and  C2_3 
REMARK    1  A    between atoms: C2_3  and  C3_5 
REMARK    2  A    between atoms: C3_5  and  C4_7 
REMARK    3  A    between atoms: C4_7  and  C5_8 
REMARK    4  A    between atoms: C5_8  and  C6_9 
REMARK    5  A    between atoms: C6_9  and  C7_10 
REMARK    6  A    between atoms: C7_10  and  C8_11 
REMARK    7  A    between atoms: C8_11  and  C9_12 
REMARK    8  A    between atoms: C9_12  and  C10_13 
REMARK       I    between atoms: C10_13  and  N2_15 
REMARK    9  A    between atoms: N2_15  and  C11_16 
REMARK   10  A    between atoms: C15_20  and  C16_21 
ROOT
ATOM      1  C10 NON d   1     -39.627  19.826  -2.509  0.00  0.00     0.222 C 
ATOM      2  O3  NON d   1     -39.482  20.505  -3.520  0.00  0.00    -0.273 OA
ATOM      3  N2  NON d   1     -39.946  20.303  -1.240  0.00  0.00    -0.327 N 
ATOM      4  H17 NON d   1     -40.037  19.617  -0.500  0.00  0.00     0.169 HD
ENDROOT
BRANCH   1   5
ATOM      5  C9  NON d   1     -39.467  18.313  -2.545  0.00  0.00     0.103 C 
BRANCH   5   6
ATOM      6  C8  NON d   1     -40.679  17.592  -3.156  0.00  0.00     0.009 C 
BRANCH   6   7
ATOM      7  C7  NON d   1     -41.300  18.351  -4.339  0.00  0.00     0.000 C 
BRANCH   7   8
ATOM      8  C6  NON d   1     -42.828  18.509  -4.258  0.00  0.00     0.000 C 
BRANCH   8   9
ATOM      9  C5  NON d   1     -43.647  17.380  -4.896  0.00  0.00     0.008 C 
BRANCH   9  10
ATOM     10  C4  NON d   1     -45.056  17.243  -4.332  0.00  0.00     0.089 C 
BRANCH  10  11
ATOM     11  C3  NON d   1     -46.120  17.163  -5.403  0.00  0.00     0.216 C 
ATOM     12  O2  NON d   1     -46.259  17.953  -6.332  0.00  0.00    -0.287 OA
BRANCH  11  13
ATOM     13  C2  NON d   1     -47.106  16.000  -5.262  0.00  0.00     0.286 C 
ATOM     14  N1  NON d   1     -48.061  16.195  -4.291  0.00  0.00    -0.359 N 
ATOM     15  C1  NON d   1     -49.019  15.181  -3.943  0.00  0.00     0.149 C 
ATOM     16  H4  NON d   1     -47.974  17.038  -3.728  0.00  0.00     0.162 HD
ATOM     17  O1  NON d   1     -46.993  15.007  -5.964  0.00  0.00    -0.265 OA
ENDBRANCH  11  13
ENDBRANCH  10  11
ENDBRANCH   9  10
ENDBRANCH   8   9
ENDBRANCH   7   8
ENDBRANCH   6   7
ENDBRANCH   5   6
ENDBRANCH   1   5
BRANCH   3  18
ATOM     18  C11 NON d   1     -40.144  21.660  -0.870  0.00  0.00     0.035 A 
ATOM     19  C12 NON d   1     -40.161  22.083   0.454  0.00  0.00     0.029 A 
ATOM     20  C13 NON d   1     -40.359  23.420   0.763  0.00  0.00     0.003 A 
ATOM     21  C14 NON d   1     -40.545  24.355  -0.254  0.00  0.00     0.012 A 
ATOM     22  C15 NON d   1     -40.541  24.000  -1.617  0.00  0.00    -0.024 A 
ATOM     23  C22 NON d   1     -40.335  22.622  -1.889  0.00  0.00     0.042 A 
BRANCH  22  24
ATOM     24  C16 NON d   1     -40.745  25.039  -2.688  0.00  0.00    -0.026 A 
ATOM     25  C17 NON d   1     -41.175  26.353  -2.384  0.00  0.00     0.012 A 
ATOM     26  C18 NON d   1     -41.369  27.334  -3.366  0.00  0.00     0.001 A 
ATOM     27  C19 NON d   1     -41.139  27.039  -4.698  0.00  0.00     0.000 A 
ATOM     28  C20 NON d   1     -40.716  25.761  -5.044  0.00  0.00     0.001 A 
ATOM     29  C21 NON d   1     -40.525  24.780  -4.056  0.00  0.00     0.012 A 
ENDBRANCH  22  24
ENDBRANCH   3  18
TORSDOF 10
ENDMDL
