MODEL 1
REMARK VINA RESULT:   -22.151      0.000      0.000
REMARK INTER + INTRA:         -26.685
REMARK INTER:                 -25.433
REMARK INTRA:                  -1.253
REMARK CONF_INDEPENDENT:        3.281
REMARK UNBOUND:                -1.253
REMARK  11 active torsions:
REMARK  status: ('A' for Active; 'I' for Inactive)
REMARK    1  A    between atoms: C2_2  and  S1_3 
REMARK    2  A    between atoms: S1_3  and  C3_4 
REMARK    3  A    between atoms: C3_4  and  S3_6 
REMARK    4  A    between atoms: S3_6  and  C4_7 
REMARK    5  A    between atoms: C4_7  and  C5_8 
REMARK    6  A    between atoms: C5_8  and  C6_10 
REMARK    7  A    between atoms: C10_14  and  C11_15 
REMARK       I    between atoms: C11_15  and  N1_17 
REMARK    8  A    between atoms: N1_17  and  C12_18 
REMARK    9  A    between atoms: C12_18  and  C13_19 
REMARK   10  A    between atoms: C13_19  and  O3_20 
REMARK   11  A    between atoms: O3_20  and  C14_21 
ROOT
ATOM      1  C6  NON d   1     -42.369  17.850  -4.548  0.00  0.00     0.011 A 
ATOM      2  C7  NON d   1     -41.840  18.483  -3.416  0.00  0.00     0.015 A 
ATOM      3  C8  NON d   1     -40.720  19.303  -3.528  0.00  0.00     0.002 A 
ATOM      4  C9  NON d   1     -40.114  19.489  -4.769  0.00  0.00     0.017 A 
ATOM      5  C10 NON d   1     -40.619  18.860  -5.917  0.00  0.00     0.032 A 
ATOM      6  C20 NON d   1     -41.753  18.045  -5.801  0.00  0.00     0.032 A 
ENDROOT
BRANCH   5   7
ATOM      7  C11 NON d   1     -39.909  19.126  -7.206  0.00  0.00     0.251 C 
ATOM      8  O2  NON d   1     -40.554  19.494  -8.184  0.00  0.00    -0.268 OA
ATOM      9  N1  NON d   1     -38.537  18.971  -7.247  0.00  0.00    -0.355 N 
ATOM     10  H11 NON d   1     -38.014  18.856  -6.391  0.00  0.00     0.162 HD
BRANCH   9  11
ATOM     11  C12 NON d   1     -37.814  19.351  -8.452  0.00  0.00     0.149 C 
BRANCH  11  12
ATOM     12  C13 NON d   1     -37.323  20.797  -8.441  0.00  0.00     0.195 C 
BRANCH  12  13
ATOM     13  O3  NON d   1     -38.461  21.654  -8.335  0.00  0.00    -0.350 OA
BRANCH  13  14
ATOM     14  C14 NON d   1     -38.889  22.273  -9.476  0.00  0.00     0.068 A 
ATOM     15  C15 NON d   1     -39.753  23.350  -9.266  0.00  0.00     0.037 A 
ATOM     16  C16 NON d   1     -40.266  24.072 -10.345  0.00  0.00     0.003 A 
ATOM     17  C17 NON d   1     -39.914  23.721 -11.646  0.00  0.00     0.000 A 
ATOM     18  C18 NON d   1     -39.049  22.648 -11.862  0.00  0.00     0.003 A 
ATOM     19  C19 NON d   1     -38.537  21.925 -10.781  0.00  0.00     0.037 A 
ENDBRANCH  13  14
ENDBRANCH  12  13
ENDBRANCH  11  12
ENDBRANCH   9  11
ENDBRANCH   5   7
BRANCH   1  20
ATOM     20  C5  NON d   1     -43.582  16.971  -4.472  0.00  0.00     0.169 C 
ATOM     21  O1  NON d   1     -43.718  16.089  -5.318  0.00  0.00    -0.291 OA
BRANCH  20  22
ATOM     22  C4  NON d   1     -44.574  17.224  -3.345  0.00  0.00     0.164 C 
BRANCH  22  23
ATOM     23  S3  NON d   1     -46.166  16.402  -3.571  0.00  0.00    -0.104 SA
BRANCH  23  24
ATOM     24  C3  NON d   1     -46.637  16.719  -5.251  0.00  0.00     0.104 C 
ATOM     25  S2  NON d   1     -46.104  18.004  -6.185  0.00  0.00    -0.065 SA
BRANCH  24  26
ATOM     26  S1  NON d   1     -47.671  15.391  -5.808  0.00  0.00    -0.112 SA
BRANCH  26  27
ATOM     27  C2  NON d   1     -48.796  15.013  -4.439  0.00  0.00     0.076 C 
ATOM     28  C1  NON d   1     -49.176  16.308  -3.696  0.00  0.00     0.016 C 
ENDBRANCH  26  27
ENDBRANCH  24  26
ENDBRANCH  23  24
ENDBRANCH  22  23
ENDBRANCH  20  22
ENDBRANCH   1  20
TORSDOF 11
ENDMDL
MODEL 2
REMARK VINA RESULT:   -22.078      1.969      3.250
REMARK INTER + INTRA:         -27.714
REMARK INTER:                 -25.359
REMARK INTRA:                  -2.354
REMARK CONF_INDEPENDENT:        3.281
REMARK UNBOUND:                -2.354
REMARK  11 active torsions:
REMARK  status: ('A' for Active; 'I' for Inactive)
REMARK    1  A    between atoms: C2_2  and  S1_3 
REMARK    2  A    between atoms: S1_3  and  C3_4 
REMARK    3  A    between atoms: C3_4  and  S3_6 
REMARK    4  A    between atoms: S3_6  and  C4_7 
REMARK    5  A    between atoms: C4_7  and  C5_8 
REMARK    6  A    between atoms: C5_8  and  C6_10 
REMARK    7  A    between atoms: C10_14  and  C11_15 
REMARK       I    between atoms: C11_15  and  N1_17 
REMARK    8  A    between atoms: N1_17  and  C12_18 
REMARK    9  A    between atoms: C12_18  and  C13_19 
REMARK   10  A    between atoms: C13_19  and  O3_20 
REMARK   11  A    between atoms: O3_20  and  C14_21 
ROOT
ATOM      1  C6  NON d   1     -42.398  17.975  -4.153  0.00  0.00     0.011 A 
ATOM      2  C7  NON d   1     -41.807  17.268  -3.098  0.00  0.00     0.015 A 
ATOM      3  C8  NON d   1     -40.658  17.757  -2.480  0.00  0.00     0.002 A 
ATOM      4  C9  NON d   1     -40.086  18.950  -2.918  0.00  0.00     0.017 A 
ATOM      5  C10 NON d   1     -40.654  19.674  -3.978  0.00  0.00     0.032 A 
ATOM      6  C20 NON d   1     -41.816  19.183  -4.588  0.00  0.00     0.032 A 
ENDROOT
BRANCH   5   7
ATOM      7  C11 NON d   1     -39.976  20.947  -4.372  0.00  0.00     0.251 C 
ATOM      8  O2  NON d   1     -38.879  21.219  -3.889  0.00  0.00    -0.268 OA
ATOM      9  N1  NON d   1     -40.599  21.769  -5.290  0.00  0.00    -0.355 N 
ATOM     10  H11 NON d   1     -41.397  21.435  -5.810  0.00  0.00     0.162 HD
BRANCH   9  11
ATOM     11  C12 NON d   1     -39.896  22.945  -5.784  0.00  0.00     0.149 C 
BRANCH  11  12
ATOM     12  C13 NON d   1     -39.898  23.065  -7.306  0.00  0.00     0.195 C 
BRANCH  12  13
ATOM     13  O3  NON d   1     -40.504  21.890  -7.846  0.00  0.00    -0.350 OA
BRANCH  13  14
ATOM     14  C14 NON d   1     -39.705  20.794  -8.017  0.00  0.00     0.068 A 
ATOM     15  C15 NON d   1     -40.310  19.576  -7.700  0.00  0.00     0.037 A 
ATOM     16  C16 NON d   1     -39.608  18.377  -7.829  0.00  0.00     0.003 A 
ATOM     17  C17 NON d   1     -38.291  18.389  -8.280  0.00  0.00     0.000 A 
ATOM     18  C18 NON d   1     -37.681  19.601  -8.601  0.00  0.00     0.003 A 
ATOM     19  C19 NON d   1     -38.385  20.802  -8.471  0.00  0.00     0.037 A 
ENDBRANCH  13  14
ENDBRANCH  12  13
ENDBRANCH  11  12
ENDBRANCH   9  11
ENDBRANCH   5   7
BRANCH   1  20
ATOM     20  C5  NON d   1     -43.643  17.490  -4.834  0.00  0.00     0.169 C 
ATOM     21  O1  NON d   1     -43.739  16.291  -5.091  0.00  0.00    -0.291 OA
BRANCH  20  22
ATOM     22  C4  NON d   1     -44.719  18.516  -5.163  0.00  0.00     0.164 C 
BRANCH  22  23
ATOM     23  S3  NON d   1     -46.060  17.869  -6.185  0.00  0.00    -0.104 SA
BRANCH  23  24
ATOM     24  C3  NON d   1     -46.843  16.611  -5.213  0.00  0.00     0.104 C 
ATOM     25  S2  NON d   1     -47.812  15.380  -5.810  0.00  0.00    -0.065 SA
BRANCH  24  26
ATOM     26  S1  NON d   1     -46.337  16.803  -3.524  0.00  0.00    -0.112 SA
BRANCH  26  27
ATOM     27  C2  NON d   1     -47.827  17.251  -2.595  0.00  0.00     0.076 C 
ATOM     28  C1  NON d   1     -48.915  16.178  -2.795  0.00  0.00     0.016 C 
ENDBRANCH  26  27
ENDBRANCH  24  26
ENDBRANCH  23  24
ENDBRANCH  22  23
ENDBRANCH  20  22
ENDBRANCH   1  20
TORSDOF 11
ENDMDL
MODEL 3
REMARK VINA RESULT:   -22.004      3.930      6.323
REMARK INTER + INTRA:         -27.151
REMARK INTER:                 -25.286
REMARK INTRA:                  -1.865
REMARK CONF_INDEPENDENT:        3.281
REMARK UNBOUND:                -1.865
REMARK  11 active torsions:
REMARK  status: ('A' for Active; 'I' for Inactive)
REMARK    1  A    between atoms: C2_2  and  S1_3 
REMARK    2  A    between atoms: S1_3  and  C3_4 
REMARK    3  A    between atoms: C3_4  and  S3_6 
REMARK    4  A    between atoms: S3_6  and  C4_7 
REMARK    5  A    between atoms: C4_7  and  C5_8 
REMARK    6  A    between atoms: C5_8  and  C6_10 
REMARK    7  A    between atoms: C10_14  and  C11_15 
REMARK       I    between atoms: C11_15  and  N1_17 
REMARK    8  A    between atoms: N1_17  and  C12_18 
REMARK    9  A    between atoms: C12_18  and  C13_19 
REMARK   10  A    between atoms: C13_19  and  O3_20 
REMARK   11  A    between atoms: O3_20  and  C14_21 
ROOT
ATOM      1  C6  NON d   1     -42.149  17.921  -3.990  0.00  0.00     0.011 A 
ATOM      2  C7  NON d   1     -41.505  17.246  -2.944  0.00  0.00     0.015 A 
ATOM      3  C8  NON d   1     -40.409  17.822  -2.306  0.00  0.00     0.002 A 
ATOM      4  C9  NON d   1     -39.942  19.070  -2.712  0.00  0.00     0.017 A 
ATOM      5  C10 NON d   1     -40.563  19.764  -3.763  0.00  0.00     0.032 A 
ATOM      6  C20 NON d   1     -41.673  19.185  -4.393  0.00  0.00     0.032 A 
ENDROOT
BRANCH   5   7
ATOM      7  C11 NON d   1     -39.999  21.100  -4.123  0.00  0.00     0.251 C 
ATOM      8  O2  NON d   1     -39.686  21.327  -5.289  0.00  0.00    -0.268 OA
ATOM      9  N1  NON d   1     -39.868  22.051  -3.129  0.00  0.00    -0.355 N 
ATOM     10  H11 NON d   1     -40.306  21.907  -2.230  0.00  0.00     0.162 HD
BRANCH   9  11
ATOM     11  C12 NON d   1     -39.445  23.397  -3.484  0.00  0.00     0.149 C 
BRANCH  11  12
ATOM     12  C13 NON d   1     -40.305  24.494  -2.860  0.00  0.00     0.195 C 
BRANCH  12  13
ATOM     13  O3  NON d   1     -41.293  23.873  -2.038  0.00  0.00    -0.350 OA
BRANCH  13  14
ATOM     14  C14 NON d   1     -41.098  23.914  -0.685  0.00  0.00     0.068 A 
ATOM     15  C15 NON d   1     -40.703  22.701  -0.116  0.00  0.00     0.037 A 
ATOM     16  C16 NON d   1     -40.469  22.601   1.256  0.00  0.00     0.003 A 
ATOM     17  C17 NON d   1     -40.628  23.719   2.071  0.00  0.00     0.000 A 
ATOM     18  C18 NON d   1     -41.019  24.933   1.509  0.00  0.00     0.003 A 
ATOM     19  C19 NON d   1     -41.254  25.033   0.134  0.00  0.00     0.037 A 
ENDBRANCH  13  14
ENDBRANCH  12  13
ENDBRANCH  11  12
ENDBRANCH   9  11
ENDBRANCH   5   7
BRANCH   1  20
ATOM     20  C5  NON d   1     -43.340  17.343  -4.692  0.00  0.00     0.169 C 
ATOM     21  O1  NON d   1     -43.189  16.311  -5.346  0.00  0.00    -0.291 OA
BRANCH  20  22
ATOM     22  C4  NON d   1     -44.671  18.068  -4.550  0.00  0.00     0.164 C 
BRANCH  22  23
ATOM     23  S3  NON d   1     -45.884  17.629  -5.813  0.00  0.00    -0.104 SA
BRANCH  23  24
ATOM     24  C3  NON d   1     -47.020  16.518  -5.027  0.00  0.00     0.104 C 
ATOM     25  S2  NON d   1     -47.967  15.379  -5.810  0.00  0.00    -0.065 SA
BRANCH  24  26
ATOM     26  S1  NON d   1     -46.900  16.736  -3.271  0.00  0.00    -0.112 SA
BRANCH  26  27
ATOM     27  C2  NON d   1     -48.600  16.857  -2.657  0.00  0.00     0.076 C 
ATOM     28  C1  NON d   1     -49.358  15.545  -2.939  0.00  0.00     0.016 C 
ENDBRANCH  26  27
ENDBRANCH  24  26
ENDBRANCH  23  24
ENDBRANCH  22  23
ENDBRANCH  20  22
ENDBRANCH   1  20
TORSDOF 11
ENDMDL
MODEL 4
REMARK VINA RESULT:   -21.976      4.272      6.800
REMARK INTER + INTRA:         -26.334
REMARK INTER:                 -25.257
REMARK INTRA:                  -1.077
REMARK CONF_INDEPENDENT:        3.281
REMARK UNBOUND:                -1.077
REMARK  11 active torsions:
REMARK  status: ('A' for Active; 'I' for Inactive)
REMARK    1  A    between atoms: C2_2  and  S1_3 
REMARK    2  A    between atoms: S1_3  and  C3_4 
REMARK    3  A    between atoms: C3_4  and  S3_6 
REMARK    4  A    between atoms: S3_6  and  C4_7 
REMARK    5  A    between atoms: C4_7  and  C5_8 
REMARK    6  A    between atoms: C5_8  and  C6_10 
REMARK    7  A    between atoms: C10_14  and  C11_15 
REMARK       I    between atoms: C11_15  and  N1_17 
REMARK    8  A    between atoms: N1_17  and  C12_18 
REMARK    9  A    between atoms: C12_18  and  C13_19 
REMARK   10  A    between atoms: C13_19  and  O3_20 
REMARK   11  A    between atoms: O3_20  and  C14_21 
ROOT
ATOM      1  C6  NON d   1     -42.179  18.131  -4.737  0.00  0.00     0.011 A 
ATOM      2  C7  NON d   1     -41.330  17.820  -5.806  0.00  0.00     0.015 A 
ATOM      3  C8  NON d   1     -40.146  18.531  -5.995  0.00  0.00     0.002 A 
ATOM      4  C9  NON d   1     -39.807  19.564  -5.123  0.00  0.00     0.017 A 
ATOM      5  C10 NON d   1     -40.645  19.901  -4.048  0.00  0.00     0.032 A 
ATOM      6  C20 NON d   1     -41.828  19.175  -3.856  0.00  0.00     0.032 A 
ENDROOT
BRANCH   5   7
ATOM      7  C11 NON d   1     -40.194  21.016  -3.160  0.00  0.00     0.251 C 
ATOM      8  O2  NON d   1     -40.488  22.173  -3.450  0.00  0.00    -0.268 OA
ATOM      9  N1  NON d   1     -39.477  20.704  -2.021  0.00  0.00    -0.355 N 
ATOM     10  H11 NON d   1     -39.416  19.746  -1.708  0.00  0.00     0.162 HD
BRANCH   9  11
ATOM     11  C12 NON d   1     -39.144  21.761  -1.078  0.00  0.00     0.149 C 
BRANCH  11  12
ATOM     12  C13 NON d   1     -39.383  21.379   0.381  0.00  0.00     0.195 C 
BRANCH  12  13
ATOM     13  O3  NON d   1     -40.699  21.800   0.743  0.00  0.00    -0.350 OA
BRANCH  13  14
ATOM     14  C14 NON d   1     -40.882  23.130   1.005  0.00  0.00     0.068 A 
ATOM     15  C15 NON d   1     -41.226  23.901  -0.109  0.00  0.00     0.037 A 
ATOM     16  C16 NON d   1     -41.442  25.274   0.017  0.00  0.00     0.003 A 
ATOM     17  C17 NON d   1     -41.318  25.886   1.261  0.00  0.00     0.000 A 
ATOM     18  C18 NON d   1     -40.977  25.122   2.376  0.00  0.00     0.003 A 
ATOM     19  C19 NON d   1     -40.759  23.747   2.250  0.00  0.00     0.037 A 
ENDBRANCH  13  14
ENDBRANCH  12  13
ENDBRANCH  11  12
ENDBRANCH   9  11
ENDBRANCH   5   7
BRANCH   1  20
ATOM     20  C5  NON d   1     -43.453  17.381  -4.490  0.00  0.00     0.169 C 
ATOM     21  O1  NON d   1     -43.386  16.172  -4.271  0.00  0.00    -0.291 OA
BRANCH  20  22
ATOM     22  C4  NON d   1     -44.758  18.165  -4.521  0.00  0.00     0.164 C 
BRANCH  22  23
ATOM     23  S3  NON d   1     -45.904  17.631  -5.810  0.00  0.00    -0.104 SA
BRANCH  23  24
ATOM     24  C3  NON d   1     -47.022  16.503  -5.023  0.00  0.00     0.104 C 
ATOM     25  S2  NON d   1     -47.987  15.380  -5.810  0.00  0.00    -0.065 SA
BRANCH  24  26
ATOM     26  S1  NON d   1     -46.865  16.682  -3.266  0.00  0.00    -0.112 SA
BRANCH  26  27
ATOM     27  C2  NON d   1     -48.548  16.859  -2.620  0.00  0.00     0.076 C 
ATOM     28  C1  NON d   1     -49.398  15.638  -3.022  0.00  0.00     0.016 C 
ENDBRANCH  26  27
ENDBRANCH  24  26
ENDBRANCH  23  24
ENDBRANCH  22  23
ENDBRANCH  20  22
ENDBRANCH   1  20
TORSDOF 11
ENDMDL
MODEL 5
REMARK VINA RESULT:   -21.838      1.809      2.832
REMARK INTER + INTRA:         -27.333
REMARK INTER:                 -25.119
REMARK INTRA:                  -2.214
REMARK CONF_INDEPENDENT:        3.281
REMARK UNBOUND:                -2.214
REMARK  11 active torsions:
REMARK  status: ('A' for Active; 'I' for Inactive)
REMARK    1  A    between atoms: C2_2  and  S1_3 
REMARK    2  A    between atoms: S1_3  and  C3_4 
REMARK    3  A    between atoms: C3_4  and  S3_6 
REMARK    4  A    between atoms: S3_6  and  C4_7 
REMARK    5  A    between atoms: C4_7  and  C5_8 
REMARK    6  A    between atoms: C5_8  and  C6_10 
REMARK    7  A    between atoms: C10_14  and  C11_15 
REMARK       I    between atoms: C11_15  and  N1_17 
REMARK    8  A    between atoms: N1_17  and  C12_18 
REMARK    9  A    between atoms: C12_18  and  C13_19 
REMARK   10  A    between atoms: C13_19  and  O3_20 
REMARK   11  A    between atoms: O3_20  and  C14_21 
ROOT
ATOM      1  C6  NON d   1     -42.236  17.837  -3.772  0.00  0.00     0.011 A 
ATOM      2  C7  NON d   1     -42.416  18.008  -2.393  0.00  0.00     0.015 A 
ATOM      3  C8  NON d   1     -41.359  18.436  -1.593  0.00  0.00     0.002 A 
ATOM      4  C9  NON d   1     -40.112  18.687  -2.162  0.00  0.00     0.017 A 
ATOM      5  C10 NON d   1     -39.902  18.516  -3.539  0.00  0.00     0.032 A 
ATOM      6  C20 NON d   1     -40.972  18.097  -4.341  0.00  0.00     0.032 A 
ENDROOT
BRANCH   5   7
ATOM      7  C11 NON d   1     -38.535  18.819  -4.061  0.00  0.00     0.251 C 
ATOM      8  O2  NON d   1     -37.676  19.241  -3.290  0.00  0.00    -0.268 OA
ATOM      9  N1  NON d   1     -38.273  18.592  -5.398  0.00  0.00    -0.355 N 
ATOM     10  H11 NON d   1     -38.930  18.071  -5.961  0.00  0.00     0.162 HD
BRANCH   9  11
ATOM     11  C12 NON d   1     -36.915  18.755  -5.895  0.00  0.00     0.149 C 
BRANCH  11  12
ATOM     12  C13 NON d   1     -36.768  18.458  -7.385  0.00  0.00     0.195 C 
BRANCH  12  13
ATOM     13  O3  NON d   1     -38.069  18.225  -7.925  0.00  0.00    -0.350 OA
BRANCH  13  14
ATOM     14  C14 NON d   1     -38.842  19.320  -8.194  0.00  0.00     0.068 A 
ATOM     15  C15 NON d   1     -40.174  19.208  -7.785  0.00  0.00     0.037 A 
ATOM     16  C16 NON d   1     -41.073  20.254  -7.998  0.00  0.00     0.003 A 
ATOM     17  C17 NON d   1     -40.645  21.423  -8.621  0.00  0.00     0.000 A 
ATOM     18  C18 NON d   1     -39.317  21.542  -9.028  0.00  0.00     0.003 A 
ATOM     19  C19 NON d   1     -38.416  20.494  -8.816  0.00  0.00     0.037 A 
ENDBRANCH  13  14
ENDBRANCH  12  13
ENDBRANCH  11  12
ENDBRANCH   9  11
ENDBRANCH   5   7
BRANCH   1  20
ATOM     20  C5  NON d   1     -43.352  17.393  -4.669  0.00  0.00     0.169 C 
ATOM     21  O1  NON d   1     -43.139  16.467  -5.450  0.00  0.00    -0.291 OA
BRANCH  20  22
ATOM     22  C4  NON d   1     -44.687  18.115  -4.555  0.00  0.00     0.164 C 
BRANCH  22  23
ATOM     23  S3  NON d   1     -45.892  17.631  -5.810  0.00  0.00    -0.104 SA
BRANCH  23  24
ATOM     24  C3  NON d   1     -46.966  16.461  -5.021  0.00  0.00     0.104 C 
ATOM     25  S2  NON d   1     -47.976  15.381  -5.810  0.00  0.00    -0.065 SA
BRANCH  24  26
ATOM     26  S1  NON d   1     -46.707  16.547  -3.269  0.00  0.00    -0.112 SA
BRANCH  26  27
ATOM     27  C2  NON d   1     -48.327  16.890  -2.533  0.00  0.00     0.076 C 
ATOM     28  C1  NON d   1     -49.282  15.707  -2.785  0.00  0.00     0.016 C 
ENDBRANCH  26  27
ENDBRANCH  24  26
ENDBRANCH  23  24
ENDBRANCH  22  23
ENDBRANCH  20  22
ENDBRANCH   1  20
TORSDOF 11
ENDMDL
MODEL 6
REMARK VINA RESULT:   -21.709      2.339      3.152
REMARK INTER + INTRA:         -26.514
REMARK INTER:                 -24.990
REMARK INTRA:                  -1.523
REMARK CONF_INDEPENDENT:        3.281
REMARK UNBOUND:                -1.523
REMARK  11 active torsions:
REMARK  status: ('A' for Active; 'I' for Inactive)
REMARK    1  A    between atoms: C2_2  and  S1_3 
REMARK    2  A    between atoms: S1_3  and  C3_4 
REMARK    3  A    between atoms: C3_4  and  S3_6 
REMARK    4  A    between atoms: S3_6  and  C4_7 
REMARK    5  A    between atoms: C4_7  and  C5_8 
REMARK    6  A    between atoms: C5_8  and  C6_10 
REMARK    7  A    between atoms: C10_14  and  C11_15 
REMARK       I    between atoms: C11_15  and  N1_17 
REMARK    8  A    between atoms: N1_17  and  C12_18 
REMARK    9  A    between atoms: C12_18  and  C13_19 
REMARK   10  A    between atoms: C13_19  and  O3_20 
REMARK   11  A    between atoms: O3_20  and  C14_21 
ROOT
ATOM      1  C6  NON d   1     -42.207  18.280  -4.560  0.00  0.00     0.011 A 
ATOM      2  C7  NON d   1     -41.271  18.364  -3.521  0.00  0.00     0.015 A 
ATOM      3  C8  NON d   1     -40.046  18.994  -3.726  0.00  0.00     0.002 A 
ATOM      4  C9  NON d   1     -39.742  19.537  -4.973  0.00  0.00     0.017 A 
ATOM      5  C10 NON d   1     -40.658  19.459  -6.034  0.00  0.00     0.032 A 
ATOM      6  C20 NON d   1     -41.894  18.835  -5.818  0.00  0.00     0.032 A 
ENDROOT
BRANCH   5   7
ATOM      7  C11 NON d   1     -40.249  20.078  -7.332  0.00  0.00     0.251 C 
ATOM      8  O2  NON d   1     -40.538  19.515  -8.385  0.00  0.00    -0.268 OA
ATOM      9  N1  NON d   1     -39.575  21.283  -7.305  0.00  0.00    -0.355 N 
ATOM     10  H11 NON d   1     -39.520  21.814  -6.447  0.00  0.00     0.162 HD
BRANCH   9  11
ATOM     11  C12 NON d   1     -39.285  21.964  -8.558  0.00  0.00     0.149 C 
BRANCH  11  12
ATOM     12  C13 NON d   1     -39.286  23.487  -8.442  0.00  0.00     0.195 C 
BRANCH  12  13
ATOM     13  O3  NON d   1     -39.128  23.830  -7.065  0.00  0.00    -0.350 OA
BRANCH  13  14
ATOM     14  C14 NON d   1     -39.867  24.878  -6.591  0.00  0.00     0.068 A 
ATOM     15  C15 NON d   1     -40.204  24.789  -5.238  0.00  0.00     0.037 A 
ATOM     16  C16 NON d   1     -40.957  25.791  -4.624  0.00  0.00     0.003 A 
ATOM     17  C17 NON d   1     -41.378  26.894  -5.362  0.00  0.00     0.000 A 
ATOM     18  C18 NON d   1     -41.043  26.990  -6.712  0.00  0.00     0.003 A 
ATOM     19  C19 NON d   1     -40.290  25.985  -7.327  0.00  0.00     0.037 A 
ENDBRANCH  13  14
ENDBRANCH  12  13
ENDBRANCH  11  12
ENDBRANCH   9  11
ENDBRANCH   5   7
BRANCH   1  20
ATOM     20  C5  NON d   1     -43.542  17.623  -4.375  0.00  0.00     0.169 C 
ATOM     21  O1  NON d   1     -43.571  16.464  -3.966  0.00  0.00    -0.291 OA
BRANCH  20  22
ATOM     22  C4  NON d   1     -44.786  18.438  -4.702  0.00  0.00     0.164 C 
BRANCH  22  23
ATOM     23  S3  NON d   1     -45.940  17.600  -5.810  0.00  0.00    -0.104 SA
BRANCH  23  24
ATOM     24  C3  NON d   1     -46.915  16.539  -4.778  0.00  0.00     0.104 C 
ATOM     25  S2  NON d   1     -47.079  16.680  -3.116  0.00  0.00    -0.065 SA
BRANCH  24  26
ATOM     26  S1  NON d   1     -47.774  15.380  -5.809  0.00  0.00    -0.112 SA
BRANCH  26  27
ATOM     27  C2  NON d   1     -49.315  14.976  -4.946  0.00  0.00     0.076 C 
ATOM     28  C1  NON d   1     -49.016  14.596  -3.483  0.00  0.00     0.016 C 
ENDBRANCH  26  27
ENDBRANCH  24  26
ENDBRANCH  23  24
ENDBRANCH  22  23
ENDBRANCH  20  22
ENDBRANCH   1  20
TORSDOF 11
ENDMDL
MODEL 7
REMARK VINA RESULT:   -21.398      1.287      2.153
REMARK INTER + INTRA:         -26.286
REMARK INTER:                 -24.680
REMARK INTRA:                  -1.606
REMARK CONF_INDEPENDENT:        3.281
REMARK UNBOUND:                -1.606
REMARK  11 active torsions:
REMARK  status: ('A' for Active; 'I' for Inactive)
REMARK    1  A    between atoms: C2_2  and  S1_3 
REMARK    2  A    between atoms: S1_3  and  C3_4 
REMARK    3  A    between atoms: C3_4  and  S3_6 
REMARK    4  A    between atoms: S3_6  and  C4_7 
REMARK    5  A    between atoms: C4_7  and  C5_8 
REMARK    6  A    between atoms: C5_8  and  C6_10 
REMARK    7  A    between atoms: C10_14  and  C11_15 
REMARK       I    between atoms: C11_15  and  N1_17 
REMARK    8  A    between atoms: N1_17  and  C12_18 
REMARK    9  A    between atoms: C12_18  and  C13_19 
REMARK   10  A    between atoms: C13_19  and  O3_20 
REMARK   11  A    between atoms: O3_20  and  C14_21 
ROOT
ATOM      1  C6  NON d   1     -42.093  18.193  -4.897  0.00  0.00     0.011 A 
ATOM      2  C7  NON d   1     -41.434  18.589  -3.727  0.00  0.00     0.015 A 
ATOM      3  C8  NON d   1     -40.146  19.116  -3.789  0.00  0.00     0.002 A 
ATOM      4  C9  NON d   1     -39.504  19.243  -5.020  0.00  0.00     0.017 A 
ATOM      5  C10 NON d   1     -40.139  18.846  -6.207  0.00  0.00     0.032 A 
ATOM      6  C20 NON d   1     -41.439  18.328  -6.139  0.00  0.00     0.032 A 
ENDROOT
BRANCH   5   7
ATOM      7  C11 NON d   1     -39.377  19.029  -7.480  0.00  0.00     0.251 C 
ATOM      8  O2  NON d   1     -39.145  18.052  -8.188  0.00  0.00    -0.268 OA
ATOM      9  N1  NON d   1     -38.976  20.303  -7.832  0.00  0.00    -0.355 N 
ATOM     10  H11 NON d   1     -39.341  21.104  -7.336  0.00  0.00     0.162 HD
BRANCH   9  11
ATOM     11  C12 NON d   1     -38.349  20.519  -9.127  0.00  0.00     0.149 C 
BRANCH  11  12
ATOM     12  C13 NON d   1     -39.159  21.421 -10.056  0.00  0.00     0.195 C 
BRANCH  12  13
ATOM     13  O3  NON d   1     -40.136  22.108  -9.273  0.00  0.00    -0.350 OA
BRANCH  13  14
ATOM     14  C14 NON d   1     -39.970  23.454  -9.103  0.00  0.00     0.068 A 
ATOM     15  C15 NON d   1     -39.818  24.177 -10.289  0.00  0.00     0.037 A 
ATOM     16  C16 NON d   1     -39.640  25.561 -10.262  0.00  0.00     0.003 A 
ATOM     17  C17 NON d   1     -39.616  26.234  -9.043  0.00  0.00     0.000 A 
ATOM     18  C18 NON d   1     -39.771  25.519  -7.856  0.00  0.00     0.003 A 
ATOM     19  C19 NON d   1     -39.947  24.132  -7.884  0.00  0.00     0.037 A 
ENDBRANCH  13  14
ENDBRANCH  12  13
ENDBRANCH  11  12
ENDBRANCH   9  11
ENDBRANCH   5   7
BRANCH   1  20
ATOM     20  C5  NON d   1     -43.485  17.634  -4.874  0.00  0.00     0.169 C 
ATOM     21  O1  NON d   1     -43.629  16.435  -4.642  0.00  0.00    -0.291 OA
BRANCH  20  22
ATOM     22  C4  NON d   1     -44.640  18.592  -5.135  0.00  0.00     0.164 C 
BRANCH  22  23
ATOM     23  S3  NON d   1     -45.940  17.903  -6.181  0.00  0.00    -0.104 SA
BRANCH  23  24
ATOM     24  C3  NON d   1     -46.729  16.649  -5.208  0.00  0.00     0.104 C 
ATOM     25  S2  NON d   1     -47.659  15.391  -5.810  0.00  0.00    -0.065 SA
BRANCH  24  26
ATOM     26  S1  NON d   1     -46.276  16.881  -3.510  0.00  0.00    -0.112 SA
BRANCH  26  27
ATOM     27  C2  NON d   1     -47.827  17.032  -2.585  0.00  0.00     0.076 C 
ATOM     28  C1  NON d   1     -48.756  15.849  -2.919  0.00  0.00     0.016 C 
ENDBRANCH  26  27
ENDBRANCH  24  26
ENDBRANCH  23  24
ENDBRANCH  22  23
ENDBRANCH  20  22
ENDBRANCH   1  20
TORSDOF 11
ENDMDL
MODEL 8
REMARK VINA RESULT:   -21.394      2.076      3.382
REMARK INTER + INTRA:         -26.899
REMARK INTER:                 -24.675
REMARK INTRA:                  -2.224
REMARK CONF_INDEPENDENT:        3.281
REMARK UNBOUND:                -2.224
REMARK  11 active torsions:
REMARK  status: ('A' for Active; 'I' for Inactive)
REMARK    1  A    between atoms: C2_2  and  S1_3 
REMARK    2  A    between atoms: S1_3  and  C3_4 
REMARK    3  A    between atoms: C3_4  and  S3_6 
REMARK    4  A    between atoms: S3_6  and  C4_7 
REMARK    5  A    between atoms: C4_7  and  C5_8 
REMARK    6  A    between atoms: C5_8  and  C6_10 
REMARK    7  A    between atoms: C10_14  and  C11_15 
REMARK       I    between atoms: C11_15  and  N1_17 
REMARK    8  A    between atoms: N1_17  and  C12_18 
REMARK    9  A    between atoms: C12_18  and  C13_19 
REMARK   10  A    between atoms: C13_19  and  O3_20 
REMARK   11  A    between atoms: O3_20  and  C14_21 
ROOT
ATOM      1  C6  NON d   1     -42.334  17.680  -4.316  0.00  0.00     0.011 A 
ATOM      2  C7  NON d   1     -41.588  17.702  -3.131  0.00  0.00     0.015 A 
ATOM      3  C8  NON d   1     -40.373  18.381  -3.077  0.00  0.00     0.002 A 
ATOM      4  C9  NON d   1     -39.890  19.035  -4.208  0.00  0.00     0.017 A 
ATOM      5  C10 NON d   1     -40.613  19.022  -5.411  0.00  0.00     0.032 A 
ATOM      6  C20 NON d   1     -41.841  18.347  -5.457  0.00  0.00     0.032 A 
ENDROOT
BRANCH   5   7
ATOM      7  C11 NON d   1     -40.021  19.759  -6.569  0.00  0.00     0.251 C 
ATOM      8  O2  NON d   1     -40.609  19.760  -7.648  0.00  0.00    -0.268 OA
ATOM      9  N1  NON d   1     -38.833  20.439  -6.380  0.00  0.00    -0.355 N 
ATOM     10  H11 NON d   1     -38.474  20.581  -5.447  0.00  0.00     0.162 HD
BRANCH   9  11
ATOM     11  C12 NON d   1     -38.310  21.268  -7.455  0.00  0.00     0.149 C 
BRANCH  11  12
ATOM     12  C13 NON d   1     -37.926  22.678  -7.011  0.00  0.00     0.195 C 
BRANCH  12  13
ATOM     13  O3  NON d   1     -37.837  22.688  -5.586  0.00  0.00    -0.350 OA
BRANCH  13  14
ATOM     14  C14 NON d   1     -38.967  23.017  -4.890  0.00  0.00     0.068 A 
ATOM     15  C15 NON d   1     -39.233  22.197  -3.789  0.00  0.00     0.037 A 
ATOM     16  C16 NON d   1     -40.356  22.421  -2.991  0.00  0.00     0.003 A 
ATOM     17  C17 NON d   1     -41.221  23.471  -3.286  0.00  0.00     0.000 A 
ATOM     18  C18 NON d   1     -40.959  24.294  -4.381  0.00  0.00     0.003 A 
ATOM     19  C19 NON d   1     -39.835  24.069  -5.182  0.00  0.00     0.037 A 
ENDBRANCH  13  14
ENDBRANCH  12  13
ENDBRANCH  11  12
ENDBRANCH   9  11
ENDBRANCH   5   7
BRANCH   1  20
ATOM     20  C5  NON d   1     -43.653  16.973  -4.412  0.00  0.00     0.169 C 
ATOM     21  O1  NON d   1     -43.835  16.200  -5.351  0.00  0.00    -0.291 OA
BRANCH  20  22
ATOM     22  C4  NON d   1     -44.689  17.253  -3.332  0.00  0.00     0.164 C 
BRANCH  22  23
ATOM     23  S3  NON d   1     -46.257  16.393  -3.580  0.00  0.00    -0.104 SA
BRANCH  23  24
ATOM     24  C3  NON d   1     -46.734  16.732  -5.253  0.00  0.00     0.104 C 
ATOM     25  S2  NON d   1     -46.171  18.005  -6.187  0.00  0.00    -0.065 SA
BRANCH  24  26
ATOM     26  S1  NON d   1     -47.813  15.439  -5.808  0.00  0.00    -0.112 SA
BRANCH  26  27
ATOM     27  C2  NON d   1     -48.870  15.018  -4.398  0.00  0.00     0.076 C 
ATOM     28  C1  NON d   1     -49.293  16.301  -3.655  0.00  0.00     0.016 C 
ENDBRANCH  26  27
ENDBRANCH  24  26
ENDBRANCH  23  24
ENDBRANCH  22  23
ENDBRANCH  20  22
ENDBRANCH   1  20
TORSDOF 11
ENDMDL
MODEL 9
REMARK VINA RESULT:   -20.968      3.755      6.109
REMARK INTER + INTRA:         -26.202
REMARK INTER:                 -24.249
REMARK INTRA:                  -1.953
REMARK CONF_INDEPENDENT:        3.281
REMARK UNBOUND:                -1.953
REMARK  11 active torsions:
REMARK  status: ('A' for Active; 'I' for Inactive)
REMARK    1  A    between atoms: C2_2  and  S1_3 
REMARK    2  A    between atoms: S1_3  and  C3_4 
REMARK    3  A    between atoms: C3_4  and  S3_6 
REMARK    4  A    between atoms: S3_6  and  C4_7 
REMARK    5  A    between atoms: C4_7  and  C5_8 
REMARK    6  A    between atoms: C5_8  and  C6_10 
REMARK    7  A    between atoms: C10_14  and  C11_15 
REMARK       I    between atoms: C11_15  and  N1_17 
REMARK    8  A    between atoms: N1_17  and  C12_18 
REMARK    9  A    between atoms: C12_18  and  C13_19 
REMARK   10  A    between atoms: C13_19  and  O3_20 
REMARK   11  A    between atoms: O3_20  and  C14_21 
ROOT
ATOM      1  C6  NON d   1     -42.194  18.377  -4.720  0.00  0.00     0.011 A 
ATOM      2  C7  NON d   1     -42.081  19.434  -5.633  0.00  0.00     0.015 A 
ATOM      3  C8  NON d   1     -40.941  20.234  -5.645  0.00  0.00     0.002 A 
ATOM      4  C9  NON d   1     -39.910  19.991  -4.740  0.00  0.00     0.017 A 
ATOM      5  C10 NON d   1     -40.001  18.944  -3.809  0.00  0.00     0.032 A 
ATOM      6  C20 NON d   1     -41.144  18.135  -3.810  0.00  0.00     0.032 A 
ENDROOT
BRANCH   5   7
ATOM      7  C11 NON d   1     -38.841  18.754  -2.885  0.00  0.00     0.251 C 
ATOM      8  O2  NON d   1     -38.355  17.634  -2.752  0.00  0.00    -0.268 OA
ATOM      9  N1  NON d   1     -38.336  19.857  -2.225  0.00  0.00    -0.355 N 
ATOM     10  H11 NON d   1     -38.625  20.786  -2.496  0.00  0.00     0.162 HD
BRANCH   9  11
ATOM     11  C12 NON d   1     -37.128  19.716  -1.425  0.00  0.00     0.149 C 
BRANCH  11  12
ATOM     12  C13 NON d   1     -36.902  20.867  -0.447  0.00  0.00     0.195 C 
BRANCH  12  13
ATOM     13  O3  NON d   1     -37.525  22.035  -0.982  0.00  0.00    -0.350 OA
BRANCH  13  14
ATOM     14  C14 NON d   1     -38.729  22.404  -0.448  0.00  0.00     0.068 A 
ATOM     15  C15 NON d   1     -39.654  22.889  -1.376  0.00  0.00     0.037 A 
ATOM     16  C16 NON d   1     -40.923  23.300  -0.967  0.00  0.00     0.003 A 
ATOM     17  C17 NON d   1     -41.277  23.227   0.377  0.00  0.00     0.000 A 
ATOM     18  C18 NON d   1     -40.360  22.742   1.308  0.00  0.00     0.003 A 
ATOM     19  C19 NON d   1     -39.088  22.331   0.898  0.00  0.00     0.037 A 
ENDBRANCH  13  14
ENDBRANCH  12  13
ENDBRANCH  11  12
ENDBRANCH   9  11
ENDBRANCH   5   7
BRANCH   1  20
ATOM     20  C5  NON d   1     -43.397  17.484  -4.684  0.00  0.00     0.169 C 
ATOM     21  O1  NON d   1     -43.225  16.268  -4.757  0.00  0.00    -0.291 OA
BRANCH  20  22
ATOM     22  C4  NON d   1     -44.766  18.139  -4.554  0.00  0.00     0.164 C 
BRANCH  22  23
ATOM     23  S3  NON d   1     -45.943  17.635  -5.827  0.00  0.00    -0.104 SA
BRANCH  23  24
ATOM     24  C3  NON d   1     -47.049  16.497  -5.037  0.00  0.00     0.104 C 
ATOM     25  S2  NON d   1     -47.923  15.293  -5.810  0.00  0.00    -0.065 SA
BRANCH  24  26
ATOM     26  S1  NON d   1     -46.988  16.771  -3.286  0.00  0.00    -0.112 SA
BRANCH  26  27
ATOM     27  C2  NON d   1     -48.659  16.452  -2.663  0.00  0.00     0.076 C 
ATOM     28  C1  NON d   1     -48.758  16.867  -1.183  0.00  0.00     0.016 C 
ENDBRANCH  26  27
ENDBRANCH  24  26
ENDBRANCH  23  24
ENDBRANCH  22  23
ENDBRANCH  20  22
ENDBRANCH   1  20
TORSDOF 11
ENDMDL
