MODEL 1
REMARK VINA RESULT:   -14.835      0.000      0.000
REMARK INTER + INTRA:         -17.635
REMARK INTER:                 -16.327
REMARK INTRA:                  -1.308
REMARK CONF_INDEPENDENT:        1.492
REMARK UNBOUND:                -1.308
REMARK  5 active torsions:
REMARK  status: ('A' for Active; 'I' for Inactive)
REMARK    1  A    between atoms: C1_2  and  C2_3 
REMARK       I    between atoms: C1_2  and  N2_22 
REMARK    2  A    between atoms: C3_4  and  C4_5 
REMARK    3  A    between atoms: C8_9  and  C9_10 
REMARK    4  A    between atoms: C9_10  and  C10_12 
REMARK    5  A    between atoms: N2_22  and  O3_23 
ROOT
ATOM      1  C4  NON d   1     -42.584  18.023  -3.991  0.00  0.00    -0.035 A 
ATOM      2  C5  NON d   1     -42.023  17.013  -3.202  0.00  0.00     0.011 A 
ATOM      3  C6  NON d   1     -40.892  17.254  -2.433  0.00  0.00     0.002 A 
ATOM      4  C7  NON d   1     -40.297  18.515  -2.436  0.00  0.00     0.015 A 
ATOM      5  C8  NON d   1     -40.814  19.560  -3.202  0.00  0.00     0.017 A 
ATOM      6  C18 NON d   1     -41.967  19.291  -3.979  0.00  0.00     0.027 A 
ENDROOT
BRANCH   5   7
ATOM      7  C9  NON d   1     -40.227  20.948  -3.254  0.00  0.00     0.208 C 
ATOM      8  O2  NON d   1     -39.533  21.209  -4.238  0.00  0.00    -0.285 OA
BRANCH   7   9
ATOM      9  C10 NON d   1     -40.419  21.987  -2.242  0.00  0.00     0.085 A 
ATOM     10  C11 NON d   1     -40.734  23.336  -2.236  0.00  0.00     0.047 A 
ATOM     11  C12 NON d   1     -40.776  23.810  -0.896  0.00  0.00    -0.007 A 
ATOM     12  C13 NON d   1     -41.044  25.065  -0.316  0.00  0.00     0.014 A 
ATOM     13  C17 NON d   1     -40.476  22.733  -0.074  0.00  0.00     0.043 A 
ATOM     14  C14 NON d   1     -41.001  25.195   1.075  0.00  0.00     0.001 A 
ATOM     15  C15 NON d   1     -40.695  24.098   1.879  0.00  0.00     0.002 A 
ATOM     16  C16 NON d   1     -40.425  22.842   1.320  0.00  0.00     0.030 A 
ATOM     17  N1  NON d   1     -40.266  21.655  -0.901  0.00  0.00    -0.352 N 
ATOM     18  H11 NON d   1     -40.026  20.723  -0.592  0.00  0.00     0.166 HD
ENDBRANCH   7   9
ENDBRANCH   5   7
BRANCH   1  19
ATOM     19  C3  NON d   1     -43.784  17.799  -4.824  0.00  0.00     0.017 C 
ATOM     20  C2  NON d   1     -44.847  17.063  -4.456  0.00  0.00     0.077 C 
BRANCH  20  21
ATOM     21  C1  NON d   1     -46.024  16.880  -5.348  0.00  0.00     0.264 C 
ATOM     22  O1  NON d   1     -46.342  17.714  -6.185  0.00  0.00    -0.266 OA
ATOM     23  N2  NON d   1     -46.668  15.691  -5.097  0.00  0.00    -0.234 N 
ATOM     24  H13 NON d   1     -46.373  15.021  -4.397  0.00  0.00     0.197 HD
BRANCH  23  25
ATOM     25  O3  NON d   1     -47.802  15.397  -5.876  0.00  0.00    -0.287 OA
ATOM     26  H14 NON d   1     -47.817  16.102  -6.546  0.00  0.00     0.244 HD
ENDBRANCH  23  25
ENDBRANCH  20  21
ENDBRANCH   1  19
TORSDOF 5
ENDMDL
MODEL 2
REMARK VINA RESULT:   -14.783      4.067      6.049
REMARK INTER + INTRA:         -17.862
REMARK INTER:                 -16.274
REMARK INTRA:                  -1.587
REMARK CONF_INDEPENDENT:        1.492
REMARK UNBOUND:                -1.587
REMARK  5 active torsions:
REMARK  status: ('A' for Active; 'I' for Inactive)
REMARK    1  A    between atoms: C1_2  and  C2_3 
REMARK       I    between atoms: C1_2  and  N2_22 
REMARK    2  A    between atoms: C3_4  and  C4_5 
REMARK    3  A    between atoms: C8_9  and  C9_10 
REMARK    4  A    between atoms: C9_10  and  C10_12 
REMARK    5  A    between atoms: N2_22  and  O3_23 
ROOT
ATOM      1  C4  NON d   1     -42.505  17.771  -4.272  0.00  0.00    -0.035 A 
ATOM      2  C5  NON d   1     -42.487  17.723  -2.874  0.00  0.00     0.011 A 
ATOM      3  C6  NON d   1     -41.326  18.004  -2.166  0.00  0.00     0.002 A 
ATOM      4  C7  NON d   1     -40.155  18.341  -2.844  0.00  0.00     0.015 A 
ATOM      5  C8  NON d   1     -40.115  18.407  -4.236  0.00  0.00     0.017 A 
ATOM      6  C18 NON d   1     -41.310  18.115  -4.937  0.00  0.00     0.027 A 
ENDROOT
BRANCH   5   7
ATOM      7  C9  NON d   1     -38.889  18.766  -5.036  0.00  0.00     0.208 C 
ATOM      8  O2  NON d   1     -37.804  18.452  -4.543  0.00  0.00    -0.285 OA
BRANCH   7   9
ATOM      9  C10 NON d   1     -38.892  19.446  -6.332  0.00  0.00     0.085 A 
ATOM     10  C11 NON d   1     -39.788  20.211  -7.062  0.00  0.00     0.047 A 
ATOM     11  C12 NON d   1     -39.190  20.601  -8.292  0.00  0.00    -0.007 A 
ATOM     12  C13 NON d   1     -39.630  21.368  -9.387  0.00  0.00     0.014 A 
ATOM     13  C17 NON d   1     -37.912  20.061  -8.312  0.00  0.00     0.043 A 
ATOM     14  C14 NON d   1     -38.769  21.567 -10.470  0.00  0.00     0.001 A 
ATOM     15  C15 NON d   1     -37.491  21.012 -10.467  0.00  0.00     0.002 A 
ATOM     16  C16 NON d   1     -37.035  20.246  -9.387  0.00  0.00     0.030 A 
ATOM     17  N1  NON d   1     -37.757  19.375  -7.131  0.00  0.00    -0.352 N 
ATOM     18  H11 NON d   1     -36.925  18.870  -6.856  0.00  0.00     0.166 HD
ENDBRANCH   7   9
ENDBRANCH   5   7
BRANCH   1  19
ATOM     19  C3  NON d   1     -43.722  17.474  -5.057  0.00  0.00     0.017 C 
ATOM     20  C2  NON d   1     -44.948  17.300  -4.535  0.00  0.00     0.077 C 
BRANCH  20  21
ATOM     21  C1  NON d   1     -46.131  17.003  -5.387  0.00  0.00     0.264 C 
ATOM     22  O1  NON d   1     -46.526  17.779  -6.246  0.00  0.00    -0.266 OA
ATOM     23  N2  NON d   1     -46.684  15.782  -5.074  0.00  0.00    -0.234 N 
ATOM     24  H13 NON d   1     -46.327  15.162  -4.358  0.00  0.00     0.197 HD
BRANCH  23  25
ATOM     25  O3  NON d   1     -47.814  15.381  -5.811  0.00  0.00    -0.287 OA
ATOM     26  H14 NON d   1     -47.839  16.001  -6.560  0.00  0.00     0.244 HD
ENDBRANCH  23  25
ENDBRANCH  20  21
ENDBRANCH   1  19
TORSDOF 5
ENDMDL
MODEL 3
REMARK VINA RESULT:   -14.566      3.631      5.550
REMARK INTER + INTRA:         -17.712
REMARK INTER:                 -16.057
REMARK INTRA:                  -1.655
REMARK CONF_INDEPENDENT:        1.492
REMARK UNBOUND:                -1.655
REMARK  5 active torsions:
REMARK  status: ('A' for Active; 'I' for Inactive)
REMARK    1  A    between atoms: C1_2  and  C2_3 
REMARK       I    between atoms: C1_2  and  N2_22 
REMARK    2  A    between atoms: C3_4  and  C4_5 
REMARK    3  A    between atoms: C8_9  and  C9_10 
REMARK    4  A    between atoms: C9_10  and  C10_12 
REMARK    5  A    between atoms: N2_22  and  O3_23 
ROOT
ATOM      1  C4  NON d   1     -42.836  17.870  -4.220  0.00  0.00    -0.035 A 
ATOM      2  C5  NON d   1     -42.146  17.255  -3.170  0.00  0.00     0.011 A 
ATOM      3  C6  NON d   1     -41.025  17.852  -2.608  0.00  0.00     0.002 A 
ATOM      4  C7  NON d   1     -40.571  19.081  -3.083  0.00  0.00     0.015 A 
ATOM      5  C8  NON d   1     -41.221  19.741  -4.126  0.00  0.00     0.017 A 
ATOM      6  C18 NON d   1     -42.361  19.113  -4.685  0.00  0.00     0.027 A 
ENDROOT
BRANCH   5   7
ATOM      7  C9  NON d   1     -40.791  21.071  -4.691  0.00  0.00     0.208 C 
ATOM      8  O2  NON d   1     -40.766  22.017  -3.902  0.00  0.00    -0.285 OA
BRANCH   7   9
ATOM      9  C10 NON d   1     -40.406  21.315  -6.082  0.00  0.00     0.085 A 
ATOM     10  C11 NON d   1     -40.142  20.541  -7.201  0.00  0.00     0.047 A 
ATOM     11  C12 NON d   1     -39.810  21.386  -8.296  0.00  0.00    -0.007 A 
ATOM     12  C13 NON d   1     -39.465  21.145  -9.640  0.00  0.00     0.014 A 
ATOM     13  C17 NON d   1     -39.870  22.693  -7.835  0.00  0.00     0.043 A 
ATOM     14  C14 NON d   1     -39.189  22.229 -10.477  0.00  0.00     0.001 A 
ATOM     15  C15 NON d   1     -39.254  23.533  -9.989  0.00  0.00     0.002 A 
ATOM     16  C16 NON d   1     -39.596  23.793  -8.655  0.00  0.00     0.030 A 
ATOM     17  N1  NON d   1     -40.227  22.625  -6.509  0.00  0.00    -0.352 N 
ATOM     18  H11 NON d   1     -40.350  23.422  -5.899  0.00  0.00     0.166 HD
ENDBRANCH   7   9
ENDBRANCH   5   7
BRANCH   1  19
ATOM     19  C3  NON d   1     -44.030  17.261  -4.844  0.00  0.00     0.017 C 
ATOM     20  C2  NON d   1     -45.190  17.903  -5.068  0.00  0.00     0.077 C 
BRANCH  20  21
ATOM     21  C1  NON d   1     -46.353  17.225  -5.703  0.00  0.00     0.264 C 
ATOM     22  O1  NON d   1     -47.225  17.846  -6.296  0.00  0.00    -0.266 OA
ATOM     23  N2  NON d   1     -46.300  15.862  -5.525  0.00  0.00    -0.234 N 
ATOM     24  H13 NON d   1     -45.559  15.380  -5.032  0.00  0.00     0.197 HD
BRANCH  23  25
ATOM     25  O3  NON d   1     -47.346  15.100  -6.080  0.00  0.00    -0.287 OA
ATOM     26  H14 NON d   1     -47.883  15.754  -6.560  0.00  0.00     0.244 HD
ENDBRANCH  23  25
ENDBRANCH  20  21
ENDBRANCH   1  19
TORSDOF 5
ENDMDL
MODEL 4
REMARK VINA RESULT:   -14.427      3.799      5.383
REMARK INTER + INTRA:         -17.284
REMARK INTER:                 -15.918
REMARK INTRA:                  -1.366
REMARK CONF_INDEPENDENT:        1.492
REMARK UNBOUND:                -1.366
REMARK  5 active torsions:
REMARK  status: ('A' for Active; 'I' for Inactive)
REMARK    1  A    between atoms: C1_2  and  C2_3 
REMARK       I    between atoms: C1_2  and  N2_22 
REMARK    2  A    between atoms: C3_4  and  C4_5 
REMARK    3  A    between atoms: C8_9  and  C9_10 
REMARK    4  A    between atoms: C9_10  and  C10_12 
REMARK    5  A    between atoms: N2_22  and  O3_23 
ROOT
ATOM      1  C4  NON d   1     -42.573  17.999  -4.208  0.00  0.00    -0.035 A 
ATOM      2  C5  NON d   1     -42.473  17.657  -2.855  0.00  0.00     0.011 A 
ATOM      3  C6  NON d   1     -41.329  17.957  -2.127  0.00  0.00     0.002 A 
ATOM      4  C7  NON d   1     -40.257  18.606  -2.738  0.00  0.00     0.015 A 
ATOM      5  C8  NON d   1     -40.302  18.972  -4.084  0.00  0.00     0.017 A 
ATOM      6  C18 NON d   1     -41.478  18.656  -4.807  0.00  0.00     0.027 A 
ENDROOT
BRANCH   5   7
ATOM      7  C9  NON d   1     -39.185  19.676  -4.811  0.00  0.00     0.208 C 
ATOM      8  O2  NON d   1     -38.042  19.436  -4.419  0.00  0.00    -0.285 OA
BRANCH   7   9
ATOM      9  C10 NON d   1     -39.356  20.606  -5.929  0.00  0.00     0.085 A 
ATOM     10  C11 NON d   1     -39.677  21.945  -6.080  0.00  0.00     0.047 A 
ATOM     11  C12 NON d   1     -39.688  22.279  -7.462  0.00  0.00    -0.007 A 
ATOM     12  C13 NON d   1     -39.939  23.469  -8.173  0.00  0.00     0.014 A 
ATOM     13  C17 NON d   1     -39.374  21.123  -8.163  0.00  0.00     0.043 A 
ATOM     14  C14 NON d   1     -39.867  23.456  -9.568  0.00  0.00     0.001 A 
ATOM     15  C15 NON d   1     -39.552  22.281 -10.249  0.00  0.00     0.002 A 
ATOM     16  C16 NON d   1     -39.299  21.089  -9.560  0.00  0.00     0.030 A 
ATOM     17  N1  NON d   1     -39.181  20.137  -7.225  0.00  0.00    -0.352 N 
ATOM     18  H11 NON d   1     -38.940  19.177  -7.433  0.00  0.00     0.166 HD
ENDBRANCH   7   9
ENDBRANCH   5   7
BRANCH   1  19
ATOM     19  C3  NON d   1     -43.774  17.693  -5.014  0.00  0.00     0.017 C 
ATOM     20  C2  NON d   1     -44.948  17.273  -4.511  0.00  0.00     0.077 C 
BRANCH  20  21
ATOM     21  C1  NON d   1     -46.117  16.982  -5.384  0.00  0.00     0.264 C 
ATOM     22  O1  NON d   1     -46.485  17.755  -6.259  0.00  0.00    -0.266 OA
ATOM     23  N2  NON d   1     -46.694  15.774  -5.068  0.00  0.00    -0.234 N 
ATOM     24  H13 NON d   1     -46.360  15.157  -4.339  0.00  0.00     0.197 HD
BRANCH  23  25
ATOM     25  O3  NON d   1     -47.815  15.380  -5.823  0.00  0.00    -0.287 OA
ATOM     26  H14 NON d   1     -47.902  16.077  -6.497  0.00  0.00     0.244 HD
ENDBRANCH  23  25
ENDBRANCH  20  21
ENDBRANCH   1  19
TORSDOF 5
ENDMDL
MODEL 5
REMARK VINA RESULT:   -14.402      1.124      1.747
REMARK INTER + INTRA:         -17.424
REMARK INTER:                 -15.893
REMARK INTRA:                  -1.530
REMARK CONF_INDEPENDENT:        1.492
REMARK UNBOUND:                -1.530
REMARK  5 active torsions:
REMARK  status: ('A' for Active; 'I' for Inactive)
REMARK    1  A    between atoms: C1_2  and  C2_3 
REMARK       I    between atoms: C1_2  and  N2_22 
REMARK    2  A    between atoms: C3_4  and  C4_5 
REMARK    3  A    between atoms: C8_9  and  C9_10 
REMARK    4  A    between atoms: C9_10  and  C10_12 
REMARK    5  A    between atoms: N2_22  and  O3_23 
ROOT
ATOM      1  C4  NON d   1     -42.424  18.072  -4.140  0.00  0.00    -0.035 A 
ATOM      2  C5  NON d   1     -41.815  17.252  -3.184  0.00  0.00     0.011 A 
ATOM      3  C6  NON d   1     -40.741  17.711  -2.433  0.00  0.00     0.002 A 
ATOM      4  C7  NON d   1     -40.252  19.003  -2.622  0.00  0.00     0.015 A 
ATOM      5  C8  NON d   1     -40.822  19.864  -3.559  0.00  0.00     0.017 A 
ATOM      6  C18 NON d   1     -41.915  19.375  -4.315  0.00  0.00     0.027 A 
ENDROOT
BRANCH   5   7
ATOM      7  C9  NON d   1     -40.350  21.273  -3.818  0.00  0.00     0.208 C 
ATOM      8  O2  NON d   1     -39.775  21.467  -4.891  0.00  0.00    -0.285 OA
BRANCH   7   9
ATOM      9  C10 NON d   1     -40.522  22.405  -2.906  0.00  0.00     0.085 A 
ATOM     10  C11 NON d   1     -40.621  22.583  -1.536  0.00  0.00     0.047 A 
ATOM     11  C12 NON d   1     -40.782  23.966  -1.246  0.00  0.00    -0.007 A 
ATOM     12  C13 NON d   1     -40.924  24.699  -0.053  0.00  0.00     0.014 A 
ATOM     13  C17 NON d   1     -40.785  24.638  -2.460  0.00  0.00     0.043 A 
ATOM     14  C14 NON d   1     -41.067  26.088  -0.120  0.00  0.00     0.001 A 
ATOM     15  C15 NON d   1     -41.069  26.740  -1.351  0.00  0.00     0.002 A 
ATOM     16  C16 NON d   1     -40.928  26.027  -2.549  0.00  0.00     0.030 A 
ATOM     17  N1  NON d   1     -40.629  23.684  -3.437  0.00  0.00    -0.352 N 
ATOM     18  H11 NON d   1     -40.595  23.870  -4.431  0.00  0.00     0.166 HD
ENDBRANCH   7   9
ENDBRANCH   5   7
BRANCH   1  19
ATOM     19  C3  NON d   1     -43.567  17.615  -4.959  0.00  0.00     0.017 C 
ATOM     20  C2  NON d   1     -44.854  17.662  -4.575  0.00  0.00     0.077 C 
BRANCH  20  21
ATOM     21  C1  NON d   1     -45.955  17.183  -5.454  0.00  0.00     0.264 C 
ATOM     22  O1  NON d   1     -46.369  17.842  -6.398  0.00  0.00    -0.266 OA
ATOM     23  N2  NON d   1     -46.414  15.948  -5.058  0.00  0.00    -0.234 N 
ATOM     24  H13 NON d   1     -46.044  15.427  -4.273  0.00  0.00     0.197 HD
BRANCH  23  25
ATOM     25  O3  NON d   1     -47.460  15.380  -5.810  0.00  0.00    -0.287 OA
ATOM     26  H14 NON d   1     -47.592  16.008  -6.541  0.00  0.00     0.244 HD
ENDBRANCH  23  25
ENDBRANCH  20  21
ENDBRANCH   1  19
TORSDOF 5
ENDMDL
MODEL 6
REMARK VINA RESULT:   -13.971      2.523      3.160
REMARK INTER + INTRA:         -17.058
REMARK INTER:                 -15.462
REMARK INTRA:                  -1.595
REMARK CONF_INDEPENDENT:        1.492
REMARK UNBOUND:                -1.595
REMARK  5 active torsions:
REMARK  status: ('A' for Active; 'I' for Inactive)
REMARK    1  A    between atoms: C1_2  and  C2_3 
REMARK       I    between atoms: C1_2  and  N2_22 
REMARK    2  A    between atoms: C3_4  and  C4_5 
REMARK    3  A    between atoms: C8_9  and  C9_10 
REMARK    4  A    between atoms: C9_10  and  C10_12 
REMARK    5  A    between atoms: N2_22  and  O3_23 
ROOT
ATOM      1  C4  NON d   1     -42.766  17.886  -4.371  0.00  0.00    -0.035 A 
ATOM      2  C5  NON d   1     -42.244  17.378  -3.176  0.00  0.00     0.011 A 
ATOM      3  C6  NON d   1     -41.116  17.944  -2.595  0.00  0.00     0.002 A 
ATOM      4  C7  NON d   1     -40.486  19.031  -3.197  0.00  0.00     0.015 A 
ATOM      5  C8  NON d   1     -40.964  19.580  -4.386  0.00  0.00     0.017 A 
ATOM      6  C18 NON d   1     -42.114  18.987  -4.962  0.00  0.00     0.027 A 
ENDROOT
BRANCH   5   7
ATOM      7  C9  NON d   1     -40.337  20.755  -5.094  0.00  0.00     0.208 C 
ATOM      8  O2  NON d   1     -39.605  20.489  -6.048  0.00  0.00    -0.285 OA
BRANCH   7   9
ATOM      9  C10 NON d   1     -40.532  22.161  -4.736  0.00  0.00     0.085 A 
ATOM     10  C11 NON d   1     -41.123  22.859  -3.696  0.00  0.00     0.047 A 
ATOM     11  C12 NON d   1     -40.984  24.257  -3.921  0.00  0.00    -0.007 A 
ATOM     12  C13 NON d   1     -41.381  25.401  -3.203  0.00  0.00     0.014 A 
ATOM     13  C17 NON d   1     -40.302  24.410  -5.119  0.00  0.00     0.043 A 
ATOM     14  C14 NON d   1     -41.080  26.665  -3.717  0.00  0.00     0.001 A 
ATOM     15  C15 NON d   1     -40.396  26.793  -4.925  0.00  0.00     0.002 A 
ATOM     16  C16 NON d   1     -39.993  25.666  -5.652  0.00  0.00     0.030 A 
ATOM     17  N1  NON d   1     -40.044  23.144  -5.588  0.00  0.00    -0.352 N 
ATOM     18  H11 NON d   1     -39.558  22.931  -6.450  0.00  0.00     0.166 HD
ENDBRANCH   7   9
ENDBRANCH   5   7
BRANCH   1  19
ATOM     19  C3  NON d   1     -43.962  17.307  -5.019  0.00  0.00     0.017 C 
ATOM     20  C2  NON d   1     -45.171  17.893  -5.060  0.00  0.00     0.077 C 
BRANCH  20  21
ATOM     21  C1  NON d   1     -46.333  17.251  -5.732  0.00  0.00     0.264 C 
ATOM     22  O1  NON d   1     -47.179  17.899  -6.333  0.00  0.00    -0.266 OA
ATOM     23  N2  NON d   1     -46.311  15.884  -5.578  0.00  0.00    -0.234 N 
ATOM     24  H13 NON d   1     -45.592  15.378  -5.077  0.00  0.00     0.197 HD
BRANCH  23  25
ATOM     25  O3  NON d   1     -47.360  15.154  -6.168  0.00  0.00    -0.287 OA
ATOM     26  H14 NON d   1     -47.744  15.773  -6.812  0.00  0.00     0.244 HD
ENDBRANCH  23  25
ENDBRANCH  20  21
ENDBRANCH   1  19
TORSDOF 5
ENDMDL
MODEL 7
REMARK VINA RESULT:   -13.035      1.944      2.235
REMARK INTER + INTRA:         -15.852
REMARK INTER:                 -14.527
REMARK INTRA:                  -1.325
REMARK CONF_INDEPENDENT:        1.492
REMARK UNBOUND:                -1.325
REMARK  5 active torsions:
REMARK  status: ('A' for Active; 'I' for Inactive)
REMARK    1  A    between atoms: C1_2  and  C2_3 
REMARK       I    between atoms: C1_2  and  N2_22 
REMARK    2  A    between atoms: C3_4  and  C4_5 
REMARK    3  A    between atoms: C8_9  and  C9_10 
REMARK    4  A    between atoms: C9_10  and  C10_12 
REMARK    5  A    between atoms: N2_22  and  O3_23 
ROOT
ATOM      1  C4  NON d   1     -42.752  17.756  -4.672  0.00  0.00    -0.035 A 
ATOM      2  C5  NON d   1     -41.760  17.920  -5.645  0.00  0.00     0.011 A 
ATOM      3  C6  NON d   1     -40.522  18.457  -5.317  0.00  0.00     0.002 A 
ATOM      4  C7  NON d   1     -40.249  18.843  -4.006  0.00  0.00     0.015 A 
ATOM      5  C8  NON d   1     -41.199  18.700  -2.994  0.00  0.00     0.017 A 
ATOM      6  C18 NON d   1     -42.454  18.151  -3.351  0.00  0.00     0.027 A 
ENDROOT
BRANCH   5   7
ATOM      7  C9  NON d   1     -40.976  19.092  -1.556  0.00  0.00     0.208 C 
ATOM      8  O2  NON d   1     -41.511  18.378  -0.706  0.00  0.00    -0.285 OA
BRANCH   7   9
ATOM      9  C10 NON d   1     -40.184  20.237  -1.103  0.00  0.00     0.085 A 
ATOM     10  C11 NON d   1     -39.173  21.027  -1.625  0.00  0.00     0.047 A 
ATOM     11  C12 NON d   1     -38.803  22.017  -0.673  0.00  0.00    -0.007 A 
ATOM     12  C13 NON d   1     -37.857  23.061  -0.673  0.00  0.00     0.014 A 
ATOM     13  C17 NON d   1     -39.598  21.821   0.448  0.00  0.00     0.043 A 
ATOM     14  C14 NON d   1     -37.742  23.874   0.457  0.00  0.00     0.001 A 
ATOM     15  C15 NON d   1     -38.551  23.656   1.571  0.00  0.00     0.002 A 
ATOM     16  C16 NON d   1     -39.497  22.623   1.590  0.00  0.00     0.030 A 
ATOM     17  N1  NON d   1     -40.414  20.752   0.167  0.00  0.00    -0.352 N 
ATOM     18  H11 NON d   1     -41.107  20.369   0.797  0.00  0.00     0.166 HD
ENDBRANCH   7   9
ENDBRANCH   5   7
BRANCH   1  19
ATOM     19  C3  NON d   1     -44.081  17.190  -4.986  0.00  0.00     0.017 C 
ATOM     20  C2  NON d   1     -45.107  17.887  -5.505  0.00  0.00     0.077 C 
BRANCH  20  21
ATOM     21  C1  NON d   1     -46.421  17.251  -5.797  0.00  0.00     0.264 C 
ATOM     22  O1  NON d   1     -47.385  17.896  -6.184  0.00  0.00    -0.266 OA
ATOM     23  N2  NON d   1     -46.384  15.894  -5.572  0.00  0.00    -0.234 N 
ATOM     24  H13 NON d   1     -45.565  15.391  -5.255  0.00  0.00     0.197 HD
BRANCH  23  25
ATOM     25  O3  NON d   1     -47.568  15.171  -5.811  0.00  0.00    -0.287 OA
ATOM     26  H14 NON d   1     -47.951  15.599  -6.596  0.00  0.00     0.244 HD
ENDBRANCH  23  25
ENDBRANCH  20  21
ENDBRANCH   1  19
TORSDOF 5
ENDMDL
MODEL 8
REMARK VINA RESULT:   -13.001      3.353      4.212
REMARK INTER + INTRA:         -15.810
REMARK INTER:                 -14.492
REMARK INTRA:                  -1.318
REMARK CONF_INDEPENDENT:        1.492
REMARK UNBOUND:                -1.318
REMARK  5 active torsions:
REMARK  status: ('A' for Active; 'I' for Inactive)
REMARK    1  A    between atoms: C1_2  and  C2_3 
REMARK       I    between atoms: C1_2  and  N2_22 
REMARK    2  A    between atoms: C3_4  and  C4_5 
REMARK    3  A    between atoms: C8_9  and  C9_10 
REMARK    4  A    between atoms: C9_10  and  C10_12 
REMARK    5  A    between atoms: N2_22  and  O3_23 
ROOT
ATOM      1  C4  NON d   1     -42.775  17.476  -4.332  0.00  0.00    -0.035 A 
ATOM      2  C5  NON d   1     -42.510  17.639  -2.968  0.00  0.00     0.011 A 
ATOM      3  C6  NON d   1     -41.440  18.413  -2.538  0.00  0.00     0.002 A 
ATOM      4  C7  NON d   1     -40.611  19.042  -3.465  0.00  0.00     0.015 A 
ATOM      5  C8  NON d   1     -40.829  18.916  -4.837  0.00  0.00     0.017 A 
ATOM      6  C18 NON d   1     -41.925  18.122  -5.253  0.00  0.00     0.027 A 
ENDROOT
BRANCH   5   7
ATOM      7  C9  NON d   1     -39.977  19.567  -5.897  0.00  0.00     0.208 C 
ATOM      8  O2  NON d   1     -39.228  18.820  -6.529  0.00  0.00    -0.285 OA
BRANCH   7   9
ATOM      9  C10 NON d   1     -39.976  20.993  -6.225  0.00  0.00     0.085 A 
ATOM     10  C11 NON d   1     -39.897  21.758  -7.378  0.00  0.00     0.047 A 
ATOM     11  C12 NON d   1     -39.948  23.138  -7.038  0.00  0.00    -0.007 A 
ATOM     12  C13 NON d   1     -39.912  24.327  -7.792  0.00  0.00     0.014 A 
ATOM     13  C17 NON d   1     -40.054  23.213  -5.657  0.00  0.00     0.043 A 
ATOM     14  C14 NON d   1     -39.983  25.555  -7.130  0.00  0.00     0.001 A 
ATOM     15  C15 NON d   1     -40.088  25.604  -5.741  0.00  0.00     0.002 A 
ATOM     16  C16 NON d   1     -40.125  24.433  -4.974  0.00  0.00     0.030 A 
ATOM     17  N1  NON d   1     -40.068  21.920  -5.194  0.00  0.00    -0.352 N 
ATOM     18  H11 NON d   1     -40.136  21.651  -4.221  0.00  0.00     0.166 HD
ENDBRANCH   7   9
ENDBRANCH   5   7
BRANCH   1  19
ATOM     19  C3  NON d   1     -43.903  16.657  -4.824  0.00  0.00     0.017 C 
ATOM     20  C2  NON d   1     -45.059  17.151  -5.302  0.00  0.00     0.077 C 
BRANCH  20  21
ATOM     21  C1  NON d   1     -46.153  16.265  -5.782  0.00  0.00     0.264 C 
ATOM     22  O1  NON d   1     -45.940  15.137  -6.206  0.00  0.00    -0.266 OA
ATOM     23  N2  NON d   1     -47.380  16.880  -5.682  0.00  0.00    -0.234 N 
ATOM     24  H13 NON d   1     -47.521  17.816  -5.322  0.00  0.00     0.197 HD
BRANCH  23  25
ATOM     25  O3  NON d   1     -48.503  16.146  -6.106  0.00  0.00    -0.287 OA
ATOM     26  H14 NON d   1     -48.135  15.286  -6.374  0.00  0.00     0.244 HD
ENDBRANCH  23  25
ENDBRANCH  20  21
ENDBRANCH   1  19
TORSDOF 5
ENDMDL
MODEL 9
REMARK VINA RESULT:   -12.148      4.669      8.114
REMARK INTER + INTRA:         -14.800
REMARK INTER:                 -13.639
REMARK INTRA:                  -1.161
REMARK CONF_INDEPENDENT:        1.492
REMARK UNBOUND:                -1.161
REMARK  5 active torsions:
REMARK  status: ('A' for Active; 'I' for Inactive)
REMARK    1  A    between atoms: C1_2  and  C2_3 
REMARK       I    between atoms: C1_2  and  N2_22 
REMARK    2  A    between atoms: C3_4  and  C4_5 
REMARK    3  A    between atoms: C8_9  and  C9_10 
REMARK    4  A    between atoms: C9_10  and  C10_12 
REMARK    5  A    between atoms: N2_22  and  O3_23 
ROOT
ATOM      1  C4  NON d   1     -50.087  16.370  -2.961  0.00  0.00    -0.035 A 
ATOM      2  C5  NON d   1     -49.984  15.000  -2.693  0.00  0.00     0.011 A 
ATOM      3  C6  NON d   1     -48.920  14.256  -3.185  0.00  0.00     0.002 A 
ATOM      4  C7  NON d   1     -47.933  14.866  -3.957  0.00  0.00     0.015 A 
ATOM      5  C8  NON d   1     -47.983  16.228  -4.254  0.00  0.00     0.017 A 
ATOM      6  C18 NON d   1     -49.077  16.968  -3.743  0.00  0.00     0.027 A 
ENDROOT
BRANCH   5   7
ATOM      7  C9  NON d   1     -46.953  16.957  -5.080  0.00  0.00     0.208 C 
ATOM      8  O2  NON d   1     -47.324  17.356  -6.185  0.00  0.00    -0.285 OA
BRANCH   7   9
ATOM      9  C10 NON d   1     -45.573  17.221  -4.672  0.00  0.00     0.085 A 
ATOM     10  C11 NON d   1     -44.659  16.654  -3.798  0.00  0.00     0.047 A 
ATOM     11  C12 NON d   1     -43.440  17.385  -3.844  0.00  0.00    -0.007 A 
ATOM     12  C13 NON d   1     -42.202  17.254  -3.185  0.00  0.00     0.014 A 
ATOM     13  C17 NON d   1     -43.617  18.415  -4.756  0.00  0.00     0.043 A 
ATOM     14  C14 NON d   1     -41.182  18.167  -3.466  0.00  0.00     0.001 A 
ATOM     15  C15 NON d   1     -41.385  19.194  -4.385  0.00  0.00     0.002 A 
ATOM     16  C16 NON d   1     -42.609  19.341  -5.050  0.00  0.00     0.030 A 
ATOM     17  N1  NON d   1     -44.899  18.297  -5.237  0.00  0.00    -0.352 N 
ATOM     18  H11 NON d   1     -45.323  18.910  -5.921  0.00  0.00     0.166 HD
ENDBRANCH   7   9
ENDBRANCH   5   7
BRANCH   1  19
ATOM     19  C3  NON d   1     -51.207  17.191  -2.457  0.00  0.00     0.017 C 
ATOM     20  C2  NON d   1     -52.420  16.714  -2.125  0.00  0.00     0.077 C 
BRANCH  20  21
ATOM     21  C1  NON d   1     -53.503  17.603  -1.623  0.00  0.00     0.264 C 
ATOM     22  O1  NON d   1     -53.283  18.525  -0.849  0.00  0.00    -0.266 OA
ATOM     23  N2  NON d   1     -54.728  17.242  -2.135  0.00  0.00    -0.234 N 
ATOM     24  H13 NON d   1     -54.873  16.474  -2.778  0.00  0.00     0.197 HD
BRANCH  23  25
ATOM     25  O3  NON d   1     -55.841  18.006  -1.736  0.00  0.00    -0.287 OA
ATOM     26  H14 NON d   1     -55.790  18.006  -0.765  0.00  0.00     0.244 HD
ENDBRANCH  23  25
ENDBRANCH  20  21
ENDBRANCH   1  19
TORSDOF 5
ENDMDL
