MODEL 1
REMARK VINA RESULT:   -24.364      0.000      0.000
REMARK INTER + INTRA:         -28.516
REMARK INTER:                 -26.751
REMARK INTRA:                  -1.765
REMARK CONF_INDEPENDENT:        2.386
REMARK UNBOUND:                -1.765
REMARK  8 active torsions:
REMARK  status: ('A' for Active; 'I' for Inactive)
REMARK    1  A    between atoms: C2_2  and  P1_3 
REMARK    2  A    between atoms: P1_3  and  C3_5 
REMARK    3  A    between atoms: P1_3  and  C5_7 
REMARK    4  A    between atoms: C5_7  and  C6_8 
REMARK    5  A    between atoms: C9_11  and  C10_12 
REMARK       I    between atoms: C10_12  and  N1_14 
REMARK    6  A    between atoms: N1_14  and  C11_15 
REMARK    7  A    between atoms: C13_17  and  C14_18 
REMARK    8  A    between atoms: C20_25  and  N2_26 
ROOT
ATOM      1  C10 NON d   1     -45.051  17.524  -4.576  0.00  0.00     0.256 C 
ATOM      2  O2  NON d   1     -45.362  17.196  -5.721  0.00  0.00    -0.267 OA
ATOM      3  N1  NON d   1     -45.883  17.402  -3.473  0.00  0.00    -0.321 N 
ATOM      4  H15 NON d   1     -45.463  17.514  -2.561  0.00  0.00     0.169 HD
ENDROOT
BRANCH   3   5
ATOM      5  C11 NON d   1     -47.279  17.040  -3.487  0.00  0.00     0.057 A 
ATOM      6  C12 NON d   1     -48.047  17.438  -2.362  0.00  0.00     0.044 A 
ATOM      7  C13 NON d   1     -49.429  17.153  -2.236  0.00  0.00    -0.017 A 
ATOM      8  C18 NON d   1     -50.041  16.468  -3.292  0.00  0.00     0.014 A 
ATOM      9  C19 NON d   1     -49.315  16.100  -4.422  0.00  0.00     0.026 A 
ATOM     10  C20 NON d   1     -47.940  16.344  -4.531  0.00  0.00     0.033 A 
BRANCH   7  11
ATOM     11  C14 NON d   1     -50.210  17.582  -1.040  0.00  0.00     0.015 A 
ATOM     12  C15 NON d   1     -49.765  18.006   0.203  0.00  0.00     0.020 A 
ATOM     13  C16 NON d   1     -50.822  18.358   1.098  0.00  0.00     0.008 A 
ATOM     14  C17 NON d   1     -52.058  18.192   0.529  0.00  0.00     0.050 A 
ATOM     15  S1  NON d   1     -51.943  17.610  -1.067  0.00  0.00    -0.101 SA
ENDBRANCH   7  11
BRANCH  10  16
ATOM     16  N2  NON d   1     -47.382  16.130  -5.811  0.00  0.00    -0.301 NA
ATOM     17  H22 NON d   1     -47.014  17.013  -6.186  0.00  0.00     0.124 HD
ATOM     18  H23 NON d   1     -46.638  15.442  -5.806  0.00  0.00     0.124 HD
ENDBRANCH  10  16
ENDBRANCH   3   5
BRANCH   1  19
ATOM     19  C9  NON d   1     -43.668  18.080  -4.406  0.00  0.00     0.032 A 
ATOM     20  C8  NON d   1     -42.656  17.563  -3.589  0.00  0.00     0.017 A 
ATOM     21  C7  NON d   1     -41.316  18.039  -3.706  0.00  0.00     0.008 A 
ATOM     22  C6  NON d   1     -40.967  19.046  -4.629  0.00  0.00    -0.051 A 
ATOM     23  C22 NON d   1     -42.032  19.619  -5.349  0.00  0.00     0.008 A 
ATOM     24  C21 NON d   1     -43.342  19.137  -5.259  0.00  0.00     0.017 A 
BRANCH  22  25
ATOM     25  C5  NON d   1     -39.444  19.423  -4.959  0.00  0.00     0.112 C 
BRANCH  25  26
ATOM     26  P1  NON d   1     -38.859  19.597  -6.373  0.00  0.00     0.082 P 
ATOM     27  O1  NON d   1     -39.628  18.380  -6.890  0.00  0.00    -0.322 OA
BRANCH  26  28
ATOM     28  C2  NON d   1     -38.274  19.771  -7.787  0.00  0.00     0.069 C 
ATOM     29  C1  NON d   1     -37.523  18.606  -8.458  0.00  0.00     0.013 C 
ENDBRANCH  26  28
BRANCH  26  30
ATOM     30  C3  NON d   1     -39.382  21.045  -6.411  0.00  0.00     0.069 C 
ATOM     31  C4  NON d   1     -40.093  21.573  -7.672  0.00  0.00     0.013 C 
ENDBRANCH  26  30
ENDBRANCH  25  26
ENDBRANCH  22  25
ENDBRANCH   1  19
TORSDOF 8
ENDMDL
MODEL 2
REMARK VINA RESULT:   -23.819      2.375      3.141
REMARK INTER + INTRA:         -27.970
REMARK INTER:                 -26.205
REMARK INTRA:                  -1.766
REMARK CONF_INDEPENDENT:        2.386
REMARK UNBOUND:                -1.766
REMARK  8 active torsions:
REMARK  status: ('A' for Active; 'I' for Inactive)
REMARK    1  A    between atoms: C2_2  and  P1_3 
REMARK    2  A    between atoms: P1_3  and  C3_5 
REMARK    3  A    between atoms: P1_3  and  C5_7 
REMARK    4  A    between atoms: C5_7  and  C6_8 
REMARK    5  A    between atoms: C9_11  and  C10_12 
REMARK       I    between atoms: C10_12  and  N1_14 
REMARK    6  A    between atoms: N1_14  and  C11_15 
REMARK    7  A    between atoms: C13_17  and  C14_18 
REMARK    8  A    between atoms: C20_25  and  N2_26 
ROOT
ATOM      1  C10 NON d   1     -44.998  17.444  -4.498  0.00  0.00     0.256 C 
ATOM      2  O2  NON d   1     -45.318  17.238  -5.668  0.00  0.00    -0.267 OA
ATOM      3  N1  NON d   1     -45.841  17.261  -3.411  0.00  0.00    -0.321 N 
ATOM      4  H15 NON d   1     -45.420  17.269  -2.493  0.00  0.00     0.169 HD
ENDROOT
BRANCH   3   5
ATOM      5  C11 NON d   1     -47.252  16.968  -3.460  0.00  0.00     0.057 A 
ATOM      6  C12 NON d   1     -48.021  17.373  -2.338  0.00  0.00     0.044 A 
ATOM      7  C13 NON d   1     -49.418  17.153  -2.243  0.00  0.00    -0.017 A 
ATOM      8  C18 NON d   1     -50.042  16.529  -3.329  0.00  0.00     0.014 A 
ATOM      9  C19 NON d   1     -49.314  16.156  -4.457  0.00  0.00     0.026 A 
ATOM     10  C20 NON d   1     -47.927  16.335  -4.535  0.00  0.00     0.033 A 
BRANCH   7  11
ATOM     11  C14 NON d   1     -50.199  17.587  -1.050  0.00  0.00     0.015 A 
ATOM     12  C15 NON d   1     -49.754  18.010   0.194  0.00  0.00     0.020 A 
ATOM     13  C16 NON d   1     -50.812  18.368   1.086  0.00  0.00     0.008 A 
ATOM     14  C17 NON d   1     -52.047  18.206   0.515  0.00  0.00     0.050 A 
ATOM     15  S1  NON d   1     -51.931  17.622  -1.081  0.00  0.00    -0.101 SA
ENDBRANCH   7  11
BRANCH  10  16
ATOM     16  N2  NON d   1     -47.356  16.130  -5.810  0.00  0.00    -0.301 NA
ATOM     17  H22 NON d   1     -47.295  17.021  -6.316  0.00  0.00     0.124 HD
ATOM     18  H23 NON d   1     -46.432  15.715  -5.766  0.00  0.00     0.124 HD
ENDBRANCH  10  16
ENDBRANCH   3   5
BRANCH   1  19
ATOM     19  C9  NON d   1     -43.591  17.915  -4.276  0.00  0.00     0.032 A 
ATOM     20  C8  NON d   1     -42.877  18.815  -5.076  0.00  0.00     0.017 A 
ATOM     21  C7  NON d   1     -41.643  19.368  -4.621  0.00  0.00     0.008 A 
ATOM     22  C6  NON d   1     -41.096  19.023  -3.369  0.00  0.00    -0.051 A 
ATOM     23  C22 NON d   1     -41.785  18.031  -2.646  0.00  0.00     0.008 A 
ATOM     24  C21 NON d   1     -43.009  17.507  -3.074  0.00  0.00     0.017 A 
BRANCH  22  25
ATOM     25  C5  NON d   1     -39.853  19.806  -2.725  0.00  0.00     0.112 C 
BRANCH  25  26
ATOM     26  P1  NON d   1     -39.943  21.144  -1.968  0.00  0.00     0.082 P 
ATOM     27  O1  NON d   1     -38.476  21.057  -1.544  0.00  0.00    -0.322 OA
BRANCH  26  28
ATOM     28  C2  NON d   1     -40.034  22.482  -1.210  0.00  0.00     0.069 C 
ATOM     29  C1  NON d   1     -39.544  22.576   0.247  0.00  0.00     0.013 C 
ENDBRANCH  26  28
BRANCH  26  30
ATOM     30  C3  NON d   1     -40.445  21.836  -3.249  0.00  0.00     0.069 C 
ATOM     31  C4  NON d   1     -41.195  23.178  -3.157  0.00  0.00     0.013 C 
ENDBRANCH  26  30
ENDBRANCH  25  26
ENDBRANCH  22  25
ENDBRANCH   1  19
TORSDOF 8
ENDMDL
MODEL 3
REMARK VINA RESULT:   -23.407      1.587      2.277
REMARK INTER + INTRA:         -27.800
REMARK INTER:                 -25.793
REMARK INTRA:                  -2.007
REMARK CONF_INDEPENDENT:        2.386
REMARK UNBOUND:                -2.007
REMARK  8 active torsions:
REMARK  status: ('A' for Active; 'I' for Inactive)
REMARK    1  A    between atoms: C2_2  and  P1_3 
REMARK    2  A    between atoms: P1_3  and  C3_5 
REMARK    3  A    between atoms: P1_3  and  C5_7 
REMARK    4  A    between atoms: C5_7  and  C6_8 
REMARK    5  A    between atoms: C9_11  and  C10_12 
REMARK       I    between atoms: C10_12  and  N1_14 
REMARK    6  A    between atoms: N1_14  and  C11_15 
REMARK    7  A    between atoms: C13_17  and  C14_18 
REMARK    8  A    between atoms: C20_25  and  N2_26 
ROOT
ATOM      1  C10 NON d   1     -45.053  17.618  -4.531  0.00  0.00     0.256 C 
ATOM      2  O2  NON d   1     -45.396  17.476  -5.705  0.00  0.00    -0.267 OA
ATOM      3  N1  NON d   1     -45.864  17.342  -3.440  0.00  0.00    -0.321 N 
ATOM      4  H15 NON d   1     -45.422  17.305  -2.533  0.00  0.00     0.169 HD
ENDROOT
BRANCH   3   5
ATOM      5  C11 NON d   1     -47.267  17.011  -3.475  0.00  0.00     0.057 A 
ATOM      6  C12 NON d   1     -48.041  17.414  -2.355  0.00  0.00     0.044 A 
ATOM      7  C13 NON d   1     -49.430  17.157  -2.249  0.00  0.00    -0.017 A 
ATOM      8  C18 NON d   1     -50.043  16.498  -3.320  0.00  0.00     0.014 A 
ATOM      9  C19 NON d   1     -49.312  16.127  -4.445  0.00  0.00     0.026 A 
ATOM     10  C20 NON d   1     -47.931  16.342  -4.535  0.00  0.00     0.033 A 
BRANCH   7  11
ATOM     11  C14 NON d   1     -50.216  17.590  -1.058  0.00  0.00     0.015 A 
ATOM     12  C15 NON d   1     -49.777  18.007   0.190  0.00  0.00     0.020 A 
ATOM     13  C16 NON d   1     -50.838  18.366   1.078  0.00  0.00     0.008 A 
ATOM     14  C17 NON d   1     -52.071  18.210   0.499  0.00  0.00     0.050 A 
ATOM     15  S1  NON d   1     -51.948  17.631  -1.098  0.00  0.00    -0.101 SA
ENDBRANCH   7  11
BRANCH  10  16
ATOM     16  N2  NON d   1     -47.361  16.130  -5.810  0.00  0.00    -0.301 NA
ATOM     17  H22 NON d   1     -47.391  16.999  -6.357  0.00  0.00     0.124 HD
ATOM     18  H23 NON d   1     -46.402  15.805  -5.765  0.00  0.00     0.124 HD
ENDBRANCH  10  16
ENDBRANCH   3   5
BRANCH   1  19
ATOM     19  C9  NON d   1     -43.655  18.117  -4.312  0.00  0.00     0.032 A 
ATOM     20  C8  NON d   1     -42.735  17.633  -3.375  0.00  0.00     0.017 A 
ATOM     21  C7  NON d   1     -41.365  18.026  -3.436  0.00  0.00     0.008 A 
ATOM     22  C6  NON d   1     -40.894  18.916  -4.422  0.00  0.00    -0.051 A 
ATOM     23  C22 NON d   1     -41.871  19.468  -5.273  0.00  0.00     0.008 A 
ATOM     24  C21 NON d   1     -43.210  19.065  -5.236  0.00  0.00     0.017 A 
BRANCH  22  25
ATOM     25  C5  NON d   1     -39.332  19.181  -4.671  0.00  0.00     0.112 C 
BRANCH  25  26
ATOM     26  P1  NON d   1     -38.297  19.481  -3.572  0.00  0.00     0.082 P 
ATOM     27  O1  NON d   1     -37.181  19.652  -4.605  0.00  0.00    -0.322 OA
BRANCH  26  28
ATOM     28  C2  NON d   1     -37.261  19.781  -2.472  0.00  0.00     0.069 C 
ATOM     29  C1  NON d   1     -36.410  18.640  -1.884  0.00  0.00     0.013 C 
ENDBRANCH  26  28
BRANCH  26  30
ATOM     30  C3  NON d   1     -39.186  20.623  -3.047  0.00  0.00     0.069 C 
ATOM     31  C4  NON d   1     -39.594  20.661  -1.562  0.00  0.00     0.013 C 
ENDBRANCH  26  30
ENDBRANCH  25  26
ENDBRANCH  22  25
ENDBRANCH   1  19
TORSDOF 8
ENDMDL
