MODEL 1
REMARK VINA RESULT:   -27.766      0.000      0.000
REMARK INTER + INTRA:         -29.038
REMARK INTER:                 -28.661
REMARK INTRA:                  -0.377
REMARK CONF_INDEPENDENT:        0.895
REMARK UNBOUND:                -0.377
REMARK  3 active torsions:
REMARK  status: ('A' for Active; 'I' for Inactive)
REMARK    1  A    between atoms: C1_2  and  C2_3 
REMARK    2  A    between atoms: C1_2  and  C14_18 
REMARK    3  A    between atoms: C5_6  and  C6_7 
ROOT
ATOM      1  C2  NON d   1     -40.152  18.976  -3.022  0.00  0.00     0.060 A 
ATOM      2  C3  NON d   1     -40.737  18.500  -1.867  0.00  0.00     0.024 A 
ATOM      3  C4  NON d   1     -42.066  18.032  -2.080  0.00  0.00     0.021 A 
ATOM      4  C5  NON d   1     -42.484  18.151  -3.397  0.00  0.00     0.016 A 
ATOM      5  S1  NON d   1     -41.215  18.825  -4.343  0.00  0.00    -0.086 SA
ENDROOT
BRANCH   4   6
ATOM      6  C6  NON d   1     -43.790  17.791  -4.000  0.00  0.00    -0.017 A 
ATOM      7  C7  NON d   1     -44.184  18.358  -5.219  0.00  0.00     0.015 A 
ATOM      8  C8  NON d   1     -45.407  18.021  -5.808  0.00  0.00     0.035 A 
ATOM      9  C9  NON d   1     -46.269  17.119  -5.210  0.00  0.00     0.085 A 
ATOM     10  N1  NON d   1     -47.434  16.816  -5.810  0.00  0.00    -0.257 NA
ATOM     11  C12 NON d   1     -45.898  16.533  -3.978  0.00  0.00     0.086 A 
ATOM     12  C10 NON d   1     -48.224  15.927  -5.171  0.00  0.00     0.136 A 
ATOM     13  C11 NON d   1     -47.867  15.355  -3.969  0.00  0.00     0.136 A 
ATOM     14  N2  NON d   1     -46.701  15.648  -3.354  0.00  0.00    -0.257 NA
ATOM     15  C13 NON d   1     -44.679  16.880  -3.403  0.00  0.00     0.046 A 
ENDBRANCH   4   6
BRANCH   1  16
ATOM     16  C1  NON d   1     -38.807  19.537  -3.141  0.00  0.00     0.272 C 
ATOM     17  O1  NON d   1     -38.650  20.747  -3.348  0.00  0.00    -0.282 OA
BRANCH  16  18
ATOM     18  C14 NON d   1     -37.603  18.599  -3.005  0.00  0.00     0.456 C 
ATOM     19  F1  NON d   1     -36.529  19.201  -2.420  0.00  0.00    -0.163 F 
ATOM     20  F2  NON d   1     -37.158  18.136  -4.209  0.00  0.00    -0.163 F 
ATOM     21  F3  NON d   1     -37.878  17.488  -2.264  0.00  0.00    -0.163 F 
ENDBRANCH  16  18
ENDBRANCH   1  16
TORSDOF 3
ENDMDL
MODEL 2
REMARK VINA RESULT:   -27.706      1.349      1.623
REMARK INTER + INTRA:         -28.983
REMARK INTER:                 -28.601
REMARK INTRA:                  -0.383
REMARK CONF_INDEPENDENT:        0.895
REMARK UNBOUND:                -0.383
REMARK  3 active torsions:
REMARK  status: ('A' for Active; 'I' for Inactive)
REMARK    1  A    between atoms: C1_2  and  C2_3 
REMARK    2  A    between atoms: C1_2  and  C14_18 
REMARK    3  A    between atoms: C5_6  and  C6_7 
ROOT
ATOM      1  C2  NON d   1     -40.127  18.967  -3.064  0.00  0.00     0.060 A 
ATOM      2  C3  NON d   1     -40.701  18.475  -1.910  0.00  0.00     0.024 A 
ATOM      3  C4  NON d   1     -42.033  18.013  -2.116  0.00  0.00     0.021 A 
ATOM      4  C5  NON d   1     -42.464  18.151  -3.427  0.00  0.00     0.016 A 
ATOM      5  S1  NON d   1     -41.203  18.836  -4.377  0.00  0.00    -0.086 SA
ENDROOT
BRANCH   4   6
ATOM      6  C6  NON d   1     -43.776  17.801  -4.023  0.00  0.00    -0.017 A 
ATOM      7  C7  NON d   1     -44.183  18.388  -5.228  0.00  0.00     0.015 A 
ATOM      8  C8  NON d   1     -45.412  18.061  -5.810  0.00  0.00     0.035 A 
ATOM      9  C9  NON d   1     -46.268  17.149  -5.217  0.00  0.00     0.085 A 
ATOM     10  N1  NON d   1     -47.439  16.857  -5.810  0.00  0.00    -0.257 NA
ATOM     11  C12 NON d   1     -45.884  16.544  -3.999  0.00  0.00     0.086 A 
ATOM     12  C10 NON d   1     -48.224  15.958  -5.178  0.00  0.00     0.136 A 
ATOM     13  C11 NON d   1     -47.854  15.366  -3.989  0.00  0.00     0.136 A 
ATOM     14  N2  NON d   1     -46.682  15.649  -3.381  0.00  0.00    -0.257 NA
ATOM     15  C13 NON d   1     -44.659  16.880  -3.431  0.00  0.00     0.046 A 
ENDBRANCH   4   6
BRANCH   1  16
ATOM     16  C1  NON d   1     -38.782  19.528  -3.188  0.00  0.00     0.272 C 
ATOM     17  O1  NON d   1     -37.869  18.857  -3.685  0.00  0.00    -0.282 OA
BRANCH  16  18
ATOM     18  C14 NON d   1     -38.530  20.955  -2.691  0.00  0.00     0.456 C 
ATOM     19  F1  NON d   1     -38.276  21.829  -3.705  0.00  0.00    -0.163 F 
ATOM     20  F2  NON d   1     -37.457  21.038  -1.852  0.00  0.00    -0.163 F 
ATOM     21  F3  NON d   1     -39.583  21.466  -1.991  0.00  0.00    -0.163 F 
ENDBRANCH  16  18
ENDBRANCH   1  16
TORSDOF 3
ENDMDL
MODEL 3
REMARK VINA RESULT:   -26.609      8.717     11.264
REMARK INTER + INTRA:         -27.874
REMARK INTER:                 -27.504
REMARK INTRA:                  -0.370
REMARK CONF_INDEPENDENT:        0.895
REMARK UNBOUND:                -0.370
REMARK  3 active torsions:
REMARK  status: ('A' for Active; 'I' for Inactive)
REMARK    1  A    between atoms: C1_2  and  C2_3 
REMARK    2  A    between atoms: C1_2  and  C14_18 
REMARK    3  A    between atoms: C5_6  and  C6_7 
ROOT
ATOM      1  C2  NON d   1     -53.533  17.240  -1.837  0.00  0.00     0.060 A 
ATOM      2  C3  NON d   1     -53.433  16.005  -2.443  0.00  0.00     0.024 A 
ATOM      3  C4  NON d   1     -52.094  15.683  -2.809  0.00  0.00     0.021 A 
ATOM      4  C5  NON d   1     -51.181  16.672  -2.475  0.00  0.00     0.016 A 
ATOM      5  S1  NON d   1     -52.002  17.972  -1.701  0.00  0.00    -0.086 SA
ENDROOT
BRANCH   4   6
ATOM      6  C6  NON d   1     -49.717  16.711  -2.702  0.00  0.00    -0.017 A 
ATOM      7  C7  NON d   1     -48.838  16.856  -1.619  0.00  0.00     0.015 A 
ATOM      8  C8  NON d   1     -47.454  16.882  -1.815  0.00  0.00     0.035 A 
ATOM      9  C9  NON d   1     -46.903  16.767  -3.079  0.00  0.00     0.085 A 
ATOM     10  N1  NON d   1     -45.566  16.791  -3.226  0.00  0.00    -0.257 NA
ATOM     11  C12 NON d   1     -47.766  16.622  -4.189  0.00  0.00     0.086 A 
ATOM     12  C10 NON d   1     -45.099  16.671  -4.487  0.00  0.00     0.136 A 
ATOM     13  C11 NON d   1     -45.937  16.532  -5.572  0.00  0.00     0.136 A 
ATOM     14  N2  NON d   1     -47.281  16.506  -5.442  0.00  0.00    -0.257 NA
ATOM     15  C13 NON d   1     -49.142  16.599  -3.981  0.00  0.00     0.046 A 
ENDBRANCH   4   6
BRANCH   1  16
ATOM     16  C1  NON d   1     -54.763  17.869  -1.358  0.00  0.00     0.272 C 
ATOM     17  O1  NON d   1     -55.743  17.975  -2.107  0.00  0.00    -0.282 OA
BRANCH  16  18
ATOM     18  C14 NON d   1     -54.812  18.390   0.081  0.00  0.00     0.456 C 
ATOM     19  F1  NON d   1     -54.341  19.664   0.197  0.00  0.00    -0.163 F 
ATOM     20  F2  NON d   1     -54.062  17.639   0.939  0.00  0.00    -0.163 F 
ATOM     21  F3  NON d   1     -56.072  18.393   0.602  0.00  0.00    -0.163 F 
ENDBRANCH  16  18
ENDBRANCH   1  16
TORSDOF 3
ENDMDL
MODEL 4
REMARK VINA RESULT:   -26.515      2.324      2.544
REMARK INTER + INTRA:         -27.695
REMARK INTER:                 -27.410
REMARK INTRA:                  -0.285
REMARK CONF_INDEPENDENT:        0.895
REMARK UNBOUND:                -0.285
REMARK  3 active torsions:
REMARK  status: ('A' for Active; 'I' for Inactive)
REMARK    1  A    between atoms: C1_2  and  C2_3 
REMARK    2  A    between atoms: C1_2  and  C14_18 
REMARK    3  A    between atoms: C5_6  and  C6_7 
ROOT
ATOM      1  C2  NON d   1     -40.575  20.081  -3.275  0.00  0.00     0.060 A 
ATOM      2  C3  NON d   1     -40.589  18.973  -2.453  0.00  0.00     0.024 A 
ATOM      3  C4  NON d   1     -41.731  18.148  -2.668  0.00  0.00     0.021 A 
ATOM      4  C5  NON d   1     -42.577  18.629  -3.656  0.00  0.00     0.016 A 
ATOM      5  S1  NON d   1     -41.930  20.085  -4.306  0.00  0.00    -0.086 SA
ENDROOT
BRANCH   4   6
ATOM      6  C6  NON d   1     -43.856  18.065  -4.149  0.00  0.00    -0.017 A 
ATOM      7  C7  NON d   1     -44.375  18.469  -5.387  0.00  0.00     0.015 A 
ATOM      8  C8  NON d   1     -45.574  17.938  -5.872  0.00  0.00     0.035 A 
ATOM      9  C9  NON d   1     -46.290  16.999  -5.150  0.00  0.00     0.085 A 
ATOM     10  N1  NON d   1     -47.436  16.508  -5.654  0.00  0.00    -0.257 NA
ATOM     11  C12 NON d   1     -45.791  16.575  -3.898  0.00  0.00     0.086 A 
ATOM     12  C10 NON d   1     -48.080  15.594  -4.897  0.00  0.00     0.136 A 
ATOM     13  C11 NON d   1     -47.598  15.179  -3.674  0.00  0.00     0.136 A 
ATOM     14  N2  NON d   1     -46.449  15.662  -3.155  0.00  0.00    -0.257 NA
ATOM     15  C13 NON d   1     -44.597  17.113  -3.426  0.00  0.00     0.046 A 
ENDBRANCH   4   6
BRANCH   1  16
ATOM     16  C1  NON d   1     -39.554  21.128  -3.295  0.00  0.00     0.272 C 
ATOM     17  O1  NON d   1     -38.379  20.860  -3.012  0.00  0.00    -0.282 OA
BRANCH  16  18
ATOM     18  C14 NON d   1     -39.969  22.554  -3.672  0.00  0.00     0.456 C 
ATOM     19  F1  NON d   1     -41.309  22.674  -3.886  0.00  0.00    -0.163 F 
ATOM     20  F2  NON d   1     -39.370  22.991  -4.818  0.00  0.00    -0.163 F 
ATOM     21  F3  NON d   1     -39.643  23.470  -2.716  0.00  0.00    -0.163 F 
ENDBRANCH  16  18
ENDBRANCH   1  16
TORSDOF 3
ENDMDL
MODEL 5
REMARK VINA RESULT:   -25.858      3.092      3.730
REMARK INTER + INTRA:         -27.122
REMARK INTER:                 -26.753
REMARK INTRA:                  -0.369
REMARK CONF_INDEPENDENT:        0.895
REMARK UNBOUND:                -0.369
REMARK  3 active torsions:
REMARK  status: ('A' for Active; 'I' for Inactive)
REMARK    1  A    between atoms: C1_2  and  C2_3 
REMARK    2  A    between atoms: C1_2  and  C14_18 
REMARK    3  A    between atoms: C5_6  and  C6_7 
ROOT
ATOM      1  C2  NON d   1     -41.047  19.341  -6.053  0.00  0.00     0.060 A 
ATOM      2  C3  NON d   1     -40.623  18.154  -5.493  0.00  0.00     0.024 A 
ATOM      3  C4  NON d   1     -41.695  17.400  -4.932  0.00  0.00     0.021 A 
ATOM      4  C5  NON d   1     -42.930  18.016  -5.073  0.00  0.00     0.016 A 
ATOM      5  S1  NON d   1     -42.735  19.507  -5.910  0.00  0.00    -0.086 SA
ENDROOT
BRANCH   4   6
ATOM      6  C6  NON d   1     -44.262  17.557  -4.614  0.00  0.00    -0.017 A 
ATOM      7  C7  NON d   1     -44.608  17.638  -3.258  0.00  0.00     0.015 A 
ATOM      8  C8  NON d   1     -45.865  17.220  -2.810  0.00  0.00     0.035 A 
ATOM      9  C9  NON d   1     -46.809  16.713  -3.685  0.00  0.00     0.085 A 
ATOM     10  N1  NON d   1     -48.009  16.326  -3.216  0.00  0.00    -0.257 NA
ATOM     11  C12 NON d   1     -46.486  16.617  -5.058  0.00  0.00     0.086 A 
ATOM     12  C10 NON d   1     -48.882  15.843  -4.126  0.00  0.00     0.136 A 
ATOM     13  C11 NON d   1     -48.570  15.747  -5.465  0.00  0.00     0.136 A 
ATOM     14  N2  NON d   1     -47.370  16.130  -5.952  0.00  0.00    -0.257 NA
ATOM     15  C13 NON d   1     -45.231  17.034  -5.490  0.00  0.00     0.046 A 
ENDBRANCH   4   6
BRANCH   1  16
ATOM     16  C1  NON d   1     -40.198  20.344  -6.694  0.00  0.00     0.272 C 
ATOM     17  O1  NON d   1     -39.547  21.143  -6.008  0.00  0.00    -0.282 OA
BRANCH  16  18
ATOM     18  C14 NON d   1     -40.133  20.385  -8.224  0.00  0.00     0.456 C 
ATOM     19  F1  NON d   1     -39.349  19.399  -8.745  0.00  0.00    -0.163 F 
ATOM     20  F2  NON d   1     -39.619  21.556  -8.698  0.00  0.00    -0.163 F 
ATOM     21  F3  NON d   1     -41.358  20.258  -8.810  0.00  0.00    -0.163 F 
ENDBRANCH  16  18
ENDBRANCH   1  16
TORSDOF 3
ENDMDL
MODEL 6
REMARK VINA RESULT:   -25.417      2.850      3.610
REMARK INTER + INTRA:         -26.687
REMARK INTER:                 -26.312
REMARK INTRA:                  -0.375
REMARK CONF_INDEPENDENT:        0.895
REMARK UNBOUND:                -0.375
REMARK  3 active torsions:
REMARK  status: ('A' for Active; 'I' for Inactive)
REMARK    1  A    between atoms: C1_2  and  C2_3 
REMARK    2  A    between atoms: C1_2  and  C14_18 
REMARK    3  A    between atoms: C5_6  and  C6_7 
ROOT
ATOM      1  C2  NON d   1     -40.402  19.087  -6.290  0.00  0.00     0.060 A 
ATOM      2  C3  NON d   1     -41.274  20.133  -6.510  0.00  0.00     0.024 A 
ATOM      3  C4  NON d   1     -42.583  19.868  -6.013  0.00  0.00     0.021 A 
ATOM      4  C5  NON d   1     -42.700  18.623  -5.414  0.00  0.00     0.016 A 
ATOM      5  S1  NON d   1     -41.180  17.817  -5.466  0.00  0.00    -0.086 SA
ENDROOT
BRANCH   4   6
ATOM      6  C6  NON d   1     -43.890  17.988  -4.799  0.00  0.00    -0.017 A 
ATOM      7  C7  NON d   1     -43.972  17.841  -3.408  0.00  0.00     0.015 A 
ATOM      8  C8  NON d   1     -45.093  17.255  -2.811  0.00  0.00     0.035 A 
ATOM      9  C9  NON d   1     -46.157  16.799  -3.570  0.00  0.00     0.085 A 
ATOM     10  N1  NON d   1     -47.219  16.246  -2.959  0.00  0.00    -0.257 NA
ATOM     11  C12 NON d   1     -46.099  16.932  -4.976  0.00  0.00     0.086 A 
ATOM     12  C10 NON d   1     -48.221  15.826  -3.760  0.00  0.00     0.136 A 
ATOM     13  C11 NON d   1     -48.168  15.952  -5.132  0.00  0.00     0.136 A 
ATOM     14  N2  NON d   1     -47.109  16.505  -5.761  0.00  0.00    -0.257 NA
ATOM     15  C13 NON d   1     -44.977  17.516  -5.557  0.00  0.00     0.046 A 
ENDBRANCH   4   6
BRANCH   1  16
ATOM     16  C1  NON d   1     -38.997  19.037  -6.688  0.00  0.00     0.272 C 
ATOM     17  O1  NON d   1     -38.105  19.017  -5.831  0.00  0.00    -0.282 OA
BRANCH  16  18
ATOM     18  C14 NON d   1     -38.655  19.011  -8.181  0.00  0.00     0.456 C 
ATOM     19  F1  NON d   1     -39.590  18.356  -8.926  0.00  0.00    -0.163 F 
ATOM     20  F2  NON d   1     -37.470  18.384  -8.440  0.00  0.00    -0.163 F 
ATOM     21  F3  NON d   1     -38.533  20.259  -8.719  0.00  0.00    -0.163 F 
ENDBRANCH  16  18
ENDBRANCH   1  16
TORSDOF 3
ENDMDL
