MODEL 1
REMARK VINA RESULT:   -31.200      0.000      0.000
REMARK INTER + INTRA:         -34.423
REMARK INTER:                 -32.990
REMARK INTRA:                  -1.433
REMARK CONF_INDEPENDENT:        1.790
REMARK UNBOUND:                -1.433
REMARK  6 active torsions:
REMARK  status: ('A' for Active; 'I' for Inactive)
REMARK       I    between atoms: C1_2  and  N1_3 
REMARK    1  A    between atoms: C1_2  and  C2_5 
REMARK    2  A    between atoms: N1_3  and  O2_4 
REMARK    3  A    between atoms: C5_8  and  C6_9 
REMARK    4  A    between atoms: C9_12  and  C10_13 
REMARK    5  A    between atoms: C10_13  and  N2_14 
REMARK    6  A    between atoms: N2_14  and  C11_15 
ROOT
ATOM      1  C6  NON d   1     -42.922  18.076  -4.145  0.00  0.00     0.073 A 
ATOM      2  C7  NON d   1     -43.527  16.829  -3.986  0.00  0.00     0.033 A 
ATOM      3  C8  NON d   1     -44.773  16.587  -4.572  0.00  0.00     0.012 A 
ATOM      4  C9  NON d   1     -45.395  17.585  -5.325  0.00  0.00    -0.027 A 
ATOM      5  C17 NON d   1     -44.718  18.798  -5.418  0.00  0.00     0.125 A 
ATOM      6  N3  NON d   1     -43.512  19.060  -4.859  0.00  0.00    -0.259 NA
ENDROOT
BRANCH   1   7
ATOM      7  C5  NON d   1     -41.607  18.382  -3.548  0.00  0.00     0.034 A 
ATOM      8  C4  NON d   1     -40.767  17.559  -2.817  0.00  0.00     0.023 A 
ATOM      9  C3  NON d   1     -39.576  18.208  -2.379  0.00  0.00     0.026 A 
ATOM     10  C2  NON d   1     -39.512  19.530  -2.780  0.00  0.00     0.075 A 
ATOM     11  S1  NON d   1     -40.909  19.955  -3.679  0.00  0.00    -0.083 SA
BRANCH  10  12
ATOM     12  C1  NON d   1     -38.479  20.530  -2.521  0.00  0.00     0.281 C 
ATOM     13  O1  NON d   1     -38.024  21.316  -3.353  0.00  0.00    -0.265 OA
ATOM     14  N1  NON d   1     -38.024  20.557  -1.215  0.00  0.00    -0.233 N 
ATOM     15  H1  NON d   1     -38.285  19.893  -0.497  0.00  0.00     0.197 HD
BRANCH  14  16
ATOM     16  O2  NON d   1     -37.056  21.520  -0.865  0.00  0.00    -0.287 OA
ATOM     17  H2  NON d   1     -36.799  21.891  -1.736  0.00  0.00     0.244 HD
ENDBRANCH  14  16
ENDBRANCH  10  12
ENDBRANCH   1   7
BRANCH   4  18
ATOM     18  C10 NON d   1     -46.741  17.450  -5.995  0.00  0.00     0.132 C 
BRANCH  18  19
ATOM     19  N2  NON d   1     -47.344  16.131  -5.810  0.00  0.00    -0.289 NA
ATOM     20  H9  NON d   1     -47.796  15.784  -6.652  0.00  0.00     0.128 HD
BRANCH  19  21
ATOM     21  C11 NON d   1     -48.158  15.885  -4.697  0.00  0.00     0.008 A 
ATOM     22  C12 NON d   1     -47.942  16.655  -3.542  0.00  0.00     0.023 A 
ATOM     23  C13 NON d   1     -48.740  16.504  -2.403  0.00  0.00     0.002 A 
ATOM     24  C14 NON d   1     -49.786  15.588  -2.406  0.00  0.00     0.000 A 
ATOM     25  C15 NON d   1     -50.041  14.842  -3.551  0.00  0.00     0.002 A 
ATOM     26  C16 NON d   1     -49.246  15.005  -4.692  0.00  0.00     0.023 A 
ENDBRANCH  19  21
ENDBRANCH  18  19
ENDBRANCH   4  18
TORSDOF 6
ENDMDL
MODEL 2
REMARK VINA RESULT:   -30.899      1.174      1.921
REMARK INTER + INTRA:         -33.493
REMARK INTER:                 -32.688
REMARK INTRA:                  -0.804
REMARK CONF_INDEPENDENT:        1.790
REMARK UNBOUND:                -0.804
REMARK  6 active torsions:
REMARK  status: ('A' for Active; 'I' for Inactive)
REMARK       I    between atoms: C1_2  and  N1_3 
REMARK    1  A    between atoms: C1_2  and  C2_5 
REMARK    2  A    between atoms: N1_3  and  O2_4 
REMARK    3  A    between atoms: C5_8  and  C6_9 
REMARK    4  A    between atoms: C9_12  and  C10_13 
REMARK    5  A    between atoms: C10_13  and  N2_14 
REMARK    6  A    between atoms: N2_14  and  C11_15 
ROOT
ATOM      1  C6  NON d   1     -42.812  18.666  -4.662  0.00  0.00     0.073 A 
ATOM      2  C7  NON d   1     -44.032  19.193  -5.087  0.00  0.00     0.033 A 
ATOM      3  C8  NON d   1     -45.105  18.332  -5.338  0.00  0.00     0.012 A 
ATOM      4  C9  NON d   1     -44.956  16.958  -5.146  0.00  0.00    -0.027 A 
ATOM      5  C17 NON d   1     -43.700  16.527  -4.730  0.00  0.00     0.125 A 
ATOM      6  N3  NON d   1     -42.642  17.337  -4.482  0.00  0.00    -0.259 NA
ENDROOT
BRANCH   1   7
ATOM      7  C5  NON d   1     -41.648  19.530  -4.383  0.00  0.00     0.034 A 
ATOM      8  C4  NON d   1     -41.217  20.659  -5.059  0.00  0.00     0.023 A 
ATOM      9  C3  NON d   1     -40.031  21.231  -4.511  0.00  0.00     0.026 A 
ATOM     10  C2  NON d   1     -39.561  20.532  -3.413  0.00  0.00     0.075 A 
ATOM     11  S1  NON d   1     -40.574  19.189  -3.076  0.00  0.00    -0.083 SA
BRANCH  10  12
ATOM     12  C1  NON d   1     -38.380  20.779  -2.592  0.00  0.00     0.281 C 
ATOM     13  O1  NON d   1     -37.388  21.418  -2.944  0.00  0.00    -0.265 OA
ATOM     14  N1  NON d   1     -38.442  20.235  -1.321  0.00  0.00    -0.233 N 
ATOM     15  H1  NON d   1     -39.181  19.630  -0.986  0.00  0.00     0.197 HD
BRANCH  14  16
ATOM     16  O2  NON d   1     -37.362  20.461  -0.444  0.00  0.00    -0.287 OA
ATOM     17  H2  NON d   1     -37.542  19.826   0.283  0.00  0.00     0.244 HD
ENDBRANCH  14  16
ENDBRANCH  10  12
ENDBRANCH   1   7
BRANCH   4  18
ATOM     18  C10 NON d   1     -46.033  15.928  -5.393  0.00  0.00     0.132 C 
BRANCH  18  19
ATOM     19  N2  NON d   1     -47.376  16.505  -5.437  0.00  0.00    -0.289 NA
ATOM     20  H9  NON d   1     -47.368  17.508  -5.605  0.00  0.00     0.128 HD
BRANCH  19  21
ATOM     21  C11 NON d   1     -48.301  16.198  -4.430  0.00  0.00     0.008 A 
ATOM     22  C12 NON d   1     -49.094  15.051  -4.593  0.00  0.00     0.023 A 
ATOM     23  C13 NON d   1     -50.009  14.649  -3.615  0.00  0.00     0.002 A 
ATOM     24  C14 NON d   1     -50.134  15.383  -2.440  0.00  0.00     0.000 A 
ATOM     25  C15 NON d   1     -49.332  16.501  -2.241  0.00  0.00     0.002 A 
ATOM     26  C16 NON d   1     -48.410  16.893  -3.220  0.00  0.00     0.023 A 
ENDBRANCH  19  21
ENDBRANCH  18  19
ENDBRANCH   4  18
TORSDOF 6
ENDMDL
MODEL 3
REMARK VINA RESULT:   -29.821      1.726      1.862
REMARK INTER + INTRA:         -33.178
REMARK INTER:                 -31.611
REMARK INTRA:                  -1.567
REMARK CONF_INDEPENDENT:        1.790
REMARK UNBOUND:                -1.567
REMARK  6 active torsions:
REMARK  status: ('A' for Active; 'I' for Inactive)
REMARK       I    between atoms: C1_2  and  N1_3 
REMARK    1  A    between atoms: C1_2  and  C2_5 
REMARK    2  A    between atoms: N1_3  and  O2_4 
REMARK    3  A    between atoms: C5_8  and  C6_9 
REMARK    4  A    between atoms: C9_12  and  C10_13 
REMARK    5  A    between atoms: C10_13  and  N2_14 
REMARK    6  A    between atoms: N2_14  and  C11_15 
ROOT
ATOM      1  C6  NON d   1     -42.898  18.155  -4.159  0.00  0.00     0.073 A 
ATOM      2  C7  NON d   1     -43.517  16.926  -3.933  0.00  0.00     0.033 A 
ATOM      3  C8  NON d   1     -44.769  16.669  -4.499  0.00  0.00     0.012 A 
ATOM      4  C9  NON d   1     -45.382  17.633  -5.301  0.00  0.00    -0.027 A 
ATOM      5  C17 NON d   1     -44.691  18.831  -5.462  0.00  0.00     0.125 A 
ATOM      6  N3  NON d   1     -43.479  19.108  -4.921  0.00  0.00    -0.259 NA
ENDROOT
BRANCH   1   7
ATOM      7  C5  NON d   1     -41.577  18.477  -3.584  0.00  0.00     0.034 A 
ATOM      8  C4  NON d   1     -41.012  19.716  -3.331  0.00  0.00     0.023 A 
ATOM      9  C3  NON d   1     -39.698  19.641  -2.785  0.00  0.00     0.026 A 
ATOM     10  C2  NON d   1     -39.263  18.337  -2.622  0.00  0.00     0.075 A 
ATOM     11  S1  NON d   1     -40.466  17.232  -3.144  0.00  0.00    -0.083 SA
BRANCH  10  12
ATOM     12  C1  NON d   1     -37.986  17.842  -2.118  0.00  0.00     0.281 C 
ATOM     13  O1  NON d   1     -36.885  18.343  -2.350  0.00  0.00    -0.265 OA
ATOM     14  N1  NON d   1     -38.085  16.723  -1.310  0.00  0.00    -0.233 N 
ATOM     15  H1  NON d   1     -38.938  16.206  -1.140  0.00  0.00     0.197 HD
BRANCH  14  16
ATOM     16  O2  NON d   1     -36.904  16.200  -0.744  0.00  0.00    -0.287 OA
ATOM     17  H2  NON d   1     -36.211  16.780  -1.126  0.00  0.00     0.244 HD
ENDBRANCH  14  16
ENDBRANCH  10  12
ENDBRANCH   1   7
BRANCH   4  18
ATOM     18  C10 NON d   1     -46.733  17.480  -5.959  0.00  0.00     0.132 C 
BRANCH  18  19
ATOM     19  N2  NON d   1     -47.283  16.131  -5.829  0.00  0.00    -0.289 NA
ATOM     20  H9  NON d   1     -47.622  15.759  -6.713  0.00  0.00     0.128 HD
BRANCH  19  21
ATOM     21  C11 NON d   1     -48.200  15.846  -4.809  0.00  0.00     0.008 A 
ATOM     22  C12 NON d   1     -48.365  16.797  -3.789  0.00  0.00     0.023 A 
ATOM     23  C13 NON d   1     -49.292  16.610  -2.759  0.00  0.00     0.002 A 
ATOM     24  C14 NON d   1     -50.088  15.470  -2.740  0.00  0.00     0.000 A 
ATOM     25  C15 NON d   1     -49.967  14.533  -3.761  0.00  0.00     0.002 A 
ATOM     26  C16 NON d   1     -49.045  14.730  -4.795  0.00  0.00     0.023 A 
ENDBRANCH  19  21
ENDBRANCH  18  19
ENDBRANCH   4  18
TORSDOF 6
ENDMDL
MODEL 4
REMARK VINA RESULT:   -29.570      2.505      4.245
REMARK INTER + INTRA:         -32.228
REMARK INTER:                 -31.360
REMARK INTRA:                  -0.868
REMARK CONF_INDEPENDENT:        1.790
REMARK UNBOUND:                -0.868
REMARK  6 active torsions:
REMARK  status: ('A' for Active; 'I' for Inactive)
REMARK       I    between atoms: C1_2  and  N1_3 
REMARK    1  A    between atoms: C1_2  and  C2_5 
REMARK    2  A    between atoms: N1_3  and  O2_4 
REMARK    3  A    between atoms: C5_8  and  C6_9 
REMARK    4  A    between atoms: C9_12  and  C10_13 
REMARK    5  A    between atoms: C10_13  and  N2_14 
REMARK    6  A    between atoms: N2_14  and  C11_15 
ROOT
ATOM      1  C6  NON d   1     -46.358  16.775  -4.673  0.00  0.00     0.073 A 
ATOM      2  C7  NON d   1     -46.802  16.276  -3.449  0.00  0.00     0.033 A 
ATOM      3  C8  NON d   1     -48.008  15.572  -3.389  0.00  0.00     0.012 A 
ATOM      4  C9  NON d   1     -48.749  15.357  -4.552  0.00  0.00    -0.027 A 
ATOM      5  C17 NON d   1     -48.229  15.901  -5.723  0.00  0.00     0.125 A 
ATOM      6  N3  NON d   1     -47.065  16.591  -5.810  0.00  0.00    -0.259 NA
ENDROOT
BRANCH   1   7
ATOM      7  C5  NON d   1     -45.091  17.525  -4.792  0.00  0.00     0.034 A 
ATOM      8  C4  NON d   1     -44.845  18.728  -5.434  0.00  0.00     0.023 A 
ATOM      9  C3  NON d   1     -43.483  19.144  -5.358  0.00  0.00     0.026 A 
ATOM     10  C2  NON d   1     -42.693  18.253  -4.654  0.00  0.00     0.075 A 
ATOM     11  S1  NON d   1     -43.627  16.924  -4.104  0.00  0.00    -0.083 SA
BRANCH  10  12
ATOM     12  C1  NON d   1     -41.262  18.305  -4.372  0.00  0.00     0.281 C 
ATOM     13  O1  NON d   1     -40.376  18.473  -5.210  0.00  0.00    -0.265 OA
ATOM     14  N1  NON d   1     -40.936  18.159  -3.035  0.00  0.00    -0.233 N 
ATOM     15  H1  NON d   1     -41.595  17.936  -2.300  0.00  0.00     0.197 HD
BRANCH  14  16
ATOM     16  O2  NON d   1     -39.578  18.239  -2.665  0.00  0.00    -0.287 OA
ATOM     17  H2  NON d   1     -39.624  18.240  -1.685  0.00  0.00     0.244 HD
ENDBRANCH  14  16
ENDBRANCH  10  12
ENDBRANCH   1   7
BRANCH   4  18
ATOM     18  C10 NON d   1     -50.068  14.624  -4.615  0.00  0.00     0.132 C 
BRANCH  18  19
ATOM     19  N2  NON d   1     -50.703  14.476  -3.306  0.00  0.00    -0.289 NA
ATOM     20  H9  NON d   1     -51.171  13.579  -3.196  0.00  0.00     0.128 HD
BRANCH  19  21
ATOM     21  C11 NON d   1     -51.516  15.502  -2.805  0.00  0.00     0.008 A 
ATOM     22  C12 NON d   1     -52.906  15.300  -2.810  0.00  0.00     0.023 A 
ATOM     23  C13 NON d   1     -53.785  16.254  -2.287  0.00  0.00     0.002 A 
ATOM     24  C14 NON d   1     -53.285  17.426  -1.730  0.00  0.00     0.000 A 
ATOM     25  C15 NON d   1     -51.910  17.630  -1.681  0.00  0.00     0.002 A 
ATOM     26  C16 NON d   1     -51.034  16.666  -2.197  0.00  0.00     0.023 A 
ENDBRANCH  19  21
ENDBRANCH  18  19
ENDBRANCH   4  18
TORSDOF 6
ENDMDL
MODEL 5
REMARK VINA RESULT:   -29.353      1.773      2.394
REMARK INTER + INTRA:         -32.475
REMARK INTER:                 -31.143
REMARK INTRA:                  -1.332
REMARK CONF_INDEPENDENT:        1.790
REMARK UNBOUND:                -1.332
REMARK  6 active torsions:
REMARK  status: ('A' for Active; 'I' for Inactive)
REMARK       I    between atoms: C1_2  and  N1_3 
REMARK    1  A    between atoms: C1_2  and  C2_5 
REMARK    2  A    between atoms: N1_3  and  O2_4 
REMARK    3  A    between atoms: C5_8  and  C6_9 
REMARK    4  A    between atoms: C9_12  and  C10_13 
REMARK    5  A    between atoms: C10_13  and  N2_14 
REMARK    6  A    between atoms: N2_14  and  C11_15 
ROOT
ATOM      1  C6  NON d   1     -42.747  18.479  -4.608  0.00  0.00     0.073 A 
ATOM      2  C7  NON d   1     -43.948  19.067  -5.004  0.00  0.00     0.033 A 
ATOM      3  C8  NON d   1     -45.047  18.256  -5.302  0.00  0.00     0.012 A 
ATOM      4  C9  NON d   1     -44.943  16.869  -5.182  0.00  0.00    -0.027 A 
ATOM      5  C17 NON d   1     -43.702  16.377  -4.788  0.00  0.00     0.125 A 
ATOM      6  N3  NON d   1     -42.619  17.139  -4.497  0.00  0.00    -0.259 NA
ENDROOT
BRANCH   1   7
ATOM      7  C5  NON d   1     -41.556  19.290  -4.282  0.00  0.00     0.034 A 
ATOM      8  C4  NON d   1     -40.556  19.041  -3.357  0.00  0.00     0.023 A 
ATOM      9  C3  NON d   1     -39.566  20.065  -3.301  0.00  0.00     0.026 A 
ATOM     10  C2  NON d   1     -39.816  21.096  -4.189  0.00  0.00     0.075 A 
ATOM     11  S1  NON d   1     -41.257  20.796  -5.069  0.00  0.00    -0.083 SA
BRANCH  10  12
ATOM     12  C1  NON d   1     -39.061  22.324  -4.421  0.00  0.00     0.281 C 
ATOM     13  O1  NON d   1     -37.857  22.471  -4.212  0.00  0.00    -0.265 OA
ATOM     14  N1  NON d   1     -39.811  23.369  -4.932  0.00  0.00    -0.233 N 
ATOM     15  H1  NON d   1     -40.815  23.355  -5.053  0.00  0.00     0.197 HD
BRANCH  14  16
ATOM     16  O2  NON d   1     -39.154  24.581  -5.227  0.00  0.00    -0.287 OA
ATOM     17  H2  NON d   1     -38.530  24.673  -4.476  0.00  0.00     0.244 HD
ENDBRANCH  14  16
ENDBRANCH  10  12
ENDBRANCH   1   7
BRANCH   4  18
ATOM     18  C10 NON d   1     -46.052  15.889  -5.483  0.00  0.00     0.132 C 
BRANCH  18  19
ATOM     19  N2  NON d   1     -47.378  16.505  -5.476  0.00  0.00    -0.289 NA
ATOM     20  H9  NON d   1     -47.344  17.512  -5.618  0.00  0.00     0.128 HD
BRANCH  19  21
ATOM     21  C11 NON d   1     -48.285  16.198  -4.453  0.00  0.00     0.008 A 
ATOM     22  C12 NON d   1     -49.085  15.054  -4.606  0.00  0.00     0.023 A 
ATOM     23  C13 NON d   1     -49.983  14.653  -3.612  0.00  0.00     0.002 A 
ATOM     24  C14 NON d   1     -50.085  15.383  -2.433  0.00  0.00     0.000 A 
ATOM     25  C15 NON d   1     -49.275  16.498  -2.245  0.00  0.00     0.002 A 
ATOM     26  C16 NON d   1     -48.370  16.889  -3.239  0.00  0.00     0.023 A 
ENDBRANCH  19  21
ENDBRANCH  18  19
ENDBRANCH   4  18
TORSDOF 6
ENDMDL
MODEL 6
REMARK VINA RESULT:   -29.186      2.963      4.601
REMARK INTER + INTRA:         -32.343
REMARK INTER:                 -30.976
REMARK INTRA:                  -1.367
REMARK CONF_INDEPENDENT:        1.790
REMARK UNBOUND:                -1.367
REMARK  6 active torsions:
REMARK  status: ('A' for Active; 'I' for Inactive)
REMARK       I    between atoms: C1_2  and  N1_3 
REMARK    1  A    between atoms: C1_2  and  C2_5 
REMARK    2  A    between atoms: N1_3  and  O2_4 
REMARK    3  A    between atoms: C5_8  and  C6_9 
REMARK    4  A    between atoms: C9_12  and  C10_13 
REMARK    5  A    between atoms: C10_13  and  N2_14 
REMARK    6  A    between atoms: N2_14  and  C11_15 
ROOT
ATOM      1  C6  NON d   1     -46.244  16.881  -4.431  0.00  0.00     0.073 A 
ATOM      2  C7  NON d   1     -46.674  16.896  -3.105  0.00  0.00     0.033 A 
ATOM      3  C8  NON d   1     -47.986  16.520  -2.801  0.00  0.00     0.012 A 
ATOM      4  C9  NON d   1     -48.849  16.115  -3.821  0.00  0.00    -0.027 A 
ATOM      5  C17 NON d   1     -48.330  16.142  -5.113  0.00  0.00     0.125 A 
ATOM      6  N3  NON d   1     -47.065  16.505  -5.436  0.00  0.00    -0.259 NA
ENDROOT
BRANCH   1   7
ATOM      7  C5  NON d   1     -44.869  17.269  -4.805  0.00  0.00     0.034 A 
ATOM      8  C4  NON d   1     -43.744  16.472  -4.943  0.00  0.00     0.023 A 
ATOM      9  C3  NON d   1     -42.572  17.201  -5.300  0.00  0.00     0.026 A 
ATOM     10  C2  NON d   1     -42.810  18.558  -5.435  0.00  0.00     0.075 A 
ATOM     11  S1  NON d   1     -44.456  18.915  -5.118  0.00  0.00    -0.083 SA
BRANCH  10  12
ATOM     12  C1  NON d   1     -41.880  19.634  -5.767  0.00  0.00     0.281 C 
ATOM     13  O1  NON d   1     -41.568  19.980  -6.906  0.00  0.00    -0.265 OA
ATOM     14  N1  NON d   1     -41.349  20.290  -4.670  0.00  0.00    -0.233 N 
ATOM     15  H1  NON d   1     -41.490  20.014  -3.707  0.00  0.00     0.197 HD
BRANCH  14  16
ATOM     16  O2  NON d   1     -40.475  21.372  -4.897  0.00  0.00    -0.287 OA
ATOM     17  H2  NON d   1     -40.286  21.295  -5.857  0.00  0.00     0.244 HD
ENDBRANCH  14  16
ENDBRANCH  10  12
ENDBRANCH   1   7
BRANCH   4  18
ATOM     18  C10 NON d   1     -50.287  15.697  -3.624  0.00  0.00     0.132 C 
BRANCH  18  19
ATOM     19  N2  NON d   1     -50.769  15.932  -2.264  0.00  0.00    -0.289 NA
ATOM     20  H9  NON d   1     -50.760  15.090  -1.693  0.00  0.00     0.128 HD
BRANCH  19  21
ATOM     21  C11 NON d   1     -51.965  16.634  -2.058  0.00  0.00     0.008 A 
ATOM     22  C12 NON d   1     -53.099  16.223  -2.776  0.00  0.00     0.023 A 
ATOM     23  C13 NON d   1     -54.341  16.840  -2.597  0.00  0.00     0.002 A 
ATOM     24  C14 NON d   1     -54.475  17.875  -1.678  0.00  0.00     0.000 A 
ATOM     25  C15 NON d   1     -53.372  18.273  -0.929  0.00  0.00     0.002 A 
ATOM     26  C16 NON d   1     -52.134  17.644  -1.105  0.00  0.00     0.023 A 
ENDBRANCH  19  21
ENDBRANCH  18  19
ENDBRANCH   4  18
TORSDOF 6
ENDMDL
