MODEL 1
REMARK VINA RESULT:   -17.424      0.000      0.000
REMARK INTER + INTRA:         -24.159
REMARK INTER:                 -21.302
REMARK INTRA:                  -2.857
REMARK CONF_INDEPENDENT:        3.878
REMARK UNBOUND:                -2.857
REMARK  13 active torsions:
REMARK  status: ('A' for Active; 'I' for Inactive)
REMARK    1  A    between atoms: O1_2  and  C2_3 
REMARK    2  A    between atoms: C8_10  and  C9_11 
REMARK    3  A    between atoms: C9_11  and  C10_12 
REMARK       I    between atoms: C10_12  and  N2_14 
REMARK    4  A    between atoms: C11_15  and  N2_14 
REMARK    5  A    between atoms: C11_15  and  C12_16 
REMARK    6  A    between atoms: C11_15  and  C18_25 
REMARK    7  A    between atoms: C12_16  and  C13_17 
REMARK    8  A    between atoms: C13_17  and  C14_18 
REMARK    9  A    between atoms: C14_18  and  C15_19 
REMARK   10  A    between atoms: C15_19  and  C16_20 
REMARK   11  A    between atoms: C16_20  and  C17_21 
REMARK       I    between atoms: C17_21  and  N3_23 
REMARK   12  A    between atoms: N3_23  and  O4_24 
REMARK   13  A    between atoms: C19_27  and  C20_28 
ROOT
ATOM      1  C11 NON d   1     -40.271  19.450  -5.736  0.00  0.00     0.154 C 
ENDROOT
BRANCH   1   2
ATOM      2  N2  NON d   1     -39.858  20.568  -6.646  0.00  0.00    -0.349 N 
ATOM      3  C10 NON d   1     -39.921  20.525  -8.049  0.00  0.00     0.222 C 
ATOM      4  O2  NON d   1     -40.691  19.782  -8.651  0.00  0.00    -0.273 OA
ATOM      5  H12 NON d   1     -39.146  21.172  -6.257  0.00  0.00     0.163 HD
BRANCH   3   6
ATOM      6  C9  NON d   1     -39.046  21.558  -8.784  0.00  0.00     0.144 C 
BRANCH   6   7
ATOM      7  C8  NON d   1     -39.578  22.982  -8.952  0.00  0.00    -0.015 A 
ATOM      8  C6  NON d   1     -39.903  23.700 -10.101  0.00  0.00     0.013 A 
ATOM      9  N1  NON d   1     -40.357  24.940  -9.722  0.00  0.00    -0.359 N 
ATOM     10  C7  NON d   1     -39.873  23.376 -11.553  0.00  0.00     0.068 C 
ATOM     11  C5  NON d   1     -40.253  25.112  -8.371  0.00  0.00     0.043 A 
ATOM     12  H6  NON d   1     -40.694  25.653 -10.355  0.00  0.00     0.166 HD
ATOM     13  C4  NON d   1     -40.537  26.240  -7.594  0.00  0.00     0.033 A 
ATOM     14  C31 NON d   1     -39.790  23.908  -7.844  0.00  0.00     0.002 A 
ATOM     15  C3  NON d   1     -40.345  26.149  -6.213  0.00  0.00     0.039 A 
ATOM     16  C2  NON d   1     -39.907  24.964  -5.630  0.00  0.00     0.069 A 
ATOM     17  C32 NON d   1     -39.624  23.844  -6.440  0.00  0.00     0.051 A 
BRANCH  16  18
ATOM     18  O1  NON d   1     -39.718  24.766  -4.286  0.00  0.00    -0.356 OA
ATOM     19  C1  NON d   1     -38.523  25.291  -3.718  0.00  0.00     0.210 C 
ENDBRANCH  16  18
ENDBRANCH   6   7
ENDBRANCH   3   6
ENDBRANCH   1   2
BRANCH   1  20
ATOM     20  C12 NON d   1     -41.757  19.023  -5.842  0.00  0.00     0.033 C 
BRANCH  20  21
ATOM     21  C13 NON d   1     -42.606  19.028  -4.554  0.00  0.00     0.002 C 
BRANCH  21  22
ATOM     22  C14 NON d   1     -42.629  17.672  -3.822  0.00  0.00     0.001 C 
BRANCH  22  23
ATOM     23  C15 NON d   1     -43.701  16.722  -4.356  0.00  0.00     0.009 C 
BRANCH  23  24
ATOM     24  C16 NON d   1     -45.144  17.151  -4.109  0.00  0.00     0.105 C 
BRANCH  24  25
ATOM     25  C17 NON d   1     -46.102  16.878  -5.264  0.00  0.00     0.240 C 
ATOM     26  O3  NON d   1     -46.300  17.661  -6.187  0.00  0.00    -0.271 OA
ATOM     27  N3  NON d   1     -46.792  15.688  -5.083  0.00  0.00    -0.237 N 
ATOM     28  H24 NON d   1     -46.319  14.928  -4.604  0.00  0.00     0.197 HD
BRANCH  27  29
ATOM     29  O4  NON d   1     -47.577  15.276  -6.186  0.00  0.00    -0.287 OA
ATOM     30  H25 NON d   1     -47.194  15.799  -6.914  0.00  0.00     0.244 HD
ENDBRANCH  27  29
ENDBRANCH  24  25
ENDBRANCH  23  24
ENDBRANCH  22  23
ENDBRANCH  21  22
ENDBRANCH  20  21
ENDBRANCH   1  20
BRANCH   1  31
ATOM     31  C18 NON d   1     -39.853  19.709  -4.287  0.00  0.00     0.127 A 
ATOM     32  N4  NON d   1     -40.513  20.465  -3.423  0.00  0.00    -0.231 NA
ATOM     33  C19 NON d   1     -39.707  20.649  -2.316  0.00  0.00     0.084 A 
ATOM     34  C30 NON d   1     -38.585  19.851  -2.454  0.00  0.00     0.122 A 
ATOM     35  N5  NON d   1     -38.689  19.271  -3.698  0.00  0.00    -0.350 N 
ATOM     36  H34 NON d   1     -37.995  18.690  -4.146  0.00  0.00     0.166 HD
BRANCH  33  37
ATOM     37  C20 NON d   1     -39.948  21.684  -1.306  0.00  0.00    -0.005 A 
ATOM     38  C21 NON d   1     -39.920  21.327   0.050  0.00  0.00     0.014 A 
ATOM     39  C22 NON d   1     -40.296  22.226   1.058  0.00  0.00     0.013 A 
ATOM     40  C23 NON d   1     -40.671  23.535   0.742  0.00  0.00    -0.026 A 
ATOM     41  C24 NON d   1     -41.057  24.441   1.747  0.00  0.00     0.012 A 
ATOM     42  C28 NON d   1     -40.660  23.946  -0.610  0.00  0.00    -0.025 A 
ATOM     43  C25 NON d   1     -41.416  25.751   1.434  0.00  0.00     0.001 A 
ATOM     44  C26 NON d   1     -41.388  26.170   0.107  0.00  0.00     0.001 A 
ATOM     45  C27 NON d   1     -41.018  25.274  -0.905  0.00  0.00     0.012 A 
ATOM     46  C29 NON d   1     -40.309  23.009  -1.620  0.00  0.00     0.026 A 
ENDBRANCH  33  37
ENDBRANCH   1  31
TORSDOF 13
ENDMDL
MODEL 2
REMARK VINA RESULT:   -17.423      2.276      3.588
REMARK INTER + INTRA:         -23.541
REMARK INTER:                 -21.300
REMARK INTRA:                  -2.240
REMARK CONF_INDEPENDENT:        3.878
REMARK UNBOUND:                -2.240
REMARK  13 active torsions:
REMARK  status: ('A' for Active; 'I' for Inactive)
REMARK    1  A    between atoms: O1_2  and  C2_3 
REMARK    2  A    between atoms: C8_10  and  C9_11 
REMARK    3  A    between atoms: C9_11  and  C10_12 
REMARK       I    between atoms: C10_12  and  N2_14 
REMARK    4  A    between atoms: C11_15  and  N2_14 
REMARK    5  A    between atoms: C11_15  and  C12_16 
REMARK    6  A    between atoms: C11_15  and  C18_25 
REMARK    7  A    between atoms: C12_16  and  C13_17 
REMARK    8  A    between atoms: C13_17  and  C14_18 
REMARK    9  A    between atoms: C14_18  and  C15_19 
REMARK   10  A    between atoms: C15_19  and  C16_20 
REMARK   11  A    between atoms: C16_20  and  C17_21 
REMARK       I    between atoms: C17_21  and  N3_23 
REMARK   12  A    between atoms: N3_23  and  O4_24 
REMARK   13  A    between atoms: C19_27  and  C20_28 
ROOT
ATOM      1  C11 NON d   1     -39.657  19.144  -3.464  0.00  0.00     0.154 C 
ENDROOT
BRANCH   1   2
ATOM      2  N2  NON d   1     -40.151  19.926  -4.644  0.00  0.00    -0.349 N 
ATOM      3  C10 NON d   1     -40.295  19.412  -5.944  0.00  0.00     0.222 C 
ATOM      4  O2  NON d   1     -40.449  18.214  -6.165  0.00  0.00    -0.273 OA
ATOM      5  H12 NON d   1     -39.970  20.920  -4.583  0.00  0.00     0.163 HD
BRANCH   3   6
ATOM      6  C9  NON d   1     -40.369  20.463  -7.068  0.00  0.00     0.144 C 
BRANCH   6   7
ATOM      7  C8  NON d   1     -39.305  20.437  -8.166  0.00  0.00    -0.015 A 
ATOM      8  C6  NON d   1     -38.231  19.573  -8.369  0.00  0.00     0.013 A 
ATOM      9  N1  NON d   1     -37.575  19.960  -9.512  0.00  0.00    -0.359 N 
ATOM     10  C7  NON d   1     -37.724  18.381  -7.637  0.00  0.00     0.068 C 
ATOM     11  C5  NON d   1     -38.110  21.108 -10.025  0.00  0.00     0.043 A 
ATOM     12  H6  NON d   1     -36.777  19.485  -9.912  0.00  0.00     0.166 HD
ATOM     13  C4  NON d   1     -37.700  21.866 -11.125  0.00  0.00     0.033 A 
ATOM     14  C31 NON d   1     -39.207  21.433  -9.228  0.00  0.00     0.002 A 
ATOM     15  C3  NON d   1     -38.433  23.012 -11.443  0.00  0.00     0.039 A 
ATOM     16  C2  NON d   1     -39.552  23.371 -10.697  0.00  0.00     0.069 A 
ATOM     17  C32 NON d   1     -39.939  22.589  -9.588  0.00  0.00     0.051 A 
BRANCH  16  18
ATOM     18  O1  NON d   1     -40.353  24.456 -10.945  0.00  0.00    -0.356 OA
ATOM     19  C1  NON d   1     -40.954  24.534 -12.233  0.00  0.00     0.210 C 
ENDBRANCH  16  18
ENDBRANCH   6   7
ENDBRANCH   3   6
ENDBRANCH   1   2
BRANCH   1  20
ATOM     20  C12 NON d   1     -40.510  17.906  -3.085  0.00  0.00     0.033 C 
BRANCH  20  21
ATOM     21  C13 NON d   1     -42.026  18.105  -2.882  0.00  0.00     0.002 C 
BRANCH  21  22
ATOM     22  C14 NON d   1     -42.821  18.192  -4.199  0.00  0.00     0.001 C 
BRANCH  22  23
ATOM     23  C15 NON d   1     -43.701  16.967  -4.448  0.00  0.00     0.009 C 
BRANCH  23  24
ATOM     24  C16 NON d   1     -45.181  17.141  -4.119  0.00  0.00     0.105 C 
BRANCH  24  25
ATOM     25  C17 NON d   1     -46.133  16.861  -5.278  0.00  0.00     0.240 C 
ATOM     26  O3  NON d   1     -46.316  17.631  -6.214  0.00  0.00    -0.271 OA
ATOM     27  N3  NON d   1     -46.838  15.681  -5.083  0.00  0.00    -0.237 N 
ATOM     28  H24 NON d   1     -46.376  14.924  -4.588  0.00  0.00     0.197 HD
BRANCH  27  29
ATOM     29  O4  NON d   1     -47.618  15.260  -6.185  0.00  0.00    -0.287 OA
ATOM     30  H25 NON d   1     -47.238  15.782  -6.915  0.00  0.00     0.244 HD
ENDBRANCH  27  29
ENDBRANCH  24  25
ENDBRANCH  23  24
ENDBRANCH  22  23
ENDBRANCH  21  22
ENDBRANCH  20  21
ENDBRANCH   1  20
BRANCH   1  31
ATOM     31  C18 NON d   1     -39.386  20.043  -2.256  0.00  0.00     0.127 A 
ATOM     32  N4  NON d   1     -40.290  20.785  -1.635  0.00  0.00    -0.231 NA
ATOM     33  C19 NON d   1     -39.625  21.628  -0.765  0.00  0.00     0.084 A 
ATOM     34  C30 NON d   1     -38.287  21.276  -0.752  0.00  0.00     0.122 A 
ATOM     35  N5  NON d   1     -38.153  20.283  -1.696  0.00  0.00    -0.350 N 
ATOM     36  H34 NON d   1     -37.287  19.856  -1.994  0.00  0.00     0.166 HD
BRANCH  33  37
ATOM     37  C20 NON d   1     -40.244  22.810  -0.156  0.00  0.00    -0.005 A 
ATOM     38  C21 NON d   1     -40.618  23.879  -0.982  0.00  0.00     0.014 A 
ATOM     39  C22 NON d   1     -41.066  25.098  -0.453  0.00  0.00     0.013 A 
ATOM     40  C23 NON d   1     -41.199  25.270   0.928  0.00  0.00    -0.026 A 
ATOM     41  C24 NON d   1     -41.640  26.493   1.467  0.00  0.00     0.012 A 
ATOM     42  C28 NON d   1     -40.880  24.195   1.788  0.00  0.00    -0.025 A 
ATOM     43  C25 NON d   1     -41.786  26.660   2.843  0.00  0.00     0.001 A 
ATOM     44  C26 NON d   1     -41.494  25.600   3.697  0.00  0.00     0.001 A 
ATOM     45  C27 NON d   1     -41.041  24.381   3.174  0.00  0.00     0.012 A 
ATOM     46  C29 NON d   1     -40.394  22.980   1.234  0.00  0.00     0.026 A 
ENDBRANCH  33  37
ENDBRANCH   1  31
TORSDOF 13
ENDMDL
MODEL 3
REMARK VINA RESULT:   -17.384      2.152      3.782
REMARK INTER + INTRA:         -23.420
REMARK INTER:                 -21.262
REMARK INTRA:                  -2.158
REMARK CONF_INDEPENDENT:        3.878
REMARK UNBOUND:                -2.158
REMARK  13 active torsions:
REMARK  status: ('A' for Active; 'I' for Inactive)
REMARK    1  A    between atoms: O1_2  and  C2_3 
REMARK    2  A    between atoms: C8_10  and  C9_11 
REMARK    3  A    between atoms: C9_11  and  C10_12 
REMARK       I    between atoms: C10_12  and  N2_14 
REMARK    4  A    between atoms: C11_15  and  N2_14 
REMARK    5  A    between atoms: C11_15  and  C12_16 
REMARK    6  A    between atoms: C11_15  and  C18_25 
REMARK    7  A    between atoms: C12_16  and  C13_17 
REMARK    8  A    between atoms: C13_17  and  C14_18 
REMARK    9  A    between atoms: C14_18  and  C15_19 
REMARK   10  A    between atoms: C15_19  and  C16_20 
REMARK   11  A    between atoms: C16_20  and  C17_21 
REMARK       I    between atoms: C17_21  and  N3_23 
REMARK   12  A    between atoms: N3_23  and  O4_24 
REMARK   13  A    between atoms: C19_27  and  C20_28 
ROOT
ATOM      1  C11 NON d   1     -40.626  19.600  -5.846  0.00  0.00     0.154 C 
ENDROOT
BRANCH   1   2
ATOM      2  N2  NON d   1     -40.321  20.735  -6.776  0.00  0.00    -0.349 N 
ATOM      3  C10 NON d   1     -40.170  20.612  -8.168  0.00  0.00     0.222 C 
ATOM      4  O2  NON d   1     -40.678  19.696  -8.808  0.00  0.00    -0.273 OA
ATOM      5  H12 NON d   1     -39.810  21.494  -6.345  0.00  0.00     0.163 HD
BRANCH   3   6
ATOM      6  C9  NON d   1     -39.426  21.772  -8.859  0.00  0.00     0.144 C 
BRANCH   6   7
ATOM      7  C8  NON d   1     -38.544  21.459 -10.068  0.00  0.00    -0.015 A 
ATOM      8  C6  NON d   1     -37.399  20.672 -10.177  0.00  0.00     0.013 A 
ATOM      9  N1  NON d   1     -36.981  20.695 -11.486  0.00  0.00    -0.359 N 
ATOM     10  C7  NON d   1     -36.623  19.854  -9.206  0.00  0.00     0.068 C 
ATOM     11  C5  NON d   1     -37.746  21.545 -12.233  0.00  0.00     0.043 A 
ATOM     12  H6  NON d   1     -36.192  20.180 -11.852  0.00  0.00     0.166 HD
ATOM     13  C4  NON d   1     -37.616  21.909 -13.577  0.00  0.00     0.033 A 
ATOM     14  C31 NON d   1     -38.748  22.031 -11.395  0.00  0.00     0.002 A 
ATOM     15  C3  NON d   1     -38.546  22.808 -14.106  0.00  0.00     0.039 A 
ATOM     16  C2  NON d   1     -39.582  23.306 -13.321  0.00  0.00     0.069 A 
ATOM     17  C32 NON d   1     -39.684  22.925 -11.966  0.00  0.00     0.051 A 
BRANCH  16  18
ATOM     18  O1  NON d   1     -40.558  24.167 -13.754  0.00  0.00    -0.356 OA
ATOM     19  C1  NON d   1     -40.275  24.931 -14.920  0.00  0.00     0.210 C 
ENDBRANCH  16  18
ENDBRANCH   6   7
ENDBRANCH   3   6
ENDBRANCH   1   2
BRANCH   1  20
ATOM     20  C12 NON d   1     -42.101  19.121  -5.844  0.00  0.00     0.033 C 
BRANCH  20  21
ATOM     21  C13 NON d   1     -42.829  19.023  -4.488  0.00  0.00     0.002 C 
BRANCH  21  22
ATOM     22  C14 NON d   1     -42.692  17.646  -3.810  0.00  0.00     0.001 C 
BRANCH  22  23
ATOM     23  C15 NON d   1     -43.797  16.668  -4.213  0.00  0.00     0.009 C 
BRANCH  23  24
ATOM     24  C16 NON d   1     -45.224  17.188  -4.063  0.00  0.00     0.105 C 
BRANCH  24  25
ATOM     25  C17 NON d   1     -46.142  16.891  -5.243  0.00  0.00     0.240 C 
ATOM     26  O3  NON d   1     -46.315  17.658  -6.185  0.00  0.00    -0.271 OA
ATOM     27  N3  NON d   1     -46.833  15.701  -5.064  0.00  0.00    -0.237 N 
ATOM     28  H24 NON d   1     -46.372  14.951  -4.557  0.00  0.00     0.197 HD
BRANCH  27  29
ATOM     29  O4  NON d   1     -47.579  15.266  -6.185  0.00  0.00    -0.287 OA
ATOM     30  H25 NON d   1     -47.771  16.107  -6.640  0.00  0.00     0.244 HD
ENDBRANCH  27  29
ENDBRANCH  24  25
ENDBRANCH  23  24
ENDBRANCH  22  23
ENDBRANCH  21  22
ENDBRANCH  20  21
ENDBRANCH   1  20
BRANCH   1  31
ATOM     31  C18 NON d   1     -40.111  19.867  -4.430  0.00  0.00     0.127 A 
ATOM     32  N4  NON d   1     -40.732  20.595  -3.514  0.00  0.00    -0.231 NA
ATOM     33  C19 NON d   1     -39.852  20.804  -2.469  0.00  0.00     0.084 A 
ATOM     34  C30 NON d   1     -38.716  20.048  -2.695  0.00  0.00     0.122 A 
ATOM     35  N5  NON d   1     -38.891  19.470  -3.933  0.00  0.00    -0.350 N 
ATOM     36  H34 NON d   1     -38.212  18.917  -4.435  0.00  0.00     0.166 HD
BRANCH  33  37
ATOM     37  C20 NON d   1     -40.055  21.825  -1.436  0.00  0.00    -0.005 A 
ATOM     38  C21 NON d   1     -39.999  21.445  -0.088  0.00  0.00     0.014 A 
ATOM     39  C22 NON d   1     -40.339  22.331   0.944  0.00  0.00     0.013 A 
ATOM     40  C23 NON d   1     -40.702  23.651   0.659  0.00  0.00    -0.026 A 
ATOM     41  C24 NON d   1     -41.052  24.545   1.688  0.00  0.00     0.012 A 
ATOM     42  C28 NON d   1     -40.719  24.084  -0.687  0.00  0.00    -0.025 A 
ATOM     43  C25 NON d   1     -41.401  25.865   1.405  0.00  0.00     0.001 A 
ATOM     44  C26 NON d   1     -41.400  26.305   0.084  0.00  0.00     0.001 A 
ATOM     45  C27 NON d   1     -41.066  25.421  -0.951  0.00  0.00     0.012 A 
ATOM     46  C29 NON d   1     -40.406  23.160  -1.720  0.00  0.00     0.026 A 
ENDBRANCH  33  37
ENDBRANCH   1  31
TORSDOF 13
ENDMDL
MODEL 4
REMARK VINA RESULT:   -17.377      2.002      7.968
REMARK INTER + INTRA:         -23.589
REMARK INTER:                 -21.255
REMARK INTRA:                  -2.334
REMARK CONF_INDEPENDENT:        3.878
REMARK UNBOUND:                -2.334
REMARK  13 active torsions:
REMARK  status: ('A' for Active; 'I' for Inactive)
REMARK    1  A    between atoms: O1_2  and  C2_3 
REMARK    2  A    between atoms: C8_10  and  C9_11 
REMARK    3  A    between atoms: C9_11  and  C10_12 
REMARK       I    between atoms: C10_12  and  N2_14 
REMARK    4  A    between atoms: C11_15  and  N2_14 
REMARK    5  A    between atoms: C11_15  and  C12_16 
REMARK    6  A    between atoms: C11_15  and  C18_25 
REMARK    7  A    between atoms: C12_16  and  C13_17 
REMARK    8  A    between atoms: C13_17  and  C14_18 
REMARK    9  A    between atoms: C14_18  and  C15_19 
REMARK   10  A    between atoms: C15_19  and  C16_20 
REMARK   11  A    between atoms: C16_20  and  C17_21 
REMARK       I    between atoms: C17_21  and  N3_23 
REMARK   12  A    between atoms: N3_23  and  O4_24 
REMARK   13  A    between atoms: C19_27  and  C20_28 
ROOT
ATOM      1  C11 NON d   1     -41.351  19.761  -5.869  0.00  0.00     0.154 C 
ENDROOT
BRANCH   1   2
ATOM      2  N2  NON d   1     -41.551  20.953  -4.982  0.00  0.00    -0.349 N 
ATOM      3  C10 NON d   1     -40.515  21.727  -4.432  0.00  0.00     0.222 C 
ATOM      4  O2  NON d   1     -39.398  21.788  -4.939  0.00  0.00    -0.273 OA
ATOM      5  H12 NON d   1     -42.411  20.929  -4.450  0.00  0.00     0.163 HD
BRANCH   3   6
ATOM      6  C9  NON d   1     -40.906  22.591  -3.218  0.00  0.00     0.144 C 
BRANCH   6   7
ATOM      7  C8  NON d   1     -40.318  22.242  -1.850  0.00  0.00    -0.015 A 
ATOM      8  C6  NON d   1     -39.624  21.112  -1.423  0.00  0.00     0.013 A 
ATOM      9  N1  NON d   1     -39.291  21.284  -0.101  0.00  0.00    -0.359 N 
ATOM     10  C7  NON d   1     -39.189  19.860  -2.100  0.00  0.00     0.068 C 
ATOM     11  C5  NON d   1     -39.823  22.440   0.396  0.00  0.00     0.043 A 
ATOM     12  H6  NON d   1     -38.752  20.629   0.451  0.00  0.00     0.166 HD
ATOM     13  C4  NON d   1     -39.782  22.949   1.698  0.00  0.00     0.033 A 
ATOM     14  C31 NON d   1     -40.457  23.082  -0.666  0.00  0.00     0.002 A 
ATOM     15  C3  NON d   1     -40.412  24.171   1.943  0.00  0.00     0.039 A 
ATOM     16  C2  NON d   1     -41.040  24.869   0.915  0.00  0.00     0.069 A 
ATOM     17  C32 NON d   1     -41.069  24.328  -0.387  0.00  0.00     0.051 A 
BRANCH  16  18
ATOM     18  O1  NON d   1     -41.658  26.086   1.048  0.00  0.00    -0.356 OA
ATOM     19  C1  NON d   1     -41.788  26.604   2.368  0.00  0.00     0.210 C 
ENDBRANCH  16  18
ENDBRANCH   6   7
ENDBRANCH   3   6
ENDBRANCH   1   2
BRANCH   1  20
ATOM     20  C12 NON d   1     -40.950  18.453  -5.141  0.00  0.00     0.033 C 
BRANCH  20  21
ATOM     21  C13 NON d   1     -41.431  18.255  -3.689  0.00  0.00     0.002 C 
BRANCH  21  22
ATOM     22  C14 NON d   1     -42.611  17.273  -3.556  0.00  0.00     0.001 C 
BRANCH  22  23
ATOM     23  C15 NON d   1     -43.667  17.456  -4.646  0.00  0.00     0.009 C 
BRANCH  23  24
ATOM     24  C16 NON d   1     -45.113  17.250  -4.205  0.00  0.00     0.105 C 
BRANCH  24  25
ATOM     25  C17 NON d   1     -46.090  16.937  -5.334  0.00  0.00     0.240 C 
ATOM     26  O3  NON d   1     -46.316  17.694  -6.272  0.00  0.00    -0.271 OA
ATOM     27  N3  NON d   1     -46.763  15.744  -5.108  0.00  0.00    -0.237 N 
ATOM     28  H24 NON d   1     -46.271  15.002  -4.620  0.00  0.00     0.197 HD
BRANCH  27  29
ATOM     29  O4  NON d   1     -47.564  15.295  -6.185  0.00  0.00    -0.287 OA
ATOM     30  H25 NON d   1     -47.840  16.135  -6.596  0.00  0.00     0.244 HD
ENDBRANCH  27  29
ENDBRANCH  24  25
ENDBRANCH  23  24
ENDBRANCH  22  23
ENDBRANCH  21  22
ENDBRANCH  20  21
ENDBRANCH   1  20
BRANCH   1  31
ATOM     31  C18 NON d   1     -40.419  20.071  -7.042  0.00  0.00     0.127 A 
ATOM     32  N4  NON d   1     -40.300  21.250  -7.634  0.00  0.00    -0.231 NA
ATOM     33  C19 NON d   1     -39.558  21.075  -8.787  0.00  0.00     0.084 A 
ATOM     34  C30 NON d   1     -39.086  19.774  -8.809  0.00  0.00     0.122 A 
ATOM     35  N5  NON d   1     -39.639  19.156  -7.710  0.00  0.00    -0.350 N 
ATOM     36  H34 NON d   1     -39.560  18.178  -7.472  0.00  0.00     0.166 HD
BRANCH  33  37
ATOM     37  C20 NON d   1     -39.497  22.066  -9.866  0.00  0.00    -0.005 A 
ATOM     38  C21 NON d   1     -39.940  23.371  -9.611  0.00  0.00     0.014 A 
ATOM     39  C22 NON d   1     -40.059  24.323 -10.634  0.00  0.00     0.013 A 
ATOM     40  C23 NON d   1     -39.691  24.010 -11.946  0.00  0.00    -0.026 A 
ATOM     41  C24 NON d   1     -39.814  24.957 -12.979  0.00  0.00     0.012 A 
ATOM     42  C28 NON d   1     -39.190  22.718 -12.229  0.00  0.00    -0.025 A 
ATOM     43  C25 NON d   1     -39.433  24.649 -14.285  0.00  0.00     0.001 A 
ATOM     44  C26 NON d   1     -38.920  23.386 -14.568  0.00  0.00     0.001 A 
ATOM     45  C27 NON d   1     -38.804  22.429 -13.551  0.00  0.00     0.012 A 
ATOM     46  C29 NON d   1     -39.111  21.757 -11.185  0.00  0.00     0.026 A 
ENDBRANCH  33  37
ENDBRANCH   1  31
TORSDOF 13
ENDMDL
MODEL 5
REMARK VINA RESULT:   -16.920      1.267      3.404
REMARK INTER + INTRA:         -23.379
REMARK INTER:                 -20.798
REMARK INTRA:                  -2.581
REMARK CONF_INDEPENDENT:        3.878
REMARK UNBOUND:                -2.581
REMARK  13 active torsions:
REMARK  status: ('A' for Active; 'I' for Inactive)
REMARK    1  A    between atoms: O1_2  and  C2_3 
REMARK    2  A    between atoms: C8_10  and  C9_11 
REMARK    3  A    between atoms: C9_11  and  C10_12 
REMARK       I    between atoms: C10_12  and  N2_14 
REMARK    4  A    between atoms: C11_15  and  N2_14 
REMARK    5  A    between atoms: C11_15  and  C12_16 
REMARK    6  A    between atoms: C11_15  and  C18_25 
REMARK    7  A    between atoms: C12_16  and  C13_17 
REMARK    8  A    between atoms: C13_17  and  C14_18 
REMARK    9  A    between atoms: C14_18  and  C15_19 
REMARK   10  A    between atoms: C15_19  and  C16_20 
REMARK   11  A    between atoms: C16_20  and  C17_21 
REMARK       I    between atoms: C17_21  and  N3_23 
REMARK   12  A    between atoms: N3_23  and  O4_24 
REMARK   13  A    between atoms: C19_27  and  C20_28 
ROOT
ATOM      1  C11 NON d   1     -39.676  20.552  -3.867  0.00  0.00     0.154 C 
ENDROOT
BRANCH   1   2
ATOM      2  N2  NON d   1     -39.948  21.654  -4.846  0.00  0.00    -0.349 N 
ATOM      3  C10 NON d   1     -39.347  22.924  -4.811  0.00  0.00     0.222 C 
ATOM      4  O2  NON d   1     -38.261  23.125  -4.274  0.00  0.00    -0.273 OA
ATOM      5  H12 NON d   1     -40.870  21.617  -5.261  0.00  0.00     0.163 HD
BRANCH   3   6
ATOM      6  C9  NON d   1     -40.082  24.027  -5.597  0.00  0.00     0.144 C 
BRANCH   6   7
ATOM      7  C8  NON d   1     -39.799  24.173  -7.093  0.00  0.00    -0.015 A 
ATOM      8  C6  NON d   1     -39.605  25.312  -7.873  0.00  0.00     0.013 A 
ATOM      9  N1  NON d   1     -39.366  24.913  -9.166  0.00  0.00    -0.359 N 
ATOM     10  C7  NON d   1     -39.587  26.768  -7.571  0.00  0.00     0.068 C 
ATOM     11  C5  NON d   1     -39.491  23.560  -9.297  0.00  0.00     0.043 A 
ATOM     12  H6  NON d   1     -39.158  25.536  -9.935  0.00  0.00     0.166 HD
ATOM     13  C4  NON d   1     -39.399  22.765 -10.444  0.00  0.00     0.033 A 
ATOM     14  C31 NON d   1     -39.742  23.052  -8.024  0.00  0.00     0.002 A 
ATOM     15  C3  NON d   1     -39.567  21.386 -10.302  0.00  0.00     0.039 A 
ATOM     16  C2  NON d   1     -39.795  20.821  -9.051  0.00  0.00     0.069 A 
ATOM     17  C32 NON d   1     -39.888  21.648  -7.912  0.00  0.00     0.051 A 
BRANCH  16  18
ATOM     18  O1  NON d   1     -39.942  19.480  -8.803  0.00  0.00    -0.356 OA
ATOM     19  C1  NON d   1     -39.450  18.995  -7.558  0.00  0.00     0.210 C 
ENDBRANCH  16  18
ENDBRANCH   6   7
ENDBRANCH   3   6
ENDBRANCH   1   2
BRANCH   1  20
ATOM     20  C12 NON d   1     -40.269  19.170  -4.243  0.00  0.00     0.033 C 
BRANCH  20  21
ATOM     21  C13 NON d   1     -41.590  18.741  -3.572  0.00  0.00     0.002 C 
BRANCH  21  22
ATOM     22  C14 NON d   1     -42.445  17.794  -4.437  0.00  0.00     0.001 C 
BRANCH  22  23
ATOM     23  C15 NON d   1     -43.860  18.320  -4.680  0.00  0.00     0.009 C 
BRANCH  23  24
ATOM     24  C16 NON d   1     -44.991  17.391  -4.249  0.00  0.00     0.105 C 
BRANCH  24  25
ATOM     25  C17 NON d   1     -46.004  17.064  -5.341  0.00  0.00     0.240 C 
ATOM     26  O3  NON d   1     -46.319  17.841  -6.236  0.00  0.00    -0.271 OA
ATOM     27  N3  NON d   1     -46.597  15.827  -5.131  0.00  0.00    -0.237 N 
ATOM     28  H24 NON d   1     -46.041  15.097  -4.697  0.00  0.00     0.197 HD
BRANCH  27  29
ATOM     29  O4  NON d   1     -47.425  15.373  -6.185  0.00  0.00    -0.287 OA
ATOM     30  H25 NON d   1     -47.041  15.828  -6.956  0.00  0.00     0.244 HD
ENDBRANCH  27  29
ENDBRANCH  24  25
ENDBRANCH  23  24
ENDBRANCH  22  23
ENDBRANCH  21  22
ENDBRANCH  20  21
ENDBRANCH   1  20
BRANCH   1  31
ATOM     31  C18 NON d   1     -40.034  20.957  -2.436  0.00  0.00     0.127 A 
ATOM     32  N4  NON d   1     -40.670  22.066  -2.090  0.00  0.00    -0.231 NA
ATOM     33  C19 NON d   1     -40.590  22.193  -0.717  0.00  0.00     0.084 A 
ATOM     34  C30 NON d   1     -40.018  21.042  -0.204  0.00  0.00     0.122 A 
ATOM     35  N5  NON d   1     -39.671  20.278  -1.296  0.00  0.00    -0.350 N 
ATOM     36  H34 NON d   1     -39.160  19.407  -1.277  0.00  0.00     0.166 HD
BRANCH  33  37
ATOM     37  C20 NON d   1     -40.878  23.441  -0.003  0.00  0.00    -0.005 A 
ATOM     38  C21 NON d   1     -41.043  24.621  -0.743  0.00  0.00     0.014 A 
ATOM     39  C22 NON d   1     -41.162  25.872  -0.121  0.00  0.00     0.013 A 
ATOM     40  C23 NON d   1     -41.166  25.977   1.273  0.00  0.00    -0.026 A 
ATOM     41  C24 NON d   1     -41.278  27.229   1.906  0.00  0.00     0.012 A 
ATOM     42  C28 NON d   1     -41.055  24.802   2.051  0.00  0.00    -0.025 A 
ATOM     43  C25 NON d   1     -41.297  27.332   3.296  0.00  0.00     0.001 A 
ATOM     44  C26 NON d   1     -41.208  26.178   4.070  0.00  0.00     0.001 A 
ATOM     45  C27 NON d   1     -41.084  24.926   3.453  0.00  0.00     0.012 A 
ATOM     46  C29 NON d   1     -40.900  23.548   1.401  0.00  0.00     0.026 A 
ENDBRANCH  33  37
ENDBRANCH   1  31
TORSDOF 13
ENDMDL
MODEL 6
REMARK VINA RESULT:   -16.590      1.988      7.211
REMARK INTER + INTRA:         -23.151
REMARK INTER:                 -20.468
REMARK INTRA:                  -2.683
REMARK CONF_INDEPENDENT:        3.878
REMARK UNBOUND:                -2.683
REMARK  13 active torsions:
REMARK  status: ('A' for Active; 'I' for Inactive)
REMARK    1  A    between atoms: O1_2  and  C2_3 
REMARK    2  A    between atoms: C8_10  and  C9_11 
REMARK    3  A    between atoms: C9_11  and  C10_12 
REMARK       I    between atoms: C10_12  and  N2_14 
REMARK    4  A    between atoms: C11_15  and  N2_14 
REMARK    5  A    between atoms: C11_15  and  C12_16 
REMARK    6  A    between atoms: C11_15  and  C18_25 
REMARK    7  A    between atoms: C12_16  and  C13_17 
REMARK    8  A    between atoms: C13_17  and  C14_18 
REMARK    9  A    between atoms: C14_18  and  C15_19 
REMARK   10  A    between atoms: C15_19  and  C16_20 
REMARK   11  A    between atoms: C16_20  and  C17_21 
REMARK       I    between atoms: C17_21  and  N3_23 
REMARK   12  A    between atoms: N3_23  and  O4_24 
REMARK   13  A    between atoms: C19_27  and  C20_28 
ROOT
ATOM      1  C11 NON d   1     -40.374  19.504  -3.985  0.00  0.00     0.154 C 
ENDROOT
BRANCH   1   2
ATOM      2  N2  NON d   1     -39.535  20.406  -3.131  0.00  0.00    -0.349 N 
ATOM      3  C10 NON d   1     -39.847  20.780  -1.812  0.00  0.00     0.222 C 
ATOM      4  O2  NON d   1     -40.570  20.101  -1.089  0.00  0.00    -0.273 OA
ATOM      5  H12 NON d   1     -38.980  21.069  -3.655  0.00  0.00     0.163 HD
BRANCH   3   6
ATOM      6  C9  NON d   1     -39.124  22.037  -1.291  0.00  0.00     0.144 C 
BRANCH   6   7
ATOM      7  C8  NON d   1     -39.790  23.399  -1.489  0.00  0.00    -0.015 A 
ATOM      8  C6  NON d   1     -39.949  24.174  -2.636  0.00  0.00     0.013 A 
ATOM      9  N1  NON d   1     -40.633  25.316  -2.295  0.00  0.00    -0.359 N 
ATOM     10  C7  NON d   1     -39.562  23.985  -4.060  0.00  0.00     0.068 C 
ATOM     11  C5  NON d   1     -40.849  25.378  -0.948  0.00  0.00     0.043 A 
ATOM     12  H6  NON d   1     -40.915  26.038  -2.944  0.00  0.00     0.166 HD
ATOM     13  C4  NON d   1     -41.441  26.393  -0.189  0.00  0.00     0.033 A 
ATOM     14  C31 NON d   1     -40.358  24.193  -0.404  0.00  0.00     0.002 A 
ATOM     15  C3  NON d   1     -41.544  26.204   1.192  0.00  0.00     0.039 A 
ATOM     16  C2  NON d   1     -41.091  25.029   1.786  0.00  0.00     0.069 A 
ATOM     17  C32 NON d   1     -40.494  24.025   0.995  0.00  0.00     0.051 A 
BRANCH  16  18
ATOM     18  O1  NON d   1     -41.175  24.737   3.123  0.00  0.00    -0.356 OA
ATOM     19  C1  NON d   1     -40.086  25.147   3.943  0.00  0.00     0.210 C 
ENDBRANCH  16  18
ENDBRANCH   6   7
ENDBRANCH   3   6
ENDBRANCH   1   2
BRANCH   1  20
ATOM     20  C12 NON d   1     -40.394  18.014  -3.558  0.00  0.00     0.033 C 
BRANCH  20  21
ATOM     21  C13 NON d   1     -41.764  17.353  -3.299  0.00  0.00     0.002 C 
BRANCH  21  22
ATOM     22  C14 NON d   1     -42.683  17.329  -4.536  0.00  0.00     0.001 C 
BRANCH  22  23
ATOM     23  C15 NON d   1     -44.018  18.037  -4.303  0.00  0.00     0.009 C 
BRANCH  23  24
ATOM     24  C16 NON d   1     -45.209  17.125  -4.025  0.00  0.00     0.105 C 
BRANCH  24  25
ATOM     25  C17 NON d   1     -46.118  16.873  -5.223  0.00  0.00     0.240 C 
ATOM     26  O3  NON d   1     -46.225  17.641  -6.173  0.00  0.00    -0.271 OA
ATOM     27  N3  NON d   1     -46.881  15.727  -5.050  0.00  0.00    -0.237 N 
ATOM     28  H24 NON d   1     -46.476  14.956  -4.529  0.00  0.00     0.197 HD
BRANCH  27  29
ATOM     29  O4  NON d   1     -47.628  15.329  -6.184  0.00  0.00    -0.287 OA
ATOM     30  H25 NON d   1     -47.143  15.762  -6.910  0.00  0.00     0.244 HD
ENDBRANCH  27  29
ENDBRANCH  24  25
ENDBRANCH  23  24
ENDBRANCH  22  23
ENDBRANCH  21  22
ENDBRANCH  20  21
ENDBRANCH   1  20
BRANCH   1  31
ATOM     31  C18 NON d   1     -40.055  19.667  -5.473  0.00  0.00     0.127 A 
ATOM     32  N4  NON d   1     -39.657  20.790  -6.052  0.00  0.00    -0.231 NA
ATOM     33  C19 NON d   1     -39.708  20.605  -7.420  0.00  0.00     0.084 A 
ATOM     34  C30 NON d   1     -40.002  19.277  -7.671  0.00  0.00     0.122 A 
ATOM     35  N5  NON d   1     -40.221  18.703  -6.439  0.00  0.00    -0.350 N 
ATOM     36  H34 NON d   1     -40.533  17.758  -6.268  0.00  0.00     0.166 HD
BRANCH  33  37
ATOM     37  C20 NON d   1     -39.665  21.708  -8.386  0.00  0.00    -0.005 A 
ATOM     38  C21 NON d   1     -40.012  22.997  -7.957  0.00  0.00     0.014 A 
ATOM     39  C22 NON d   1     -40.146  24.064  -8.857  0.00  0.00     0.013 A 
ATOM     40  C23 NON d   1     -39.888  23.883 -10.219  0.00  0.00    -0.026 A 
ATOM     41  C24 NON d   1     -40.028  24.946 -11.131  0.00  0.00     0.012 A 
ATOM     42  C28 NON d   1     -39.485  22.609 -10.679  0.00  0.00    -0.025 A 
ATOM     43  C25 NON d   1     -39.757  24.769 -12.487  0.00  0.00     0.001 A 
ATOM     44  C26 NON d   1     -39.340  23.523 -12.945  0.00  0.00     0.001 A 
ATOM     45  C27 NON d   1     -39.210  22.453 -12.051  0.00  0.00     0.012 A 
ATOM     46  C29 NON d   1     -39.390  21.533  -9.756  0.00  0.00     0.026 A 
ENDBRANCH  33  37
ENDBRANCH   1  31
TORSDOF 13
ENDMDL
MODEL 7
REMARK VINA RESULT:   -16.446      1.770      3.307
REMARK INTER + INTRA:         -23.529
REMARK INTER:                 -20.323
REMARK INTRA:                  -3.205
REMARK CONF_INDEPENDENT:        3.878
REMARK UNBOUND:                -3.205
REMARK  13 active torsions:
REMARK  status: ('A' for Active; 'I' for Inactive)
REMARK    1  A    between atoms: O1_2  and  C2_3 
REMARK    2  A    between atoms: C8_10  and  C9_11 
REMARK    3  A    between atoms: C9_11  and  C10_12 
REMARK       I    between atoms: C10_12  and  N2_14 
REMARK    4  A    between atoms: C11_15  and  N2_14 
REMARK    5  A    between atoms: C11_15  and  C12_16 
REMARK    6  A    between atoms: C11_15  and  C18_25 
REMARK    7  A    between atoms: C12_16  and  C13_17 
REMARK    8  A    between atoms: C13_17  and  C14_18 
REMARK    9  A    between atoms: C14_18  and  C15_19 
REMARK   10  A    between atoms: C15_19  and  C16_20 
REMARK   11  A    between atoms: C16_20  and  C17_21 
REMARK       I    between atoms: C17_21  and  N3_23 
REMARK   12  A    between atoms: N3_23  and  O4_24 
REMARK   13  A    between atoms: C19_27  and  C20_28 
ROOT
ATOM      1  C11 NON d   1     -40.681  19.259  -6.123  0.00  0.00     0.154 C 
ENDROOT
BRANCH   1   2
ATOM      2  N2  NON d   1     -40.114  19.699  -7.439  0.00  0.00    -0.349 N 
ATOM      3  C10 NON d   1     -38.763  19.584  -7.808  0.00  0.00     0.222 C 
ATOM      4  O2  NON d   1     -38.010  18.755  -7.306  0.00  0.00    -0.273 OA
ATOM      5  H12 NON d   1     -40.625  20.455  -7.874  0.00  0.00     0.163 HD
BRANCH   3   6
ATOM      6  C9  NON d   1     -38.316  20.487  -8.975  0.00  0.00     0.144 C 
BRANCH   6   7
ATOM      7  C8  NON d   1     -38.982  21.853  -9.141  0.00  0.00    -0.015 A 
ATOM      8  C6  NON d   1     -39.503  22.730  -8.191  0.00  0.00     0.013 A 
ATOM      9  N1  NON d   1     -39.980  23.841  -8.844  0.00  0.00    -0.359 N 
ATOM     10  C7  NON d   1     -39.604  22.690  -6.707  0.00  0.00     0.068 C 
ATOM     11  C5  NON d   1     -39.886  23.696 -10.199  0.00  0.00     0.043 A 
ATOM     12  H6  NON d   1     -40.381  24.652  -8.392  0.00  0.00     0.166 HD
ATOM     13  C4  NON d   1     -40.316  24.552 -11.217  0.00  0.00     0.033 A 
ATOM     14  C31 NON d   1     -39.251  22.477 -10.432  0.00  0.00     0.002 A 
ATOM     15  C3  NON d   1     -40.094  24.163 -12.540  0.00  0.00     0.039 A 
ATOM     16  C2  NON d   1     -39.442  22.968 -12.831  0.00  0.00     0.069 A 
ATOM     17  C32 NON d   1     -39.024  22.121 -11.783  0.00  0.00     0.051 A 
BRANCH  16  18
ATOM     18  O1  NON d   1     -39.150  22.513 -14.092  0.00  0.00    -0.356 OA
ATOM     19  C1  NON d   1     -37.927  22.954 -14.670  0.00  0.00     0.210 C 
ENDBRANCH  16  18
ENDBRANCH   6   7
ENDBRANCH   3   6
ENDBRANCH   1   2
BRANCH   1  20
ATOM     20  C12 NON d   1     -42.210  19.458  -5.959  0.00  0.00     0.033 C 
BRANCH  20  21
ATOM     21  C13 NON d   1     -42.877  18.919  -4.676  0.00  0.00     0.002 C 
BRANCH  21  22
ATOM     22  C14 NON d   1     -42.532  17.449  -4.370  0.00  0.00     0.001 C 
BRANCH  22  23
ATOM     23  C15 NON d   1     -43.768  16.557  -4.249  0.00  0.00     0.009 C 
BRANCH  23  24
ATOM     24  C16 NON d   1     -45.106  17.289  -4.197  0.00  0.00     0.105 C 
BRANCH  24  25
ATOM     25  C17 NON d   1     -46.069  16.946  -5.329  0.00  0.00     0.240 C 
ATOM     26  O3  NON d   1     -46.315  17.696  -6.268  0.00  0.00    -0.271 OA
ATOM     27  N3  NON d   1     -46.705  15.733  -5.106  0.00  0.00    -0.237 N 
ATOM     28  H24 NON d   1     -46.193  15.006  -4.616  0.00  0.00     0.197 HD
BRANCH  27  29
ATOM     29  O4  NON d   1     -47.488  15.260  -6.185  0.00  0.00    -0.287 OA
ATOM     30  H25 NON d   1     -47.175  15.815  -6.923  0.00  0.00     0.244 HD
ENDBRANCH  27  29
ENDBRANCH  24  25
ENDBRANCH  23  24
ENDBRANCH  22  23
ENDBRANCH  21  22
ENDBRANCH  20  21
ENDBRANCH   1  20
BRANCH   1  31
ATOM     31  C18 NON d   1     -39.900  19.839  -4.942  0.00  0.00     0.127 A 
ATOM     32  N4  NON d   1     -40.424  20.201  -3.780  0.00  0.00    -0.231 NA
ATOM     33  C19 NON d   1     -39.459  20.894  -3.075  0.00  0.00     0.084 A 
ATOM     34  C30 NON d   1     -38.267  20.815  -3.772  0.00  0.00     0.122 A 
ATOM     35  N5  NON d   1     -38.561  20.154  -4.943  0.00  0.00    -0.350 N 
ATOM     36  H34 NON d   1     -37.928  19.996  -5.715  0.00  0.00     0.166 HD
BRANCH  33  37
ATOM     37  C20 NON d   1     -39.758  21.730  -1.907  0.00  0.00    -0.005 A 
ATOM     38  C21 NON d   1     -39.731  21.145  -0.633  0.00  0.00     0.014 A 
ATOM     39  C22 NON d   1     -40.159  21.841   0.507  0.00  0.00     0.013 A 
ATOM     40  C23 NON d   1     -40.586  23.169   0.413  0.00  0.00    -0.026 A 
ATOM     41  C24 NON d   1     -41.024  23.872   1.551  0.00  0.00     0.012 A 
ATOM     42  C28 NON d   1     -40.576  23.807  -0.849  0.00  0.00    -0.025 A 
ATOM     43  C25 NON d   1     -41.436  25.201   1.459  0.00  0.00     0.001 A 
ATOM     44  C26 NON d   1     -41.410  25.842   0.225  0.00  0.00     0.001 A 
ATOM     45  C27 NON d   1     -40.988  25.150  -0.919  0.00  0.00     0.012 A 
ATOM     46  C29 NON d   1     -40.173  23.073  -1.997  0.00  0.00     0.026 A 
ENDBRANCH  33  37
ENDBRANCH   1  31
TORSDOF 13
ENDMDL
MODEL 8
REMARK VINA RESULT:   -16.416      1.895      3.477
REMARK INTER + INTRA:         -23.640
REMARK INTER:                 -20.294
REMARK INTRA:                  -3.346
REMARK CONF_INDEPENDENT:        3.878
REMARK UNBOUND:                -3.346
REMARK  13 active torsions:
REMARK  status: ('A' for Active; 'I' for Inactive)
REMARK    1  A    between atoms: O1_2  and  C2_3 
REMARK    2  A    between atoms: C8_10  and  C9_11 
REMARK    3  A    between atoms: C9_11  and  C10_12 
REMARK       I    between atoms: C10_12  and  N2_14 
REMARK    4  A    between atoms: C11_15  and  N2_14 
REMARK    5  A    between atoms: C11_15  and  C12_16 
REMARK    6  A    between atoms: C11_15  and  C18_25 
REMARK    7  A    between atoms: C12_16  and  C13_17 
REMARK    8  A    between atoms: C13_17  and  C14_18 
REMARK    9  A    between atoms: C14_18  and  C15_19 
REMARK   10  A    between atoms: C15_19  and  C16_20 
REMARK   11  A    between atoms: C16_20  and  C17_21 
REMARK       I    between atoms: C17_21  and  N3_23 
REMARK   12  A    between atoms: N3_23  and  O4_24 
REMARK   13  A    between atoms: C19_27  and  C20_28 
ROOT
ATOM      1  C11 NON d   1     -39.779  18.435  -2.891  0.00  0.00     0.154 C 
ENDROOT
BRANCH   1   2
ATOM      2  N2  NON d   1     -40.003  18.633  -4.360  0.00  0.00    -0.349 N 
ATOM      3  C10 NON d   1     -39.084  19.236  -5.236  0.00  0.00     0.222 C 
ATOM      4  O2  NON d   1     -37.878  19.268  -5.007  0.00  0.00    -0.273 OA
ATOM      5  H12 NON d   1     -40.977  18.717  -4.619  0.00  0.00     0.163 HD
BRANCH   3   6
ATOM      6  C9  NON d   1     -39.673  19.746  -6.566  0.00  0.00     0.144 C 
BRANCH   6   7
ATOM      7  C8  NON d   1     -39.823  21.254  -6.769  0.00  0.00    -0.015 A 
ATOM      8  C6  NON d   1     -40.198  22.257  -5.877  0.00  0.00     0.013 A 
ATOM      9  N1  NON d   1     -40.166  23.460  -6.541  0.00  0.00    -0.359 N 
ATOM     10  C7  NON d   1     -40.573  22.260  -4.437  0.00  0.00     0.068 C 
ATOM     11  C5  NON d   1     -39.880  23.286  -7.866  0.00  0.00     0.043 A 
ATOM     12  H6  NON d   1     -40.360  24.359  -6.121  0.00  0.00     0.166 HD
ATOM     13  C4  NON d   1     -39.820  24.231  -8.894  0.00  0.00     0.033 A 
ATOM     14  C31 NON d   1     -39.639  21.926  -8.051  0.00  0.00     0.002 A 
ATOM     15  C3  NON d   1     -39.499  23.784 -10.178  0.00  0.00     0.039 A 
ATOM     16  C2  NON d   1     -39.225  22.440 -10.417  0.00  0.00     0.069 A 
ATOM     17  C32 NON d   1     -39.297  21.508  -9.360  0.00  0.00     0.051 A 
BRANCH  16  18
ATOM     18  O1  NON d   1     -38.871  21.909 -11.631  0.00  0.00    -0.356 OA
ATOM     19  C1  NON d   1     -39.742  22.167 -12.727  0.00  0.00     0.210 C 
ENDBRANCH  16  18
ENDBRANCH   6   7
ENDBRANCH   3   6
ENDBRANCH   1   2
BRANCH   1  20
ATOM     20  C12 NON d   1     -40.939  17.742  -2.131  0.00  0.00     0.033 C 
BRANCH  20  21
ATOM     21  C13 NON d   1     -42.380  17.993  -2.623  0.00  0.00     0.002 C 
BRANCH  21  22
ATOM     22  C14 NON d   1     -42.796  17.094  -3.803  0.00  0.00     0.001 C 
BRANCH  22  23
ATOM     23  C15 NON d   1     -43.979  17.653  -4.593  0.00  0.00     0.009 C 
BRANCH  23  24
ATOM     24  C16 NON d   1     -45.356  17.169  -4.149  0.00  0.00     0.105 C 
BRANCH  24  25
ATOM     25  C17 NON d   1     -46.326  16.860  -5.285  0.00  0.00     0.240 C 
ATOM     26  O3  NON d   1     -46.579  17.639  -6.198  0.00  0.00    -0.271 OA
ATOM     27  N3  NON d   1     -46.959  15.640  -5.096  0.00  0.00    -0.237 N 
ATOM     28  H24 NON d   1     -46.442  14.899  -4.632  0.00  0.00     0.197 HD
BRANCH  27  29
ATOM     29  O4  NON d   1     -47.747  15.199  -6.185  0.00  0.00    -0.287 OA
ATOM     30  H25 NON d   1     -48.048  16.041  -6.573  0.00  0.00     0.244 HD
ENDBRANCH  27  29
ENDBRANCH  24  25
ENDBRANCH  23  24
ENDBRANCH  22  23
ENDBRANCH  21  22
ENDBRANCH  20  21
ENDBRANCH   1  20
BRANCH   1  31
ATOM     31  C18 NON d   1     -39.335  19.726  -2.201  0.00  0.00     0.127 A 
ATOM     32  N4  NON d   1     -40.063  20.425  -1.342  0.00  0.00    -0.231 NA
ATOM     33  C19 NON d   1     -39.428  21.634  -1.131  0.00  0.00     0.084 A 
ATOM     34  C30 NON d   1     -38.200  21.600  -1.767  0.00  0.00     0.122 A 
ATOM     35  N5  NON d   1     -38.159  20.398  -2.437  0.00  0.00    -0.350 N 
ATOM     36  H34 NON d   1     -37.431  20.090  -3.066  0.00  0.00     0.166 HD
BRANCH  33  37
ATOM     37  C20 NON d   1     -40.083  22.793  -0.515  0.00  0.00    -0.005 A 
ATOM     38  C21 NON d   1     -40.489  23.855  -1.334  0.00  0.00     0.014 A 
ATOM     39  C22 NON d   1     -40.975  25.057  -0.798  0.00  0.00     0.013 A 
ATOM     40  C23 NON d   1     -41.113  25.216   0.584  0.00  0.00    -0.026 A 
ATOM     41  C24 NON d   1     -41.592  26.421   1.130  0.00  0.00     0.012 A 
ATOM     42  C28 NON d   1     -40.762  24.145   1.438  0.00  0.00    -0.025 A 
ATOM     43  C25 NON d   1     -41.744  26.575   2.508  0.00  0.00     0.001 A 
ATOM     44  C26 NON d   1     -41.420  25.519   3.354  0.00  0.00     0.001 A 
ATOM     45  C27 NON d   1     -40.930  24.318   2.824  0.00  0.00     0.012 A 
ATOM     46  C29 NON d   1     -40.239  22.950   0.876  0.00  0.00     0.026 A 
ENDBRANCH  33  37
ENDBRANCH   1  31
TORSDOF 13
ENDMDL
MODEL 9
REMARK VINA RESULT:   -15.940      1.929      2.981
REMARK INTER + INTRA:         -23.627
REMARK INTER:                 -19.818
REMARK INTRA:                  -3.809
REMARK CONF_INDEPENDENT:        3.878
REMARK UNBOUND:                -3.809
REMARK  13 active torsions:
REMARK  status: ('A' for Active; 'I' for Inactive)
REMARK    1  A    between atoms: O1_2  and  C2_3 
REMARK    2  A    between atoms: C8_10  and  C9_11 
REMARK    3  A    between atoms: C9_11  and  C10_12 
REMARK       I    between atoms: C10_12  and  N2_14 
REMARK    4  A    between atoms: C11_15  and  N2_14 
REMARK    5  A    between atoms: C11_15  and  C12_16 
REMARK    6  A    between atoms: C11_15  and  C18_25 
REMARK    7  A    between atoms: C12_16  and  C13_17 
REMARK    8  A    between atoms: C13_17  and  C14_18 
REMARK    9  A    between atoms: C14_18  and  C15_19 
REMARK   10  A    between atoms: C15_19  and  C16_20 
REMARK   11  A    between atoms: C16_20  and  C17_21 
REMARK       I    between atoms: C17_21  and  N3_23 
REMARK   12  A    between atoms: N3_23  and  O4_24 
REMARK   13  A    between atoms: C19_27  and  C20_28 
ROOT
ATOM      1  C11 NON d   1     -39.993  18.456  -2.826  0.00  0.00     0.154 C 
ENDROOT
BRANCH   1   2
ATOM      2  N2  NON d   1     -39.391  18.416  -4.199  0.00  0.00    -0.349 N 
ATOM      3  C10 NON d   1     -38.013  18.415  -4.471  0.00  0.00     0.222 C 
ATOM      4  O2  NON d   1     -37.181  18.021  -3.658  0.00  0.00    -0.273 OA
ATOM      5  H12 NON d   1     -39.980  18.818  -4.917  0.00  0.00     0.163 HD
BRANCH   3   6
ATOM      6  C9  NON d   1     -37.619  18.827  -5.902  0.00  0.00     0.144 C 
BRANCH   6   7
ATOM      7  C8  NON d   1     -38.615  19.639  -6.731  0.00  0.00    -0.015 A 
ATOM      8  C6  NON d   1     -39.393  19.275  -7.827  0.00  0.00     0.013 A 
ATOM      9  N1  NON d   1     -40.141  20.363  -8.207  0.00  0.00    -0.359 N 
ATOM     10  C7  NON d   1     -39.565  18.005  -8.585  0.00  0.00     0.068 C 
ATOM     11  C5  NON d   1     -39.818  21.466  -7.470  0.00  0.00     0.043 A 
ATOM     12  H6  NON d   1     -40.820  20.367  -8.957  0.00  0.00     0.166 HD
ATOM     13  C4  NON d   1     -40.287  22.779  -7.580  0.00  0.00     0.033 A 
ATOM     14  C31 NON d   1     -38.882  21.058  -6.521  0.00  0.00     0.002 A 
ATOM     15  C3  NON d   1     -39.790  23.731  -6.687  0.00  0.00     0.039 A 
ATOM     16  C2  NON d   1     -38.872  23.374  -5.703  0.00  0.00     0.069 A 
ATOM     17  C32 NON d   1     -38.413  22.043  -5.619  0.00  0.00     0.051 A 
BRANCH  16  18
ATOM     18  O1  NON d   1     -38.350  24.226  -4.764  0.00  0.00    -0.356 OA
ATOM     19  C1  NON d   1     -37.379  23.687  -3.873  0.00  0.00     0.210 C 
ENDBRANCH  16  18
ENDBRANCH   6   7
ENDBRANCH   3   6
ENDBRANCH   1   2
BRANCH   1  20
ATOM     20  C12 NON d   1     -41.532  18.281  -2.771  0.00  0.00     0.033 C 
BRANCH  20  21
ATOM     21  C13 NON d   1     -42.353  18.694  -4.010  0.00  0.00     0.002 C 
BRANCH  21  22
ATOM     22  C14 NON d   1     -42.651  17.528  -4.972  0.00  0.00     0.001 C 
BRANCH  22  23
ATOM     23  C15 NON d   1     -43.698  16.555  -4.427  0.00  0.00     0.009 C 
BRANCH  23  24
ATOM     24  C16 NON d   1     -45.081  17.149  -4.176  0.00  0.00     0.105 C 
BRANCH  24  25
ATOM     25  C17 NON d   1     -46.091  16.917  -5.294  0.00  0.00     0.240 C 
ATOM     26  O3  NON d   1     -46.315  17.723  -6.191  0.00  0.00    -0.271 OA
ATOM     27  N3  NON d   1     -46.795  15.735  -5.108  0.00  0.00    -0.237 N 
ATOM     28  H24 NON d   1     -46.315  14.957  -4.666  0.00  0.00     0.197 HD
BRANCH  27  29
ATOM     29  O4  NON d   1     -47.632  15.361  -6.185  0.00  0.00    -0.287 OA
ATOM     30  H25 NON d   1     -47.220  15.826  -6.936  0.00  0.00     0.244 HD
ENDBRANCH  27  29
ENDBRANCH  24  25
ENDBRANCH  23  24
ENDBRANCH  22  23
ENDBRANCH  21  22
ENDBRANCH  20  21
ENDBRANCH   1  20
BRANCH   1  31
ATOM     31  C18 NON d   1     -39.528  19.680  -2.034  0.00  0.00     0.127 A 
ATOM     32  N4  NON d   1     -40.293  20.415  -1.241  0.00  0.00    -0.231 NA
ATOM     33  C19 NON d   1     -39.588  21.554  -0.905  0.00  0.00     0.084 A 
ATOM     34  C30 NON d   1     -38.298  21.429  -1.389  0.00  0.00     0.122 A 
ATOM     35  N5  NON d   1     -38.277  20.249  -2.099  0.00  0.00    -0.350 N 
ATOM     36  H34 NON d   1     -37.506  19.896  -2.648  0.00  0.00     0.166 HD
BRANCH  33  37
ATOM     37  C20 NON d   1     -40.212  22.748  -0.324  0.00  0.00    -0.005 A 
ATOM     38  C21 NON d   1     -40.610  23.786  -1.178  0.00  0.00     0.014 A 
ATOM     39  C22 NON d   1     -41.065  25.016  -0.681  0.00  0.00     0.013 A 
ATOM     40  C23 NON d   1     -41.180  25.230   0.695  0.00  0.00    -0.026 A 
ATOM     41  C24 NON d   1     -41.628  26.464   1.202  0.00  0.00     0.012 A 
ATOM     42  C28 NON d   1     -40.836  24.186   1.585  0.00  0.00    -0.025 A 
ATOM     43  C25 NON d   1     -41.757  26.673   2.575  0.00  0.00     0.001 A 
ATOM     44  C26 NON d   1     -41.440  25.644   3.457  0.00  0.00     0.001 A 
ATOM     45  C27 NON d   1     -40.980  24.414   2.966  0.00  0.00     0.012 A 
ATOM     46  C29 NON d   1     -40.344  22.960   1.062  0.00  0.00     0.026 A 
ENDBRANCH  33  37
ENDBRANCH   1  31
TORSDOF 13
ENDMDL
