MODEL 1
REMARK VINA RESULT:   -19.658      0.000      0.000
REMARK INTER + INTRA:         -22.770
REMARK INTER:                 -21.746
REMARK INTRA:                  -1.024
REMARK CONF_INDEPENDENT:        2.088
REMARK UNBOUND:                -1.024
REMARK  7 active torsions:
REMARK  status: ('A' for Active; 'I' for Inactive)
REMARK    1  A    between atoms: C2_2  and  N1_3 
REMARK    2  A    between atoms: N1_3  and  C3_4 
REMARK    3  A    between atoms: C3_4  and  S2_6 
REMARK    4  A    between atoms: S2_6  and  C4_7 
REMARK    5  A    between atoms: C4_7  and  C5_8 
REMARK    6  A    between atoms: C5_8  and  C6_10 
REMARK    7  A    between atoms: C9_13  and  O2_14 
ROOT
ATOM      1  C5  NON d   1     -43.598  17.382  -4.861  0.00  0.00     0.169 C 
ATOM      2  O1  NON d   1     -43.759  16.188  -5.107  0.00  0.00    -0.291 OA
ENDROOT
BRANCH   1   3
ATOM      3  C4  NON d   1     -44.675  18.439  -5.079  0.00  0.00     0.165 C 
BRANCH   3   4
ATOM      4  S2  NON d   1     -46.049  17.851  -6.144  0.00  0.00    -0.093 SA
BRANCH   4   5
ATOM      5  C3  NON d   1     -46.768  16.547  -5.207  0.00  0.00     0.134 C 
ATOM      6  S1  NON d   1     -47.813  15.380  -5.812  0.00  0.00    -0.053 SA
BRANCH   5   7
ATOM      7  N1  NON d   1     -46.344  16.623  -3.880  0.00  0.00    -0.376 N 
ATOM      8  H6  NON d   1     -45.342  16.649  -3.729  0.00  0.00     0.160 HD
BRANCH   7   9
ATOM      9  C2  NON d   1     -47.251  16.969  -2.801  0.00  0.00     0.116 C 
ATOM     10  C1  NON d   1     -48.589  16.234  -2.601  0.00  0.00     0.026 C 
ENDBRANCH   7   9
ENDBRANCH   5   7
ENDBRANCH   4   5
ENDBRANCH   3   4
ENDBRANCH   1   3
BRANCH   1  11
ATOM     11  C6  NON d   1     -42.266  17.818  -4.310  0.00  0.00     0.011 A 
ATOM     12  C7  NON d   1     -42.097  17.836  -2.919  0.00  0.00     0.018 A 
ATOM     13  C8  NON d   1     -40.876  18.213  -2.339  0.00  0.00     0.037 A 
ATOM     14  C9  NON d   1     -39.800  18.567  -3.149  0.00  0.00     0.068 A 
ATOM     15  C11 NON d   1     -39.974  18.575  -4.537  0.00  0.00     0.037 A 
ATOM     16  C12 NON d   1     -41.195  18.202  -5.120  0.00  0.00     0.018 A 
BRANCH  14  17
ATOM     17  O2  NON d   1     -38.549  18.916  -2.727  0.00  0.00    -0.356 OA
ATOM     18  C10 NON d   1     -37.703  17.879  -2.244  0.00  0.00     0.210 C 
ENDBRANCH  14  17
ENDBRANCH   1  11
TORSDOF 7
ENDMDL
MODEL 2
REMARK VINA RESULT:   -19.581      0.878      1.397
REMARK INTER + INTRA:         -22.730
REMARK INTER:                 -21.669
REMARK INTRA:                  -1.061
REMARK CONF_INDEPENDENT:        2.088
REMARK UNBOUND:                -1.061
REMARK  7 active torsions:
REMARK  status: ('A' for Active; 'I' for Inactive)
REMARK    1  A    between atoms: C2_2  and  N1_3 
REMARK    2  A    between atoms: N1_3  and  C3_4 
REMARK    3  A    between atoms: C3_4  and  S2_6 
REMARK    4  A    between atoms: S2_6  and  C4_7 
REMARK    5  A    between atoms: C4_7  and  C5_8 
REMARK    6  A    between atoms: C5_8  and  C6_10 
REMARK    7  A    between atoms: C9_13  and  O2_14 
ROOT
ATOM      1  C5  NON d   1     -43.536  17.386  -4.216  0.00  0.00     0.169 C 
ATOM      2  O1  NON d   1     -43.565  16.157  -4.203  0.00  0.00    -0.291 OA
ENDROOT
BRANCH   1   3
ATOM      3  C4  NON d   1     -44.766  18.255  -4.453  0.00  0.00     0.165 C 
BRANCH   3   4
ATOM      4  S2  NON d   1     -45.833  17.630  -5.810  0.00  0.00    -0.093 SA
BRANCH   4   5
ATOM      5  C3  NON d   1     -46.816  16.399  -5.027  0.00  0.00     0.134 C 
ATOM      6  S1  NON d   1     -47.897  15.381  -5.810  0.00  0.00    -0.053 SA
BRANCH   5   7
ATOM      7  N1  NON d   1     -46.567  16.390  -3.655  0.00  0.00    -0.376 N 
ATOM      8  H6  NON d   1     -45.602  16.257  -3.373  0.00  0.00     0.160 HD
BRANCH   7   9
ATOM      9  C2  NON d   1     -47.546  16.859  -2.693  0.00  0.00     0.116 C 
ATOM     10  C1  NON d   1     -49.006  16.372  -2.720  0.00  0.00     0.026 C 
ENDBRANCH   7   9
ENDBRANCH   5   7
ENDBRANCH   4   5
ENDBRANCH   3   4
ENDBRANCH   1   3
BRANCH   1  11
ATOM     11  C6  NON d   1     -42.213  18.065  -3.979  0.00  0.00     0.011 A 
ATOM     12  C7  NON d   1     -41.694  18.881  -4.994  0.00  0.00     0.018 A 
ATOM     13  C8  NON d   1     -40.476  19.558  -4.832  0.00  0.00     0.037 A 
ATOM     14  C9  NON d   1     -39.765  19.437  -3.642  0.00  0.00     0.068 A 
ATOM     15  C11 NON d   1     -40.267  18.603  -2.637  0.00  0.00     0.037 A 
ATOM     16  C12 NON d   1     -41.483  17.921  -2.797  0.00  0.00     0.018 A 
BRANCH  14  17
ATOM     17  O2  NON d   1     -38.592  20.064  -3.331  0.00  0.00    -0.356 OA
ATOM     18  C10 NON d   1     -38.162  20.024  -1.975  0.00  0.00     0.210 C 
ENDBRANCH  14  17
ENDBRANCH   1  11
TORSDOF 7
ENDMDL
MODEL 3
REMARK VINA RESULT:   -19.083      1.795      2.436
REMARK INTER + INTRA:         -22.064
REMARK INTER:                 -21.171
REMARK INTRA:                  -0.892
REMARK CONF_INDEPENDENT:        2.088
REMARK UNBOUND:                -0.892
REMARK  7 active torsions:
REMARK  status: ('A' for Active; 'I' for Inactive)
REMARK    1  A    between atoms: C2_2  and  N1_3 
REMARK    2  A    between atoms: N1_3  and  C3_4 
REMARK    3  A    between atoms: C3_4  and  S2_6 
REMARK    4  A    between atoms: S2_6  and  C4_7 
REMARK    5  A    between atoms: C4_7  and  C5_8 
REMARK    6  A    between atoms: C5_8  and  C6_10 
REMARK    7  A    between atoms: C9_13  and  O2_14 
ROOT
ATOM      1  C5  NON d   1     -43.470  17.665  -4.393  0.00  0.00     0.169 C 
ATOM      2  O1  NON d   1     -43.247  16.594  -3.831  0.00  0.00    -0.291 OA
ENDROOT
BRANCH   1   3
ATOM      3  C4  NON d   1     -44.850  18.308  -4.460  0.00  0.00     0.165 C 
BRANCH   3   4
ATOM      4  S2  NON d   1     -45.891  17.630  -5.812  0.00  0.00    -0.093 SA
BRANCH   4   5
ATOM      5  C3  NON d   1     -46.791  16.337  -5.029  0.00  0.00     0.134 C 
ATOM      6  S1  NON d   1     -47.819  15.264  -5.810  0.00  0.00    -0.053 SA
BRANCH   5   7
ATOM      7  N1  NON d   1     -46.528  16.333  -3.660  0.00  0.00    -0.376 N 
ATOM      8  H6  NON d   1     -45.553  16.267  -3.390  0.00  0.00     0.160 HD
BRANCH   7   9
ATOM      9  C2  NON d   1     -47.529  16.720  -2.683  0.00  0.00     0.116 C 
ATOM     10  C1  NON d   1     -48.991  16.251  -2.792  0.00  0.00     0.026 C 
ENDBRANCH   7   9
ENDBRANCH   5   7
ENDBRANCH   4   5
ENDBRANCH   3   4
ENDBRANCH   1   3
BRANCH   1  11
ATOM     11  C6  NON d   1     -42.313  18.378  -5.041  0.00  0.00     0.011 A 
ATOM     12  C7  NON d   1     -41.017  17.904  -4.793  0.00  0.00     0.018 A 
ATOM     13  C8  NON d   1     -39.896  18.509  -5.380  0.00  0.00     0.037 A 
ATOM     14  C9  NON d   1     -40.060  19.595  -6.237  0.00  0.00     0.068 A 
ATOM     15  C11 NON d   1     -41.349  20.086  -6.465  0.00  0.00     0.037 A 
ATOM     16  C12 NON d   1     -42.473  19.486  -5.877  0.00  0.00     0.018 A 
BRANCH  14  17
ATOM     17  O2  NON d   1     -39.069  20.256  -6.905  0.00  0.00    -0.356 OA
ATOM     18  C10 NON d   1     -38.675  19.744  -8.173  0.00  0.00     0.210 C 
ENDBRANCH  14  17
ENDBRANCH   1  11
TORSDOF 7
ENDMDL
MODEL 4
REMARK VINA RESULT:   -18.110      4.192      8.486
REMARK INTER + INTRA:         -20.618
REMARK INTER:                 -20.198
REMARK INTRA:                  -0.419
REMARK CONF_INDEPENDENT:        2.088
REMARK UNBOUND:                -0.419
REMARK  7 active torsions:
REMARK  status: ('A' for Active; 'I' for Inactive)
REMARK    1  A    between atoms: C2_2  and  N1_3 
REMARK    2  A    between atoms: N1_3  and  C3_4 
REMARK    3  A    between atoms: C3_4  and  S2_6 
REMARK    4  A    between atoms: S2_6  and  C4_7 
REMARK    5  A    between atoms: C4_7  and  C5_8 
REMARK    6  A    between atoms: C5_8  and  C6_10 
REMARK    7  A    between atoms: C9_13  and  O2_14 
ROOT
ATOM      1  C5  NON d   1     -49.422  14.859  -3.668  0.00  0.00     0.169 C 
ATOM      2  O1  NON d   1     -50.123  14.094  -4.327  0.00  0.00    -0.291 OA
ENDROOT
BRANCH   1   3
ATOM      3  C4  NON d   1     -47.901  14.906  -3.771  0.00  0.00     0.165 C 
BRANCH   3   4
ATOM      4  S2  NON d   1     -47.311  15.379  -5.443  0.00  0.00    -0.093 SA
BRANCH   4   5
ATOM      5  C3  NON d   1     -46.231  16.732  -5.130  0.00  0.00     0.134 C 
ATOM      6  S1  NON d   1     -45.944  18.007  -6.185  0.00  0.00    -0.053 SA
BRANCH   5   7
ATOM      7  N1  NON d   1     -45.642  16.593  -3.874  0.00  0.00    -0.376 N 
ATOM      8  H6  NON d   1     -45.950  15.803  -3.318  0.00  0.00     0.160 HD
BRANCH   7   9
ATOM      9  C2  NON d   1     -44.445  17.321  -3.500  0.00  0.00     0.116 C 
ATOM     10  C1  NON d   1     -43.040  16.822  -3.883  0.00  0.00     0.026 C 
ENDBRANCH   7   9
ENDBRANCH   5   7
ENDBRANCH   4   5
ENDBRANCH   3   4
ENDBRANCH   1   3
BRANCH   1  11
ATOM     11  C6  NON d   1     -50.106  15.803  -2.715  0.00  0.00     0.011 A 
ATOM     12  C7  NON d   1     -49.344  16.373  -1.685  0.00  0.00     0.018 A 
ATOM     13  C8  NON d   1     -49.914  17.275  -0.774  0.00  0.00     0.037 A 
ATOM     14  C9  NON d   1     -51.256  17.629  -0.890  0.00  0.00     0.068 A 
ATOM     15  C11 NON d   1     -52.023  17.042  -1.901  0.00  0.00     0.037 A 
ATOM     16  C12 NON d   1     -51.459  16.136  -2.812  0.00  0.00     0.018 A 
BRANCH  14  17
ATOM     17  O2  NON d   1     -51.930  18.519  -0.103  0.00  0.00    -0.356 OA
ATOM     18  C10 NON d   1     -53.351  18.526  -0.185  0.00  0.00     0.210 C 
ENDBRANCH  14  17
ENDBRANCH   1  11
TORSDOF 7
ENDMDL
MODEL 5
REMARK VINA RESULT:   -16.903      1.805      2.409
REMARK INTER + INTRA:         -19.523
REMARK INTER:                 -18.991
REMARK INTRA:                  -0.532
REMARK CONF_INDEPENDENT:        2.088
REMARK UNBOUND:                -0.532
REMARK  7 active torsions:
REMARK  status: ('A' for Active; 'I' for Inactive)
REMARK    1  A    between atoms: C2_2  and  N1_3 
REMARK    2  A    between atoms: N1_3  and  C3_4 
REMARK    3  A    between atoms: C3_4  and  S2_6 
REMARK    4  A    between atoms: S2_6  and  C4_7 
REMARK    5  A    between atoms: C4_7  and  C5_8 
REMARK    6  A    between atoms: C5_8  and  C6_10 
REMARK    7  A    between atoms: C9_13  and  O2_14 
ROOT
ATOM      1  C5  NON d   1     -45.535  17.378  -5.337  0.00  0.00     0.169 C 
ATOM      2  O1  NON d   1     -46.069  18.005  -6.250  0.00  0.00    -0.291 OA
ENDROOT
BRANCH   1   3
ATOM      3  C4  NON d   1     -46.143  16.130  -4.706  0.00  0.00     0.165 C 
BRANCH   3   4
ATOM      4  S2  NON d   1     -47.470  15.383  -5.731  0.00  0.00    -0.093 SA
BRANCH   4   5
ATOM      5  C3  NON d   1     -48.881  15.442  -4.682  0.00  0.00     0.134 C 
ATOM      6  S1  NON d   1     -50.065  14.255  -4.585  0.00  0.00    -0.053 SA
BRANCH   5   7
ATOM      7  N1  NON d   1     -48.877  16.622  -3.941  0.00  0.00    -0.376 N 
ATOM      8  H6  NON d   1     -48.811  17.485  -4.469  0.00  0.00     0.160 HD
BRANCH   7   9
ATOM      9  C2  NON d   1     -49.262  16.654  -2.542  0.00  0.00     0.116 C 
ATOM     10  C1  NON d   1     -48.230  16.880  -1.423  0.00  0.00     0.026 C 
ENDBRANCH   7   9
ENDBRANCH   5   7
ENDBRANCH   4   5
ENDBRANCH   3   4
ENDBRANCH   1   3
BRANCH   1  11
ATOM     11  C6  NON d   1     -44.209  17.869  -4.821  0.00  0.00     0.011 A 
ATOM     12  C7  NON d   1     -43.508  17.061  -3.915  0.00  0.00     0.018 A 
ATOM     13  C8  NON d   1     -42.258  17.450  -3.410  0.00  0.00     0.037 A 
ATOM     14  C9  NON d   1     -41.685  18.652  -3.818  0.00  0.00     0.068 A 
ATOM     15  C11 NON d   1     -42.394  19.472  -4.702  0.00  0.00     0.037 A 
ATOM     16  C12 NON d   1     -43.646  19.089  -5.206  0.00  0.00     0.018 A 
BRANCH  14  17
ATOM     17  O2  NON d   1     -40.465  19.136  -3.441  0.00  0.00    -0.356 OA
ATOM     18  C10 NON d   1     -40.302  19.526  -2.082  0.00  0.00     0.210 C 
ENDBRANCH  14  17
ENDBRANCH   1  11
TORSDOF 7
ENDMDL
MODEL 6
REMARK VINA RESULT:   -16.721      2.113      2.620
REMARK INTER + INTRA:         -19.098
REMARK INTER:                 -18.809
REMARK INTRA:                  -0.289
REMARK CONF_INDEPENDENT:        2.088
REMARK UNBOUND:                -0.289
REMARK  7 active torsions:
REMARK  status: ('A' for Active; 'I' for Inactive)
REMARK    1  A    between atoms: C2_2  and  N1_3 
REMARK    2  A    between atoms: N1_3  and  C3_4 
REMARK    3  A    between atoms: C3_4  and  S2_6 
REMARK    4  A    between atoms: S2_6  and  C4_7 
REMARK    5  A    between atoms: C4_7  and  C5_8 
REMARK    6  A    between atoms: C5_8  and  C6_10 
REMARK    7  A    between atoms: C9_13  and  O2_14 
ROOT
ATOM      1  C5  NON d   1     -45.280  17.237  -4.791  0.00  0.00     0.169 C 
ATOM      2  O1  NON d   1     -45.937  17.336  -5.825  0.00  0.00    -0.291 OA
ENDROOT
BRANCH   1   3
ATOM      3  C4  NON d   1     -45.779  16.519  -3.542  0.00  0.00     0.165 C 
BRANCH   3   4
ATOM      4  S2  NON d   1     -47.539  16.880  -3.165  0.00  0.00    -0.093 SA
BRANCH   4   5
ATOM      5  C3  NON d   1     -48.419  15.906  -4.337  0.00  0.00     0.134 C 
ATOM      6  S1  NON d   1     -47.811  15.380  -5.810  0.00  0.00    -0.053 SA
BRANCH   5   7
ATOM      7  N1  NON d   1     -49.702  15.633  -3.863  0.00  0.00    -0.376 N 
ATOM      8  H6  NON d   1     -50.179  14.844  -4.285  0.00  0.00     0.160 HD
BRANCH   7   9
ATOM      9  C2  NON d   1     -50.210  16.217  -2.636  0.00  0.00     0.116 C 
ATOM     10  C1  NON d   1     -51.708  16.511  -2.438  0.00  0.00     0.026 C 
ENDBRANCH   7   9
ENDBRANCH   5   7
ENDBRANCH   4   5
ENDBRANCH   3   4
ENDBRANCH   1   3
BRANCH   1  11
ATOM     11  C6  NON d   1     -43.907  17.855  -4.762  0.00  0.00     0.011 A 
ATOM     12  C7  NON d   1     -42.863  17.126  -4.174  0.00  0.00     0.018 A 
ATOM     13  C8  NON d   1     -41.556  17.634  -4.131  0.00  0.00     0.037 A 
ATOM     14  C9  NON d   1     -41.273  18.878  -4.689  0.00  0.00     0.068 A 
ATOM     15  C11 NON d   1     -42.318  19.618  -5.253  0.00  0.00     0.037 A 
ATOM     16  C12 NON d   1     -43.627  19.115  -5.295  0.00  0.00     0.018 A 
BRANCH  14  17
ATOM     17  O2  NON d   1     -40.048  19.477  -4.753  0.00  0.00    -0.356 OA
ATOM     18  C10 NON d   1     -39.945  20.820  -4.291  0.00  0.00     0.210 C 
ENDBRANCH  14  17
ENDBRANCH   1  11
TORSDOF 7
ENDMDL
