MODEL 1
REMARK VINA RESULT:   -36.827      0.000      0.000
REMARK INTER + INTRA:         -42.682
REMARK INTER:                 -40.407
REMARK INTRA:                  -2.275
REMARK CONF_INDEPENDENT:        3.580
REMARK UNBOUND:                -2.275
REMARK  12 active torsions:
REMARK  status: ('A' for Active; 'I' for Inactive)
REMARK    1  A    between atoms: N1_1  and  C1_2 
REMARK    2  A    between atoms: C6_7  and  N2_8 
REMARK       I    between atoms: N2_8  and  C7_9 
REMARK    3  A    between atoms: C7_9  and  C8_11 
REMARK    4  A    between atoms: C9_12  and  C10_13 
REMARK    5  A    between atoms: C13_16  and  C14_17 
REMARK    6  A    between atoms: C14_17  and  N3_18 
REMARK    7  A    between atoms: C14_17  and  C22_27 
REMARK    8  A    between atoms: N3_18  and  C15_19 
REMARK    9  A    between atoms: C15_19  and  C16_20 
REMARK   10  A    between atoms: C16_20  and  C17_21 
REMARK       I    between atoms: C22_27  and  N4_29 
REMARK   11  A    between atoms: N4_29  and  C23_30 
REMARK   12  A    between atoms: C26_33  and  C27_34 
ROOT
ATOM      1  C14 NON d   1     -38.300  21.106  -2.803  0.00  0.00     0.310 C 
ENDROOT
BRANCH   1   2
ATOM      2  C13 NON d   1     -39.502  20.205  -3.194  0.00  0.00    -0.019 A 
ATOM      3  C12 NON d   1     -40.674  20.689  -3.814  0.00  0.00     0.010 A 
ATOM      4  C11 NON d   1     -41.795  19.866  -4.046  0.00  0.00     0.012 A 
ATOM      5  C10 NON d   1     -41.822  18.520  -3.654  0.00  0.00    -0.036 A 
ATOM      6  C31 NON d   1     -40.676  18.030  -3.030  0.00  0.00     0.012 A 
ATOM      7  C30 NON d   1     -39.550  18.855  -2.795  0.00  0.00     0.010 A 
BRANCH   5   8
ATOM      8  C9  NON d   1     -43.043  17.722  -3.929  0.00  0.00     0.017 C 
ATOM      9  C8  NON d   1     -44.035  17.964  -4.809  0.00  0.00     0.075 C 
BRANCH   9  10
ATOM     10  C7  NON d   1     -45.200  17.011  -4.894  0.00  0.00     0.245 C 
ATOM     11  N2  NON d   1     -46.174  17.254  -3.946  0.00  0.00    -0.322 N 
ATOM     12  H7  NON d   1     -46.078  18.053  -3.333  0.00  0.00     0.169 HD
ATOM     13  O1  NON d   1     -45.205  16.119  -5.735  0.00  0.00    -0.268 OA
BRANCH  11  14
ATOM     14  C6  NON d   1     -47.394  16.548  -3.752  0.00  0.00     0.056 A 
ATOM     15  C5  NON d   1     -47.997  16.367  -2.505  0.00  0.00     0.031 A 
ATOM     16  C4  NON d   1     -49.157  15.593  -2.377  0.00  0.00     0.002 A 
ATOM     17  C3  NON d   1     -49.724  14.980  -3.493  0.00  0.00     0.002 A 
ATOM     18  C2  NON d   1     -49.137  15.155  -4.745  0.00  0.00     0.025 A 
ATOM     19  C1  NON d   1     -48.008  15.975  -4.895  0.00  0.00     0.033 A 
BRANCH  19  20
ATOM     20  N1  NON d   1     -47.440  16.131  -6.184  0.00  0.00    -0.301 NA
ATOM     21  H1  NON d   1     -46.755  15.405  -6.387  0.00  0.00     0.124 HD
ATOM     22  H2  NON d   1     -48.163  16.130  -6.899  0.00  0.00     0.124 HD
ENDBRANCH  19  20
ENDBRANCH  11  14
ENDBRANCH   9  10
ENDBRANCH   5   8
ENDBRANCH   1   2
BRANCH   1  23
ATOM     23  N3  NON d   1     -36.932  20.589  -3.291  0.00  0.00    -0.058 N 
ATOM     24  H13 NON d   1     -36.441  20.178  -2.496  0.00  0.00     0.278 HD
ATOM     25  H14 NON d   1     -36.383  21.429  -3.520  0.00  0.00     0.278 HD
BRANCH  23  26
ATOM     26  C15 NON d   1     -36.872  19.650  -4.469  0.00  0.00     0.234 C 
BRANCH  26  27
ATOM     27  C16 NON d   1     -37.441  20.363  -5.716  0.00  0.00     0.032 C 
BRANCH  27  28
ATOM     28  C17 NON d   1     -38.698  19.763  -6.401  0.00  0.00    -0.009 C 
ATOM     29  C18 NON d   1     -39.742  20.798  -6.836  0.00  0.00     0.031 C 
ATOM     30  C19 NON d   1     -40.872  20.161  -7.636  0.00  0.00     0.168 C 
ATOM     31  O2  NON d   1     -40.315  19.492  -8.760  0.00  0.00    -0.391 OA
ATOM     32  C20 NON d   1     -39.531  18.369  -8.361  0.00  0.00     0.168 C 
ATOM     33  C21 NON d   1     -38.313  18.837  -7.571  0.00  0.00     0.031 C 
ENDBRANCH  27  28
ENDBRANCH  26  27
ENDBRANCH  23  26
ENDBRANCH   1  23
BRANCH   1  34
ATOM     34  C22 NON d   1     -38.287  21.707  -1.329  0.00  0.00     0.257 C 
ATOM     35  O3  NON d   1     -37.851  21.064  -0.377  0.00  0.00    -0.270 OA
ATOM     36  N4  NON d   1     -38.844  22.990  -1.182  0.00  0.00    -0.325 N 
ATOM     37  H28 NON d   1     -38.771  23.660  -1.933  0.00  0.00     0.169 HD
BRANCH  36  38
ATOM     38  C23 NON d   1     -39.392  23.541   0.028  0.00  0.00     0.034 A 
ATOM     39  C24 NON d   1     -40.779  23.745   0.131  0.00  0.00     0.030 A 
ATOM     40  C25 NON d   1     -41.391  24.196   1.336  0.00  0.00     0.018 A 
ATOM     41  C26 NON d   1     -40.652  24.417   2.512  0.00  0.00     0.048 A 
ATOM     42  C28 NON d   1     -39.252  24.230   2.375  0.00  0.00     0.018 A 
ATOM     43  C29 NON d   1     -38.634  23.807   1.167  0.00  0.00     0.030 A 
BRANCH  41  44
ATOM     44  C27 NON d   1     -41.211  24.919   3.857  0.00  0.00     0.417 C 
ATOM     45  F1  NON d   1     -41.769  25.421   5.202  0.00  0.00    -0.166 F 
ATOM     46  F2  NON d   1     -40.071  24.448   4.587  0.00  0.00    -0.166 F 
ATOM     47  F3  NON d   1     -42.125  23.822   3.982  0.00  0.00    -0.166 F 
ENDBRANCH  41  44
ENDBRANCH  36  38
ENDBRANCH   1  34
TORSDOF 12
ENDMDL
MODEL 2
REMARK VINA RESULT:   -36.365      4.714      7.787
REMARK INTER + INTRA:         -41.411
REMARK INTER:                 -39.945
REMARK INTRA:                  -1.467
REMARK CONF_INDEPENDENT:        3.580
REMARK UNBOUND:                -1.467
REMARK  12 active torsions:
REMARK  status: ('A' for Active; 'I' for Inactive)
REMARK    1  A    between atoms: N1_1  and  C1_2 
REMARK    2  A    between atoms: C6_7  and  N2_8 
REMARK       I    between atoms: N2_8  and  C7_9 
REMARK    3  A    between atoms: C7_9  and  C8_11 
REMARK    4  A    between atoms: C9_12  and  C10_13 
REMARK    5  A    between atoms: C13_16  and  C14_17 
REMARK    6  A    between atoms: C14_17  and  N3_18 
REMARK    7  A    between atoms: C14_17  and  C22_27 
REMARK    8  A    between atoms: N3_18  and  C15_19 
REMARK    9  A    between atoms: C15_19  and  C16_20 
REMARK   10  A    between atoms: C16_20  and  C17_21 
REMARK       I    between atoms: C22_27  and  N4_29 
REMARK   11  A    between atoms: N4_29  and  C23_30 
REMARK   12  A    between atoms: C26_33  and  C27_34 
ROOT
ATOM      1  C14 NON d   1     -37.742  20.124  -2.841  0.00  0.00     0.310 C 
ENDROOT
BRANCH   1   2
ATOM      2  C13 NON d   1     -39.151  19.497  -3.016  0.00  0.00    -0.019 A 
ATOM      3  C12 NON d   1     -39.505  18.220  -2.531  0.00  0.00     0.010 A 
ATOM      4  C11 NON d   1     -40.754  17.630  -2.812  0.00  0.00     0.012 A 
ATOM      5  C10 NON d   1     -41.714  18.268  -3.611  0.00  0.00    -0.036 A 
ATOM      6  C31 NON d   1     -41.375  19.526  -4.108  0.00  0.00     0.012 A 
ATOM      7  C30 NON d   1     -40.120  20.119  -3.828  0.00  0.00     0.010 A 
BRANCH   5   8
ATOM      8  C9  NON d   1     -43.003  17.578  -3.866  0.00  0.00     0.017 C 
ATOM      9  C8  NON d   1     -43.843  17.709  -4.912  0.00  0.00     0.075 C 
BRANCH   9  10
ATOM     10  C7  NON d   1     -45.122  16.912  -4.940  0.00  0.00     0.245 C 
ATOM     11  N2  NON d   1     -45.986  17.231  -3.911  0.00  0.00    -0.322 N 
ATOM     12  H7  NON d   1     -45.745  17.982  -3.278  0.00  0.00     0.169 HD
ATOM     13  O1  NON d   1     -45.302  16.067  -5.810  0.00  0.00    -0.268 OA
BRANCH  11  14
ATOM     14  C6  NON d   1     -47.268  16.672  -3.648  0.00  0.00     0.056 A 
ATOM     15  C5  NON d   1     -47.846  16.617  -2.377  0.00  0.00     0.031 A 
ATOM     16  C4  NON d   1     -49.078  15.982  -2.178  0.00  0.00     0.002 A 
ATOM     17  C3  NON d   1     -49.744  15.384  -3.245  0.00  0.00     0.002 A 
ATOM     18  C2  NON d   1     -49.184  15.435  -4.520  0.00  0.00     0.025 A 
ATOM     19  C1  NON d   1     -47.979  16.117  -4.743  0.00  0.00     0.033 A 
BRANCH  19  20
ATOM     20  N1  NON d   1     -47.440  16.149  -6.053  0.00  0.00    -0.301 NA
ATOM     21  H1  NON d   1     -46.832  15.353  -6.233  0.00  0.00     0.124 HD
ATOM     22  H2  NON d   1     -48.183  16.178  -6.748  0.00  0.00     0.124 HD
ENDBRANCH  19  20
ENDBRANCH  11  14
ENDBRANCH   9  10
ENDBRANCH   5   8
ENDBRANCH   1   2
BRANCH   1  23
ATOM     23  N3  NON d   1     -37.586  20.993  -1.576  0.00  0.00    -0.058 N 
ATOM     24  H13 NON d   1     -37.255  21.916  -1.860  0.00  0.00     0.278 HD
ATOM     25  H14 NON d   1     -36.794  20.589  -1.058  0.00  0.00     0.278 HD
BRANCH  23  26
ATOM     26  C15 NON d   1     -38.748  21.137  -0.627  0.00  0.00     0.234 C 
BRANCH  26  27
ATOM     27  C16 NON d   1     -39.721  22.206  -1.175  0.00  0.00     0.032 C 
BRANCH  27  28
ATOM     28  C17 NON d   1     -40.680  22.911  -0.179  0.00  0.00    -0.009 C 
ATOM     29  C18 NON d   1     -40.281  22.775   1.295  0.00  0.00     0.031 C 
ATOM     30  C19 NON d   1     -41.170  23.616   2.202  0.00  0.00     0.168 C 
ATOM     31  O2  NON d   1     -41.105  24.972   1.777  0.00  0.00    -0.391 OA
ATOM     32  C20 NON d   1     -41.703  25.143   0.493  0.00  0.00     0.168 C 
ATOM     33  C21 NON d   1     -40.899  24.388  -0.561  0.00  0.00     0.031 C 
ENDBRANCH  27  28
ENDBRANCH  26  27
ENDBRANCH  23  26
ENDBRANCH   1  23
BRANCH   1  34
ATOM     34  C22 NON d   1     -37.041  20.722  -4.138  0.00  0.00     0.257 C 
ATOM     35  O3  NON d   1     -36.646  21.885  -4.177  0.00  0.00    -0.270 OA
ATOM     36  N4  NON d   1     -36.947  19.855  -5.242  0.00  0.00    -0.325 N 
ATOM     37  H28 NON d   1     -36.834  18.863  -5.096  0.00  0.00     0.169 HD
BRANCH  36  38
ATOM     38  C23 NON d   1     -36.829  20.249  -6.621  0.00  0.00     0.034 A 
ATOM     39  C24 NON d   1     -37.076  19.308  -7.634  0.00  0.00     0.030 A 
ATOM     40  C25 NON d   1     -37.070  19.662  -9.015  0.00  0.00     0.018 A 
ATOM     41  C26 NON d   1     -36.867  20.985  -9.446  0.00  0.00     0.048 A 
ATOM     42  C28 NON d   1     -36.593  21.910  -8.406  0.00  0.00     0.018 A 
ATOM     43  C29 NON d   1     -36.571  21.556  -7.029  0.00  0.00     0.030 A 
BRANCH  41  44
ATOM     44  C27 NON d   1     -36.823  21.470 -10.907  0.00  0.00     0.417 C 
ATOM     45  F1  NON d   1     -36.780  21.954 -12.369  0.00  0.00    -0.166 F 
ATOM     46  F2  NON d   1     -36.597  22.832 -10.523  0.00  0.00    -0.166 F 
ATOM     47  F3  NON d   1     -38.249  21.428 -11.051  0.00  0.00    -0.166 F 
ENDBRANCH  41  44
ENDBRANCH  36  38
ENDBRANCH   1  34
TORSDOF 12
ENDMDL
MODEL 3
REMARK VINA RESULT:   -35.929      4.161      5.968
REMARK INTER + INTRA:         -42.208
REMARK INTER:                 -39.509
REMARK INTRA:                  -2.699
REMARK CONF_INDEPENDENT:        3.580
REMARK UNBOUND:                -2.699
REMARK  12 active torsions:
REMARK  status: ('A' for Active; 'I' for Inactive)
REMARK    1  A    between atoms: N1_1  and  C1_2 
REMARK    2  A    between atoms: C6_7  and  N2_8 
REMARK       I    between atoms: N2_8  and  C7_9 
REMARK    3  A    between atoms: C7_9  and  C8_11 
REMARK    4  A    between atoms: C9_12  and  C10_13 
REMARK    5  A    between atoms: C13_16  and  C14_17 
REMARK    6  A    between atoms: C14_17  and  N3_18 
REMARK    7  A    between atoms: C14_17  and  C22_27 
REMARK    8  A    between atoms: N3_18  and  C15_19 
REMARK    9  A    between atoms: C15_19  and  C16_20 
REMARK   10  A    between atoms: C16_20  and  C17_21 
REMARK       I    between atoms: C22_27  and  N4_29 
REMARK   11  A    between atoms: N4_29  and  C23_30 
REMARK   12  A    between atoms: C26_33  and  C27_34 
ROOT
ATOM      1  C14 NON d   1     -38.071  20.427  -2.590  0.00  0.00     0.310 C 
ENDROOT
BRANCH   1   2
ATOM      2  C13 NON d   1     -39.317  19.595  -2.993  0.00  0.00    -0.019 A 
ATOM      3  C12 NON d   1     -40.235  19.993  -3.989  0.00  0.00     0.010 A 
ATOM      4  C11 NON d   1     -41.421  19.275  -4.247  0.00  0.00     0.012 A 
ATOM      5  C10 NON d   1     -41.772  18.132  -3.514  0.00  0.00    -0.036 A 
ATOM      6  C31 NON d   1     -40.880  17.732  -2.520  0.00  0.00     0.012 A 
ATOM      7  C30 NON d   1     -39.690  18.453  -2.258  0.00  0.00     0.010 A 
BRANCH   5   8
ATOM      8  C9  NON d   1     -43.040  17.435  -3.843  0.00  0.00     0.017 C 
ATOM      9  C8  NON d   1     -43.990  17.779  -4.736  0.00  0.00     0.075 C 
BRANCH   9  10
ATOM     10  C7  NON d   1     -45.219  16.918  -4.879  0.00  0.00     0.245 C 
ATOM     11  N2  NON d   1     -46.166  17.153  -3.902  0.00  0.00    -0.322 N 
ATOM     12  H7  NON d   1     -46.010  17.892  -3.230  0.00  0.00     0.169 HD
ATOM     13  O1  NON d   1     -45.293  16.097  -5.787  0.00  0.00    -0.268 OA
BRANCH  11  14
ATOM     14  C6  NON d   1     -47.431  16.519  -3.748  0.00  0.00     0.056 A 
ATOM     15  C5  NON d   1     -48.075  16.360  -2.518  0.00  0.00     0.031 A 
ATOM     16  C4  NON d   1     -49.282  15.656  -2.428  0.00  0.00     0.002 A 
ATOM     17  C3  NON d   1     -49.856  15.091  -3.565  0.00  0.00     0.002 A 
ATOM     18  C2  NON d   1     -49.229  15.245  -4.800  0.00  0.00     0.025 A 
ATOM     19  C1  NON d   1     -48.049  15.997  -4.912  0.00  0.00     0.033 A 
BRANCH  19  20
ATOM     20  N1  NON d   1     -47.440  16.133  -6.185  0.00  0.00    -0.301 NA
ATOM     21  H1  NON d   1     -48.069  15.861  -6.938  0.00  0.00     0.124 HD
ATOM     22  H2  NON d   1     -47.121  17.087  -6.331  0.00  0.00     0.124 HD
ENDBRANCH  19  20
ENDBRANCH  11  14
ENDBRANCH   9  10
ENDBRANCH   5   8
ENDBRANCH   1   2
BRANCH   1  23
ATOM     23  N3  NON d   1     -37.967  20.725  -1.080  0.00  0.00    -0.058 N 
ATOM     24  H13 NON d   1     -37.132  21.290  -0.921  0.00  0.00     0.278 HD
ATOM     25  H14 NON d   1     -37.750  19.823  -0.633  0.00  0.00     0.278 HD
BRANCH  23  26
ATOM     26  C15 NON d   1     -39.143  21.336  -0.362  0.00  0.00     0.234 C 
BRANCH  26  27
ATOM     27  C16 NON d   1     -39.044  22.877  -0.448  0.00  0.00     0.032 C 
BRANCH  27  28
ATOM     28  C17 NON d   1     -39.950  23.620  -1.466  0.00  0.00    -0.009 C 
ATOM     29  C18 NON d   1     -39.239  24.710  -2.275  0.00  0.00     0.031 C 
ATOM     30  C19 NON d   1     -40.140  25.289  -3.359  0.00  0.00     0.168 C 
ATOM     31  O2  NON d   1     -40.581  24.231  -4.201  0.00  0.00    -0.391 OA
ATOM     32  C20 NON d   1     -41.449  23.340  -3.504  0.00  0.00     0.168 C 
ATOM     33  C21 NON d   1     -40.684  22.630  -2.392  0.00  0.00     0.031 C 
ENDBRANCH  27  28
ENDBRANCH  26  27
ENDBRANCH  23  26
ENDBRANCH   1  23
BRANCH   1  34
ATOM     34  C22 NON d   1     -37.672  21.648  -3.529  0.00  0.00     0.257 C 
ATOM     35  O3  NON d   1     -37.059  22.620  -3.093  0.00  0.00    -0.270 OA
ATOM     36  N4  NON d   1     -38.103  21.564  -4.865  0.00  0.00    -0.325 N 
ATOM     37  H28 NON d   1     -38.173  20.664  -5.316  0.00  0.00     0.169 HD
BRANCH  36  38
ATOM     38  C23 NON d   1     -38.315  22.672  -5.758  0.00  0.00     0.034 A 
ATOM     39  C24 NON d   1     -39.092  22.492  -6.914  0.00  0.00     0.030 A 
ATOM     40  C25 NON d   1     -39.418  23.573  -7.785  0.00  0.00     0.018 A 
ATOM     41  C26 NON d   1     -39.023  24.895  -7.514  0.00  0.00     0.048 A 
ATOM     42  C28 NON d   1     -38.217  25.046  -6.355  0.00  0.00     0.018 A 
ATOM     43  C29 NON d   1     -37.868  23.966  -5.500  0.00  0.00     0.030 A 
BRANCH  41  44
ATOM     44  C27 NON d   1     -39.305  26.127  -8.393  0.00  0.00     0.417 C 
ATOM     45  F1  NON d   1     -39.588  27.360  -9.273  0.00  0.00    -0.166 F 
ATOM     46  F2  NON d   1     -37.961  26.608  -8.274  0.00  0.00    -0.166 F 
ATOM     47  F3  NON d   1     -39.974  26.831  -7.338  0.00  0.00    -0.166 F 
ENDBRANCH  41  44
ENDBRANCH  36  38
ENDBRANCH   1  34
TORSDOF 12
ENDMDL
MODEL 4
REMARK VINA RESULT:   -35.892      4.101      6.717
REMARK INTER + INTRA:         -41.446
REMARK INTER:                 -39.471
REMARK INTRA:                  -1.974
REMARK CONF_INDEPENDENT:        3.580
REMARK UNBOUND:                -1.974
REMARK  12 active torsions:
REMARK  status: ('A' for Active; 'I' for Inactive)
REMARK    1  A    between atoms: N1_1  and  C1_2 
REMARK    2  A    between atoms: C6_7  and  N2_8 
REMARK       I    between atoms: N2_8  and  C7_9 
REMARK    3  A    between atoms: C7_9  and  C8_11 
REMARK    4  A    between atoms: C9_12  and  C10_13 
REMARK    5  A    between atoms: C13_16  and  C14_17 
REMARK    6  A    between atoms: C14_17  and  N3_18 
REMARK    7  A    between atoms: C14_17  and  C22_27 
REMARK    8  A    between atoms: N3_18  and  C15_19 
REMARK    9  A    between atoms: C15_19  and  C16_20 
REMARK   10  A    between atoms: C16_20  and  C17_21 
REMARK       I    between atoms: C22_27  and  N4_29 
REMARK   11  A    between atoms: N4_29  and  C23_30 
REMARK   12  A    between atoms: C26_33  and  C27_34 
ROOT
ATOM      1  C14 NON d   1     -37.937  20.310  -2.512  0.00  0.00     0.310 C 
ENDROOT
BRANCH   1   2
ATOM      2  C13 NON d   1     -39.314  19.685  -2.860  0.00  0.00    -0.019 A 
ATOM      3  C12 NON d   1     -40.246  19.255  -1.891  0.00  0.00     0.010 A 
ATOM      4  C11 NON d   1     -41.435  18.581  -2.240  0.00  0.00     0.012 A 
ATOM      5  C10 NON d   1     -41.754  18.278  -3.571  0.00  0.00    -0.036 A 
ATOM      6  C31 NON d   1     -40.837  18.687  -4.540  0.00  0.00     0.012 A 
ATOM      7  C30 NON d   1     -39.642  19.361  -4.192  0.00  0.00     0.010 A 
BRANCH   5   8
ATOM      8  C9  NON d   1     -43.022  17.562  -3.856  0.00  0.00     0.017 C 
ATOM      9  C8  NON d   1     -43.883  17.735  -4.879  0.00  0.00     0.075 C 
BRANCH   9  10
ATOM     10  C7  NON d   1     -45.133  16.896  -4.945  0.00  0.00     0.245 C 
ATOM     11  N2  NON d   1     -46.061  17.222  -3.976  0.00  0.00    -0.322 N 
ATOM     12  H7  NON d   1     -45.878  18.003  -3.359  0.00  0.00     0.169 HD
ATOM     13  O1  NON d   1     -45.239  16.016  -5.792  0.00  0.00    -0.268 OA
BRANCH  11  14
ATOM     14  C6  NON d   1     -47.338  16.631  -3.761  0.00  0.00     0.056 A 
ATOM     15  C5  NON d   1     -47.945  16.528  -2.506  0.00  0.00     0.031 A 
ATOM     16  C4  NON d   1     -49.168  15.863  -2.357  0.00  0.00     0.002 A 
ATOM     17  C3  NON d   1     -49.796  15.284  -3.457  0.00  0.00     0.002 A 
ATOM     18  C2  NON d   1     -49.207  15.383  -4.715  0.00  0.00     0.025 A 
ATOM     19  C1  NON d   1     -48.010  16.095  -4.889  0.00  0.00     0.033 A 
BRANCH  19  20
ATOM     20  N1  NON d   1     -47.441  16.176  -6.184  0.00  0.00    -0.301 NA
ATOM     21  H1  NON d   1     -46.726  16.898  -6.240  0.00  0.00     0.124 HD
ATOM     22  H2  NON d   1     -47.046  15.280  -6.461  0.00  0.00     0.124 HD
ENDBRANCH  19  20
ENDBRANCH  11  14
ENDBRANCH   9  10
ENDBRANCH   5   8
ENDBRANCH   1   2
BRANCH   1  23
ATOM     23  N3  NON d   1     -37.619  20.347  -1.003  0.00  0.00    -0.058 N 
ATOM     24  H13 NON d   1     -36.683  19.964  -0.863  0.00  0.00     0.278 HD
ATOM     25  H14 NON d   1     -38.243  19.652  -0.571  0.00  0.00     0.278 HD
BRANCH  23  26
ATOM     26  C15 NON d   1     -37.759  21.643  -0.248  0.00  0.00     0.234 C 
BRANCH  26  27
ATOM     27  C16 NON d   1     -39.244  21.853   0.129  0.00  0.00     0.032 C 
BRANCH  27  28
ATOM     28  C17 NON d   1     -39.749  23.302   0.363  0.00  0.00    -0.009 C 
ATOM     29  C18 NON d   1     -41.273  23.460   0.316  0.00  0.00     0.031 C 
ATOM     30  C19 NON d   1     -41.708  24.868   0.706  0.00  0.00     0.168 C 
ATOM     31  O2  NON d   1     -41.202  25.159   2.003  0.00  0.00    -0.391 OA
ATOM     32  C20 NON d   1     -39.779  25.253   1.997  0.00  0.00     0.168 C 
ATOM     33  C21 NON d   1     -39.168  23.896   1.662  0.00  0.00     0.031 C 
ENDBRANCH  27  28
ENDBRANCH  26  27
ENDBRANCH  23  26
ENDBRANCH   1  23
BRANCH   1  34
ATOM     34  C22 NON d   1     -37.507  21.620  -3.306  0.00  0.00     0.257 C 
ATOM     35  O3  NON d   1     -37.026  22.592  -2.729  0.00  0.00    -0.270 OA
ATOM     36  N4  NON d   1     -37.755  21.610  -4.691  0.00  0.00    -0.325 N 
ATOM     37  H28 NON d   1     -37.703  20.744  -5.206  0.00  0.00     0.169 HD
BRANCH  36  38
ATOM     38  C23 NON d   1     -37.927  22.767  -5.528  0.00  0.00     0.034 A 
ATOM     39  C24 NON d   1     -36.980  23.046  -6.528  0.00  0.00     0.030 A 
ATOM     40  C25 NON d   1     -37.146  24.120  -7.450  0.00  0.00     0.018 A 
ATOM     41  C26 NON d   1     -38.291  24.936  -7.449  0.00  0.00     0.048 A 
ATOM     42  C28 NON d   1     -39.218  24.651  -6.414  0.00  0.00     0.018 A 
ATOM     43  C29 NON d   1     -39.044  23.598  -5.475  0.00  0.00     0.030 A 
BRANCH  41  44
ATOM     44  C27 NON d   1     -38.560  26.128  -8.386  0.00  0.00     0.417 C 
ATOM     45  F1  NON d   1     -38.829  27.321  -9.323  0.00  0.00    -0.166 F 
ATOM     46  F2  NON d   1     -38.021  27.073  -7.453  0.00  0.00    -0.166 F 
ATOM     47  F3  NON d   1     -39.959  26.163  -8.077  0.00  0.00    -0.166 F 
ENDBRANCH  41  44
ENDBRANCH  36  38
ENDBRANCH   1  34
TORSDOF 12
ENDMDL
MODEL 5
REMARK VINA RESULT:   -35.578      4.217      6.439
REMARK INTER + INTRA:         -41.847
REMARK INTER:                 -39.157
REMARK INTRA:                  -2.690
REMARK CONF_INDEPENDENT:        3.580
REMARK UNBOUND:                -2.690
REMARK  12 active torsions:
REMARK  status: ('A' for Active; 'I' for Inactive)
REMARK    1  A    between atoms: N1_1  and  C1_2 
REMARK    2  A    between atoms: C6_7  and  N2_8 
REMARK       I    between atoms: N2_8  and  C7_9 
REMARK    3  A    between atoms: C7_9  and  C8_11 
REMARK    4  A    between atoms: C9_12  and  C10_13 
REMARK    5  A    between atoms: C13_16  and  C14_17 
REMARK    6  A    between atoms: C14_17  and  N3_18 
REMARK    7  A    between atoms: C14_17  and  C22_27 
REMARK    8  A    between atoms: N3_18  and  C15_19 
REMARK    9  A    between atoms: C15_19  and  C16_20 
REMARK   10  A    between atoms: C16_20  and  C17_21 
REMARK       I    between atoms: C22_27  and  N4_29 
REMARK   11  A    between atoms: N4_29  and  C23_30 
REMARK   12  A    between atoms: C26_33  and  C27_34 
ROOT
ATOM      1  C14 NON d   1     -37.959  20.227  -2.478  0.00  0.00     0.310 C 
ENDROOT
BRANCH   1   2
ATOM      2  C13 NON d   1     -39.337  19.551  -2.707  0.00  0.00    -0.019 A 
ATOM      3  C12 NON d   1     -39.608  18.201  -2.397  0.00  0.00     0.010 A 
ATOM      4  C11 NON d   1     -40.831  17.585  -2.730  0.00  0.00     0.012 A 
ATOM      5  C10 NON d   1     -41.848  18.271  -3.410  0.00  0.00    -0.036 A 
ATOM      6  C31 NON d   1     -41.591  19.603  -3.733  0.00  0.00     0.012 A 
ATOM      7  C30 NON d   1     -40.362  20.223  -3.402  0.00  0.00     0.010 A 
BRANCH   5   8
ATOM      8  C9  NON d   1     -43.105  17.550  -3.729  0.00  0.00     0.017 C 
ATOM      9  C8  NON d   1     -43.863  17.618  -4.842  0.00  0.00     0.075 C 
BRANCH   9  10
ATOM     10  C7  NON d   1     -45.127  16.802  -4.930  0.00  0.00     0.245 C 
ATOM     11  N2  NON d   1     -46.045  17.111  -3.946  0.00  0.00    -0.322 N 
ATOM     12  H7  NON d   1     -45.847  17.868  -3.305  0.00  0.00     0.169 HD
ATOM     13  O1  NON d   1     -45.250  15.951  -5.804  0.00  0.00    -0.268 OA
BRANCH  11  14
ATOM     14  C6  NON d   1     -47.330  16.534  -3.744  0.00  0.00     0.056 A 
ATOM     15  C5  NON d   1     -47.939  16.412  -2.492  0.00  0.00     0.031 A 
ATOM     16  C4  NON d   1     -49.172  15.762  -2.357  0.00  0.00     0.002 A 
ATOM     17  C3  NON d   1     -49.807  15.215  -3.469  0.00  0.00     0.002 A 
ATOM     18  C2  NON d   1     -49.216  15.332  -4.725  0.00  0.00     0.025 A 
ATOM     19  C1  NON d   1     -48.009  16.031  -4.883  0.00  0.00     0.033 A 
BRANCH  19  20
ATOM     20  N1  NON d   1     -47.438  16.131  -6.176  0.00  0.00    -0.301 NA
ATOM     21  H1  NON d   1     -46.805  16.925  -6.251  0.00  0.00     0.124 HD
ATOM     22  H2  NON d   1     -46.945  15.275  -6.419  0.00  0.00     0.124 HD
ENDBRANCH  19  20
ENDBRANCH  11  14
ENDBRANCH   9  10
ENDBRANCH   5   8
ENDBRANCH   1   2
BRANCH   1  23
ATOM     23  N3  NON d   1     -37.590  20.430  -0.994  0.00  0.00    -0.058 N 
ATOM     24  H13 NON d   1     -36.573  20.474  -0.919  0.00  0.00     0.278 HD
ATOM     25  H14 NON d   1     -37.840  19.550  -0.523  0.00  0.00     0.278 HD
BRANCH  23  26
ATOM     26  C15 NON d   1     -38.208  21.570  -0.225  0.00  0.00     0.234 C 
BRANCH  26  27
ATOM     27  C16 NON d   1     -39.747  21.448  -0.288  0.00  0.00     0.032 C 
BRANCH  27  28
ATOM     28  C17 NON d   1     -40.578  22.727  -0.581  0.00  0.00    -0.009 C 
ATOM     29  C18 NON d   1     -40.379  23.862   0.430  0.00  0.00     0.031 C 
ATOM     30  C19 NON d   1     -41.097  25.135  -0.000  0.00  0.00     0.168 C 
ATOM     31  O2  NON d   1     -40.631  25.510  -1.290  0.00  0.00    -0.391 OA
ATOM     32  C20 NON d   1     -41.029  24.566  -2.282  0.00  0.00     0.168 C 
ATOM     33  C21 NON d   1     -40.355  23.222  -2.024  0.00  0.00     0.031 C 
ENDBRANCH  27  28
ENDBRANCH  26  27
ENDBRANCH  23  26
ENDBRANCH   1  23
BRANCH   1  34
ATOM     34  C22 NON d   1     -37.579  21.451  -3.422  0.00  0.00     0.257 C 
ATOM     35  O3  NON d   1     -36.891  22.385  -3.018  0.00  0.00    -0.270 OA
ATOM     36  N4  NON d   1     -38.116  21.415  -4.722  0.00  0.00    -0.325 N 
ATOM     37  H28 NON d   1     -38.262  20.530  -5.183  0.00  0.00     0.169 HD
BRANCH  36  38
ATOM     38  C23 NON d   1     -38.346  22.551  -5.574  0.00  0.00     0.034 A 
ATOM     39  C24 NON d   1     -37.433  22.842  -6.602  0.00  0.00     0.030 A 
ATOM     40  C25 NON d   1     -37.655  23.894  -7.537  0.00  0.00     0.018 A 
ATOM     41  C26 NON d   1     -38.826  24.673  -7.522  0.00  0.00     0.048 A 
ATOM     42  C28 NON d   1     -39.719  24.377  -6.459  0.00  0.00     0.018 A 
ATOM     43  C29 NON d   1     -39.488  23.347  -5.507  0.00  0.00     0.030 A 
BRANCH  41  44
ATOM     44  C27 NON d   1     -39.156  25.839  -8.471  0.00  0.00     0.417 C 
ATOM     45  F1  NON d   1     -39.486  27.006  -9.421  0.00  0.00    -0.166 F 
ATOM     46  F2  NON d   1     -38.606  25.162  -9.608  0.00  0.00    -0.166 F 
ATOM     47  F3  NON d   1     -38.047  26.628  -8.023  0.00  0.00    -0.166 F 
ENDBRANCH  41  44
ENDBRANCH  36  38
ENDBRANCH   1  34
TORSDOF 12
ENDMDL
MODEL 6
REMARK VINA RESULT:   -35.533      4.612      6.581
REMARK INTER + INTRA:         -41.517
REMARK INTER:                 -39.113
REMARK INTRA:                  -2.405
REMARK CONF_INDEPENDENT:        3.580
REMARK UNBOUND:                -2.405
REMARK  12 active torsions:
REMARK  status: ('A' for Active; 'I' for Inactive)
REMARK    1  A    between atoms: N1_1  and  C1_2 
REMARK    2  A    between atoms: C6_7  and  N2_8 
REMARK       I    between atoms: N2_8  and  C7_9 
REMARK    3  A    between atoms: C7_9  and  C8_11 
REMARK    4  A    between atoms: C9_12  and  C10_13 
REMARK    5  A    between atoms: C13_16  and  C14_17 
REMARK    6  A    between atoms: C14_17  and  N3_18 
REMARK    7  A    between atoms: C14_17  and  C22_27 
REMARK    8  A    between atoms: N3_18  and  C15_19 
REMARK    9  A    between atoms: C15_19  and  C16_20 
REMARK   10  A    between atoms: C16_20  and  C17_21 
REMARK       I    between atoms: C22_27  and  N4_29 
REMARK   11  A    between atoms: N4_29  and  C23_30 
REMARK   12  A    between atoms: C26_33  and  C27_34 
ROOT
ATOM      1  C14 NON d   1     -37.635  19.139  -2.998  0.00  0.00     0.310 C 
ENDROOT
BRANCH   1   2
ATOM      2  C13 NON d   1     -39.084  18.669  -3.296  0.00  0.00    -0.019 A 
ATOM      3  C12 NON d   1     -39.672  18.710  -4.579  0.00  0.00     0.010 A 
ATOM      4  C11 NON d   1     -41.028  18.390  -4.794  0.00  0.00     0.012 A 
ATOM      5  C10 NON d   1     -41.882  18.032  -3.741  0.00  0.00    -0.036 A 
ATOM      6  C31 NON d   1     -41.320  17.998  -2.466  0.00  0.00     0.012 A 
ATOM      7  C30 NON d   1     -39.958  18.321  -2.248  0.00  0.00     0.010 A 
BRANCH   5   8
ATOM      8  C9  NON d   1     -43.299  17.715  -4.048  0.00  0.00     0.017 C 
ATOM      9  C8  NON d   1     -44.069  18.165  -5.059  0.00  0.00     0.075 C 
BRANCH   9  10
ATOM     10  C7  NON d   1     -45.505  17.717  -5.153  0.00  0.00     0.245 C 
ATOM     11  N2  NON d   1     -45.960  17.097  -4.006  0.00  0.00    -0.322 N 
ATOM     12  H7  NON d   1     -45.353  17.046  -3.199  0.00  0.00     0.169 HD
ATOM     13  O1  NON d   1     -46.141  17.901  -6.186  0.00  0.00    -0.268 OA
BRANCH  11  14
ATOM     14  C6  NON d   1     -47.256  16.562  -3.762  0.00  0.00     0.056 A 
ATOM     15  C5  NON d   1     -47.835  16.476  -2.493  0.00  0.00     0.031 A 
ATOM     16  C4  NON d   1     -49.082  15.865  -2.316  0.00  0.00     0.002 A 
ATOM     17  C3  NON d   1     -49.763  15.322  -3.404  0.00  0.00     0.002 A 
ATOM     18  C2  NON d   1     -49.202  15.405  -4.677  0.00  0.00     0.025 A 
ATOM     19  C1  NON d   1     -47.979  16.065  -4.876  0.00  0.00     0.033 A 
BRANCH  19  20
ATOM     20  N1  NON d   1     -47.440  16.130  -6.185  0.00  0.00    -0.301 NA
ATOM     21  H1  NON d   1     -47.386  15.211  -6.619  0.00  0.00     0.124 HD
ATOM     22  H2  NON d   1     -47.989  16.755  -6.770  0.00  0.00     0.124 HD
ENDBRANCH  19  20
ENDBRANCH  11  14
ENDBRANCH   9  10
ENDBRANCH   5   8
ENDBRANCH   1   2
BRANCH   1  23
ATOM     23  N3  NON d   1     -37.366  19.468  -1.516  0.00  0.00    -0.058 N 
ATOM     24  H13 NON d   1     -36.384  19.269  -1.316  0.00  0.00     0.278 HD
ATOM     25  H14 NON d   1     -37.881  18.759  -0.976  0.00  0.00     0.278 HD
BRANCH  23  26
ATOM     26  C15 NON d   1     -37.730  20.828  -0.980  0.00  0.00     0.234 C 
BRANCH  26  27
ATOM     27  C16 NON d   1     -39.182  21.164  -1.392  0.00  0.00     0.032 C 
BRANCH  27  28
ATOM     28  C17 NON d   1     -39.431  22.433  -2.250  0.00  0.00    -0.009 C 
ATOM     29  C18 NON d   1     -38.164  23.214  -2.616  0.00  0.00     0.031 C 
ATOM     30  C19 NON d   1     -38.461  24.354  -3.583  0.00  0.00     0.168 C 
ATOM     31  O2  NON d   1     -39.085  23.818  -4.743  0.00  0.00    -0.391 OA
ATOM     32  C20 NON d   1     -40.382  23.304  -4.444  0.00  0.00     0.168 C 
ATOM     33  C21 NON d   1     -40.265  22.108  -3.504  0.00  0.00     0.031 C 
ENDBRANCH  27  28
ENDBRANCH  26  27
ENDBRANCH  23  26
ENDBRANCH   1  23
BRANCH   1  34
ATOM     34  C22 NON d   1     -36.970  20.154  -4.027  0.00  0.00     0.257 C 
ATOM     35  O3  NON d   1     -36.332  21.132  -3.644  0.00  0.00    -0.270 OA
ATOM     36  N4  NON d   1     -37.197  19.887  -5.390  0.00  0.00    -0.325 N 
ATOM     37  H28 NON d   1     -37.292  18.934  -5.708  0.00  0.00     0.169 HD
BRANCH  36  38
ATOM     38  C23 NON d   1     -37.151  20.847  -6.460  0.00  0.00     0.034 A 
ATOM     39  C24 NON d   1     -38.146  20.830  -7.451  0.00  0.00     0.030 A 
ATOM     40  C25 NON d   1     -38.209  21.814  -8.480  0.00  0.00     0.018 A 
ATOM     41  C26 NON d   1     -37.309  22.892  -8.538  0.00  0.00     0.048 A 
ATOM     42  C28 NON d   1     -36.298  22.873  -7.542  0.00  0.00     0.018 A 
ATOM     43  C29 NON d   1     -36.215  21.878  -6.531  0.00  0.00     0.030 A 
BRANCH  41  44
ATOM     44  C27 NON d   1     -37.278  23.995  -9.612  0.00  0.00     0.417 C 
ATOM     45  F1  NON d   1     -37.247  25.099 -10.687  0.00  0.00    -0.166 F 
ATOM     46  F2  NON d   1     -38.639  24.372  -9.365  0.00  0.00    -0.166 F 
ATOM     47  F3  NON d   1     -37.413  23.063 -10.693  0.00  0.00    -0.166 F 
ENDBRANCH  41  44
ENDBRANCH  36  38
ENDBRANCH   1  34
TORSDOF 12
ENDMDL
MODEL 7
REMARK VINA RESULT:   -35.381      1.175      1.585
REMARK INTER + INTRA:         -41.384
REMARK INTER:                 -38.961
REMARK INTRA:                  -2.423
REMARK CONF_INDEPENDENT:        3.580
REMARK UNBOUND:                -2.423
REMARK  12 active torsions:
REMARK  status: ('A' for Active; 'I' for Inactive)
REMARK    1  A    between atoms: N1_1  and  C1_2 
REMARK    2  A    between atoms: C6_7  and  N2_8 
REMARK       I    between atoms: N2_8  and  C7_9 
REMARK    3  A    between atoms: C7_9  and  C8_11 
REMARK    4  A    between atoms: C9_12  and  C10_13 
REMARK    5  A    between atoms: C13_16  and  C14_17 
REMARK    6  A    between atoms: C14_17  and  N3_18 
REMARK    7  A    between atoms: C14_17  and  C22_27 
REMARK    8  A    between atoms: N3_18  and  C15_19 
REMARK    9  A    between atoms: C15_19  and  C16_20 
REMARK   10  A    between atoms: C16_20  and  C17_21 
REMARK       I    between atoms: C22_27  and  N4_29 
REMARK   11  A    between atoms: N4_29  and  C23_30 
REMARK   12  A    between atoms: C26_33  and  C27_34 
ROOT
ATOM      1  C14 NON d   1     -38.275  21.336  -3.932  0.00  0.00     0.310 C 
ENDROOT
BRANCH   1   2
ATOM      2  C13 NON d   1     -39.463  20.371  -4.189  0.00  0.00    -0.019 A 
ATOM      3  C12 NON d   1     -40.499  20.632  -5.111  0.00  0.00     0.010 A 
ATOM      4  C11 NON d   1     -41.625  19.792  -5.232  0.00  0.00     0.012 A 
ATOM      5  C10 NON d   1     -41.796  18.657  -4.427  0.00  0.00    -0.036 A 
ATOM      6  C31 NON d   1     -40.786  18.391  -3.503  0.00  0.00     0.012 A 
ATOM      7  C30 NON d   1     -39.655  19.234  -3.378  0.00  0.00     0.010 A 
BRANCH   5   8
ATOM      8  C9  NON d   1     -43.012  17.827  -4.612  0.00  0.00     0.017 C 
ATOM      9  C8  NON d   1     -44.307  18.178  -4.478  0.00  0.00     0.075 C 
BRANCH   9  10
ATOM     10  C7  NON d   1     -45.381  17.144  -4.695  0.00  0.00     0.245 C 
ATOM     11  N2  NON d   1     -46.435  17.257  -3.809  0.00  0.00    -0.322 N 
ATOM     12  H7  NON d   1     -46.446  18.024  -3.151  0.00  0.00     0.169 HD
ATOM     13  O1  NON d   1     -45.256  16.303  -5.579  0.00  0.00    -0.268 OA
BRANCH  11  14
ATOM     14  C6  NON d   1     -47.603  16.447  -3.741  0.00  0.00     0.056 A 
ATOM     15  C5  NON d   1     -48.278  16.157  -2.552  0.00  0.00     0.031 A 
ATOM     16  C4  NON d   1     -49.376  15.288  -2.547  0.00  0.00     0.002 A 
ATOM     17  C3  NON d   1     -49.809  14.690  -3.729  0.00  0.00     0.002 A 
ATOM     18  C2  NON d   1     -49.150  14.974  -4.923  0.00  0.00     0.025 A 
ATOM     19  C1  NON d   1     -48.084  15.887  -4.951  0.00  0.00     0.033 A 
BRANCH  19  20
ATOM     20  N1  NON d   1     -47.440  16.152  -6.185  0.00  0.00    -0.301 NA
ATOM     21  H1  NON d   1     -48.071  16.036  -6.976  0.00  0.00     0.124 HD
ATOM     22  H2  NON d   1     -47.048  17.091  -6.193  0.00  0.00     0.124 HD
ENDBRANCH  19  20
ENDBRANCH  11  14
ENDBRANCH   9  10
ENDBRANCH   5   8
ENDBRANCH   1   2
BRANCH   1  23
ATOM     23  N3  NON d   1     -36.893  20.653  -3.911  0.00  0.00    -0.058 N 
ATOM     24  H13 NON d   1     -36.945  19.842  -3.292  0.00  0.00     0.278 HD
ATOM     25  H14 NON d   1     -36.268  21.306  -3.420  0.00  0.00     0.278 HD
BRANCH  23  26
ATOM     26  C15 NON d   1     -36.240  20.260  -5.211  0.00  0.00     0.234 C 
BRANCH  26  27
ATOM     27  C16 NON d   1     -36.602  21.301  -6.296  0.00  0.00     0.032 C 
BRANCH  27  28
ATOM     28  C17 NON d   1     -37.687  20.930  -7.342  0.00  0.00    -0.009 C 
ATOM     29  C18 NON d   1     -38.094  19.452  -7.342  0.00  0.00     0.031 C 
ATOM     30  C19 NON d   1     -39.266  19.187  -8.278  0.00  0.00     0.168 C 
ATOM     31  O2  NON d   1     -40.354  20.018  -7.895  0.00  0.00    -0.391 OA
ATOM     32  C20 NON d   1     -40.064  21.395  -8.126  0.00  0.00     0.168 C 
ATOM     33  C21 NON d   1     -38.921  21.846  -7.221  0.00  0.00     0.031 C 
ENDBRANCH  27  28
ENDBRANCH  26  27
ENDBRANCH  23  26
ENDBRANCH   1  23
BRANCH   1  34
ATOM     34  C22 NON d   1     -38.471  22.455  -2.818  0.00  0.00     0.257 C 
ATOM     35  O3  NON d   1     -37.517  23.080  -2.360  0.00  0.00    -0.270 OA
ATOM     36  N4  NON d   1     -39.789  22.648  -2.364  0.00  0.00    -0.325 N 
ATOM     37  H28 NON d   1     -40.564  22.512  -2.994  0.00  0.00     0.169 HD
BRANCH  36  38
ATOM     38  C23 NON d   1     -40.173  23.196  -1.090  0.00  0.00     0.034 A 
ATOM     39  C24 NON d   1     -40.096  22.394   0.061  0.00  0.00     0.030 A 
ATOM     40  C25 NON d   1     -40.370  22.907   1.362  0.00  0.00     0.018 A 
ATOM     41  C26 NON d   1     -40.685  24.260   1.580  0.00  0.00     0.048 A 
ATOM     42  C28 NON d   1     -40.783  25.042   0.400  0.00  0.00     0.018 A 
ATOM     43  C29 NON d   1     -40.537  24.527  -0.902  0.00  0.00     0.030 A 
BRANCH  41  44
ATOM     44  C27 NON d   1     -41.015  24.911   2.937  0.00  0.00     0.417 C 
ATOM     45  F1  NON d   1     -41.344  25.561   4.293  0.00  0.00    -0.166 F 
ATOM     46  F2  NON d   1     -41.977  25.800   2.356  0.00  0.00    -0.166 F 
ATOM     47  F3  NON d   1     -39.825  25.710   2.937  0.00  0.00    -0.166 F 
ENDBRANCH  41  44
ENDBRANCH  36  38
ENDBRANCH   1  34
TORSDOF 12
ENDMDL
MODEL 8
REMARK VINA RESULT:   -34.802      4.698      7.424
REMARK INTER + INTRA:         -41.169
REMARK INTER:                 -38.381
REMARK INTRA:                  -2.788
REMARK CONF_INDEPENDENT:        3.580
REMARK UNBOUND:                -2.788
REMARK  12 active torsions:
REMARK  status: ('A' for Active; 'I' for Inactive)
REMARK    1  A    between atoms: N1_1  and  C1_2 
REMARK    2  A    between atoms: C6_7  and  N2_8 
REMARK       I    between atoms: N2_8  and  C7_9 
REMARK    3  A    between atoms: C7_9  and  C8_11 
REMARK    4  A    between atoms: C9_12  and  C10_13 
REMARK    5  A    between atoms: C13_16  and  C14_17 
REMARK    6  A    between atoms: C14_17  and  N3_18 
REMARK    7  A    between atoms: C14_17  and  C22_27 
REMARK    8  A    between atoms: N3_18  and  C15_19 
REMARK    9  A    between atoms: C15_19  and  C16_20 
REMARK   10  A    between atoms: C16_20  and  C17_21 
REMARK       I    between atoms: C22_27  and  N4_29 
REMARK   11  A    between atoms: N4_29  and  C23_30 
REMARK   12  A    between atoms: C26_33  and  C27_34 
ROOT
ATOM      1  C14 NON d   1     -37.736  20.708  -3.870  0.00  0.00     0.310 C 
ENDROOT
BRANCH   1   2
ATOM      2  C13 NON d   1     -39.095  19.959  -3.896  0.00  0.00    -0.019 A 
ATOM      3  C12 NON d   1     -39.247  18.600  -3.546  0.00  0.00     0.010 A 
ATOM      4  C11 NON d   1     -40.472  17.918  -3.696  0.00  0.00     0.012 A 
ATOM      5  C10 NON d   1     -41.611  18.544  -4.223  0.00  0.00    -0.036 A 
ATOM      6  C31 NON d   1     -41.474  19.883  -4.585  0.00  0.00     0.012 A 
ATOM      7  C30 NON d   1     -40.244  20.569  -4.437  0.00  0.00     0.010 A 
BRANCH   5   8
ATOM      8  C9  NON d   1     -42.862  17.756  -4.355  0.00  0.00     0.017 C 
ATOM      9  C8  NON d   1     -43.952  18.014  -5.105  0.00  0.00     0.075 C 
BRANCH   9  10
ATOM     10  C7  NON d   1     -45.125  17.070  -5.056  0.00  0.00     0.245 C 
ATOM     11  N2  NON d   1     -46.061  17.411  -4.100  0.00  0.00    -0.322 N 
ATOM     12  H7  NON d   1     -45.936  18.263  -3.569  0.00  0.00     0.169 HD
ATOM     13  O1  NON d   1     -45.169  16.102  -5.809  0.00  0.00    -0.268 OA
BRANCH  11  14
ATOM     14  C6  NON d   1     -47.278  16.739  -3.795  0.00  0.00     0.056 A 
ATOM     15  C5  NON d   1     -47.824  16.667  -2.511  0.00  0.00     0.031 A 
ATOM     16  C4  NON d   1     -48.985  15.921  -2.269  0.00  0.00     0.002 A 
ATOM     17  C3  NON d   1     -49.608  15.229  -3.305  0.00  0.00     0.002 A 
ATOM     18  C2  NON d   1     -49.079  15.296  -4.592  0.00  0.00     0.025 A 
ATOM     19  C1  NON d   1     -47.950  16.085  -4.859  0.00  0.00     0.033 A 
BRANCH  19  20
ATOM     20  N1  NON d   1     -47.440  16.130  -6.181  0.00  0.00    -0.301 NA
ATOM     21  H1  NON d   1     -46.999  17.024  -6.387  0.00  0.00     0.124 HD
ATOM     22  H2  NON d   1     -46.777  15.375  -6.337  0.00  0.00     0.124 HD
ENDBRANCH  19  20
ENDBRANCH  11  14
ENDBRANCH   9  10
ENDBRANCH   5   8
ENDBRANCH   1   2
BRANCH   1  23
ATOM     23  N3  NON d   1     -37.295  21.176  -2.469  0.00  0.00    -0.058 N 
ATOM     24  H13 NON d   1     -37.299  22.197  -2.456  0.00  0.00     0.278 HD
ATOM     25  H14 NON d   1     -36.299  20.928  -2.394  0.00  0.00     0.278 HD
BRANCH  23  26
ATOM     26  C15 NON d   1     -38.008  20.647  -1.251  0.00  0.00     0.234 C 
BRANCH  26  27
ATOM     27  C16 NON d   1     -39.459  21.178  -1.242  0.00  0.00     0.032 C 
BRANCH  27  28
ATOM     28  C17 NON d   1     -39.760  22.495  -0.478  0.00  0.00    -0.009 C 
ATOM     29  C18 NON d   1     -40.537  23.539  -1.289  0.00  0.00     0.031 C 
ATOM     30  C19 NON d   1     -40.932  24.738  -0.436  0.00  0.00     0.168 C 
ATOM     31  O2  NON d   1     -41.696  24.279   0.672  0.00  0.00    -0.391 OA
ATOM     32  C20 NON d   1     -40.901  23.500   1.564  0.00  0.00     0.168 C 
ATOM     33  C21 NON d   1     -40.448  22.217   0.873  0.00  0.00     0.031 C 
ENDBRANCH  27  28
ENDBRANCH  26  27
ENDBRANCH  23  26
ENDBRANCH   1  23
BRANCH   1  34
ATOM     34  C22 NON d   1     -37.460  21.760  -5.032  0.00  0.00     0.257 C 
ATOM     35  O3  NON d   1     -37.032  22.886  -4.791  0.00  0.00    -0.270 OA
ATOM     36  N4  NON d   1     -37.777  21.335  -6.335  0.00  0.00    -0.325 N 
ATOM     37  H28 NON d   1     -37.679  20.364  -6.587  0.00  0.00     0.169 HD
BRANCH  36  38
ATOM     38  C23 NON d   1     -38.089  22.189  -7.451  0.00  0.00     0.034 A 
ATOM     39  C24 NON d   1     -37.145  22.361  -8.477  0.00  0.00     0.030 A 
ATOM     40  C25 NON d   1     -37.432  23.115  -9.652  0.00  0.00     0.018 A 
ATOM     41  C26 NON d   1     -38.694  23.691  -9.880  0.00  0.00     0.048 A 
ATOM     42  C28 NON d   1     -39.620  23.526  -8.818  0.00  0.00     0.018 A 
ATOM     43  C29 NON d   1     -39.329  22.798  -7.632  0.00  0.00     0.030 A 
BRANCH  41  44
ATOM     44  C27 NON d   1     -39.102  24.536 -11.102  0.00  0.00     0.417 C 
ATOM     45  F1  NON d   1     -39.509  25.380 -12.324  0.00  0.00    -0.166 F 
ATOM     46  F2  NON d   1     -38.763  25.767 -10.452  0.00  0.00    -0.166 F 
ATOM     47  F3  NON d   1     -40.502  24.420 -10.820  0.00  0.00    -0.166 F 
ENDBRANCH  41  44
ENDBRANCH  36  38
ENDBRANCH   1  34
TORSDOF 12
ENDMDL
