MODEL 1
REMARK VINA RESULT:   -17.875      0.000      0.000
REMARK INTER + INTRA:         -21.656
REMARK INTER:                 -19.963
REMARK INTRA:                  -1.693
REMARK CONF_INDEPENDENT:        2.088
REMARK UNBOUND:                -1.693
REMARK  7 active torsions:
REMARK  status: ('A' for Active; 'I' for Inactive)
REMARK    1  A    between atoms: C2_2  and  N1_3 
REMARK       I    between atoms: N2_6  and  C5_7 
REMARK       I    between atoms: C5_7  and  N3_9 
REMARK    2  A    between atoms: N3_9  and  C6_10 
REMARK    3  A    between atoms: C6_10  and  C7_11 
REMARK    4  A    between atoms: C10_14  and  C11_15 
REMARK       I    between atoms: C11_15  and  N4_17 
REMARK    5  A    between atoms: N4_17  and  C12_18 
REMARK    6  A    between atoms: C14_20  and  C15_21 
REMARK    7  A    between atoms: C21_28  and  N5_29 
ROOT
ATOM      1  C7  NON d   1     -40.600  18.282  -4.021  0.00  0.00    -0.040 A 
ATOM      2  C8  NON d   1     -41.374  17.706  -2.985  0.00  0.00     0.010 A 
ATOM      3  C9  NON d   1     -42.753  17.427  -3.129  0.00  0.00     0.017 A 
ATOM      4  C10 NON d   1     -43.399  17.723  -4.327  0.00  0.00     0.032 A 
ATOM      5  C22 NON d   1     -42.625  18.273  -5.371  0.00  0.00     0.017 A 
ATOM      6  C23 NON d   1     -41.251  18.543  -5.227  0.00  0.00     0.010 A 
ENDROOT
BRANCH   4   7
ATOM      7  C11 NON d   1     -44.875  17.576  -4.577  0.00  0.00     0.256 C 
ATOM      8  O2  NON d   1     -45.219  17.551  -5.758  0.00  0.00    -0.267 OA
ATOM      9  N4  NON d   1     -45.758  17.502  -3.501  0.00  0.00    -0.321 N 
ATOM     10  H15 NON d   1     -45.400  17.735  -2.586  0.00  0.00     0.169 HD
BRANCH   9  11
ATOM     11  C12 NON d   1     -47.172  17.221  -3.566  0.00  0.00     0.057 A 
ATOM     12  C13 NON d   1     -47.938  17.484  -2.398  0.00  0.00     0.044 A 
ATOM     13  C14 NON d   1     -49.338  17.256  -2.331  0.00  0.00    -0.017 A 
ATOM     14  C19 NON d   1     -49.949  16.717  -3.468  0.00  0.00     0.014 A 
ATOM     15  C20 NON d   1     -49.213  16.414  -4.608  0.00  0.00     0.026 A 
ATOM     16  C21 NON d   1     -47.841  16.686  -4.694  0.00  0.00     0.033 A 
BRANCH  13  17
ATOM     17  C15 NON d   1     -50.135  17.558  -1.106  0.00  0.00     0.015 A 
ATOM     18  C16 NON d   1     -49.718  17.806   0.192  0.00  0.00     0.020 A 
ATOM     19  C17 NON d   1     -50.792  18.055   1.103  0.00  0.00     0.008 A 
ATOM     20  C18 NON d   1     -52.018  17.999   0.485  0.00  0.00     0.050 A 
ATOM     21  S1  NON d   1     -51.869  17.656  -1.173  0.00  0.00    -0.101 SA
ENDBRANCH  13  17
BRANCH  16  22
ATOM     22  N5  NON d   1     -47.181  16.130  -5.812  0.00  0.00    -0.301 NA
ATOM     23  H22 NON d   1     -46.256  15.787  -5.536  0.00  0.00     0.124 HD
ATOM     24  H23 NON d   1     -47.070  16.790  -6.573  0.00  0.00     0.124 HD
ENDBRANCH  16  22
ENDBRANCH   9  11
ENDBRANCH   4   7
BRANCH   1  25
ATOM     25  C6  NON d   1     -39.132  18.589  -3.756  0.00  0.00     0.162 C 
BRANCH  25  26
ATOM     26  N3  NON d   1     -38.775  19.435  -2.619  0.00  0.00    -0.338 N 
ATOM     27  C5  NON d   1     -39.665  20.393  -2.173  0.00  0.00     0.325 C 
ATOM     28  N2  NON d   1     -39.236  21.263  -1.152  0.00  0.00    -0.260 N 
ATOM     29  O1  NON d   1     -40.804  20.461  -2.640  0.00  0.00    -0.247 OA
ATOM     30  C4  NON d   1     -40.278  22.107  -0.583  0.00  0.00     0.157 C 
ATOM     31  C24 NON d   1     -37.971  21.239  -0.559  0.00  0.00     0.319 C 
ATOM     32  C3  NON d   1     -39.797  23.298   0.238  0.00  0.00     0.146 C 
ATOM     33  N1  NON d   1     -38.718  22.994   1.157  0.00  0.00    -0.343 N 
ATOM     34  C25 NON d   1     -37.680  22.188   0.645  0.00  0.00     0.312 C 
ATOM     35  O4  NON d   1     -36.541  22.178   1.101  0.00  0.00    -0.262 OA
ATOM     36  O3  NON d   1     -37.057  20.524  -0.968  0.00  0.00    -0.262 OA
ATOM     37  H10 NON d   1     -37.798  19.570  -2.374  0.00  0.00     0.164 HD
BRANCH  33  38
ATOM     38  C2  NON d   1     -38.491  23.980   2.276  0.00  0.00     0.122 C 
ATOM     39  C1  NON d   1     -39.792  24.575   2.845  0.00  0.00     0.026 C 
ENDBRANCH  33  38
ENDBRANCH  25  26
ENDBRANCH   1  25
TORSDOF 7
ENDMDL
MODEL 2
REMARK VINA RESULT:   -16.657      1.788      1.892
REMARK INTER + INTRA:         -20.584
REMARK INTER:                 -18.745
REMARK INTRA:                  -1.839
REMARK CONF_INDEPENDENT:        2.088
REMARK UNBOUND:                -1.839
REMARK  7 active torsions:
REMARK  status: ('A' for Active; 'I' for Inactive)
REMARK    1  A    between atoms: C2_2  and  N1_3 
REMARK       I    between atoms: N2_6  and  C5_7 
REMARK       I    between atoms: C5_7  and  N3_9 
REMARK    2  A    between atoms: N3_9  and  C6_10 
REMARK    3  A    between atoms: C6_10  and  C7_11 
REMARK    4  A    between atoms: C10_14  and  C11_15 
REMARK       I    between atoms: C11_15  and  N4_17 
REMARK    5  A    between atoms: N4_17  and  C12_18 
REMARK    6  A    between atoms: C14_20  and  C15_21 
REMARK    7  A    between atoms: C21_28  and  N5_29 
ROOT
ATOM      1  C7  NON d   1     -40.550  18.480  -4.055  0.00  0.00    -0.040 A 
ATOM      2  C8  NON d   1     -41.306  17.854  -3.034  0.00  0.00     0.010 A 
ATOM      3  C9  NON d   1     -42.688  17.583  -3.168  0.00  0.00     0.017 A 
ATOM      4  C10 NON d   1     -43.354  17.937  -4.339  0.00  0.00     0.032 A 
ATOM      5  C22 NON d   1     -42.598  18.536  -5.368  0.00  0.00     0.017 A 
ATOM      6  C23 NON d   1     -41.221  18.798  -5.235  0.00  0.00     0.010 A 
ENDROOT
BRANCH   4   7
ATOM      7  C11 NON d   1     -44.835  17.803  -4.570  0.00  0.00     0.256 C 
ATOM      8  O2  NON d   1     -45.214  17.968  -5.729  0.00  0.00    -0.267 OA
ATOM      9  N4  NON d   1     -45.683  17.530  -3.498  0.00  0.00    -0.321 N 
ATOM     10  H15 NON d   1     -45.302  17.615  -2.567  0.00  0.00     0.169 HD
BRANCH   9  11
ATOM     11  C12 NON d   1     -47.094  17.235  -3.571  0.00  0.00     0.057 A 
ATOM     12  C13 NON d   1     -47.871  17.497  -2.410  0.00  0.00     0.044 A 
ATOM     13  C14 NON d   1     -49.269  17.255  -2.351  0.00  0.00    -0.017 A 
ATOM     14  C19 NON d   1     -49.866  16.703  -3.489  0.00  0.00     0.014 A 
ATOM     15  C20 NON d   1     -49.119  16.401  -4.622  0.00  0.00     0.026 A 
ATOM     16  C21 NON d   1     -47.749  16.686  -4.700  0.00  0.00     0.033 A 
BRANCH  13  17
ATOM     17  C15 NON d   1     -50.077  17.556  -1.134  0.00  0.00     0.015 A 
ATOM     18  C16 NON d   1     -49.673  17.792   0.171  0.00  0.00     0.020 A 
ATOM     19  C17 NON d   1     -50.756  18.045   1.071  0.00  0.00     0.008 A 
ATOM     20  C18 NON d   1     -51.975  18.005   0.439  0.00  0.00     0.050 A 
ATOM     21  S1  NON d   1     -51.809  17.672  -1.220  0.00  0.00    -0.101 SA
ENDBRANCH  13  17
BRANCH  16  22
ATOM     22  N5  NON d   1     -47.076  16.130  -5.810  0.00  0.00    -0.301 NA
ATOM     23  H22 NON d   1     -46.181  15.731  -5.511  0.00  0.00     0.124 HD
ATOM     24  H23 NON d   1     -46.903  16.806  -6.545  0.00  0.00     0.124 HD
ENDBRANCH  16  22
ENDBRANCH   9  11
ENDBRANCH   4   7
BRANCH   1  25
ATOM     25  C6  NON d   1     -39.077  18.773  -3.800  0.00  0.00     0.162 C 
BRANCH  25  26
ATOM     26  N3  NON d   1     -38.668  20.137  -3.475  0.00  0.00    -0.338 N 
ATOM     27  C5  NON d   1     -39.420  20.884  -2.589  0.00  0.00     0.325 C 
ATOM     28  N2  NON d   1     -39.057  22.231  -2.393  0.00  0.00    -0.260 N 
ATOM     29  O1  NON d   1     -40.359  20.374  -1.974  0.00  0.00    -0.247 OA
ATOM     30  C4  NON d   1     -39.749  22.903  -1.301  0.00  0.00     0.157 C 
ATOM     31  C24 NON d   1     -37.998  22.877  -3.036  0.00  0.00     0.319 C 
ATOM     32  C3  NON d   1     -39.668  24.425  -1.296  0.00  0.00     0.146 C 
ATOM     33  N1  NON d   1     -38.346  24.953  -1.570  0.00  0.00    -0.343 N 
ATOM     34  C25 NON d   1     -37.643  24.340  -2.628  0.00  0.00     0.312 C 
ATOM     35  O4  NON d   1     -36.744  24.891  -3.255  0.00  0.00    -0.262 OA
ATOM     36  O3  NON d   1     -37.350  22.353  -3.942  0.00  0.00    -0.262 OA
ATOM     37  H10 NON d   1     -38.070  20.655  -4.115  0.00  0.00     0.164 HD
BRANCH  33  38
ATOM     38  C2  NON d   1     -38.099  26.386  -1.166  0.00  0.00     0.122 C 
ATOM     39  C1  NON d   1     -36.838  26.573  -0.301  0.00  0.00     0.026 C 
ENDBRANCH  33  38
ENDBRANCH  25  26
ENDBRANCH   1  25
TORSDOF 7
ENDMDL
MODEL 3
REMARK VINA RESULT:   -15.467      3.101     10.407
REMARK INTER + INTRA:         -19.133
REMARK INTER:                 -17.555
REMARK INTRA:                  -1.577
REMARK CONF_INDEPENDENT:        2.088
REMARK UNBOUND:                -1.577
REMARK  7 active torsions:
REMARK  status: ('A' for Active; 'I' for Inactive)
REMARK    1  A    between atoms: C2_2  and  N1_3 
REMARK       I    between atoms: N2_6  and  C5_7 
REMARK       I    between atoms: C5_7  and  N3_9 
REMARK    2  A    between atoms: N3_9  and  C6_10 
REMARK    3  A    between atoms: C6_10  and  C7_11 
REMARK    4  A    between atoms: C10_14  and  C11_15 
REMARK       I    between atoms: C11_15  and  N4_17 
REMARK    5  A    between atoms: N4_17  and  C12_18 
REMARK    6  A    between atoms: C14_20  and  C15_21 
REMARK    7  A    between atoms: C21_28  and  N5_29 
ROOT
ATOM      1  C7  NON d   1     -41.453  18.256  -4.249  0.00  0.00    -0.040 A 
ATOM      2  C8  NON d   1     -40.957  17.639  -3.076  0.00  0.00     0.010 A 
ATOM      3  C9  NON d   1     -40.322  18.366  -2.043  0.00  0.00     0.017 A 
ATOM      4  C10 NON d   1     -40.164  19.745  -2.162  0.00  0.00     0.032 A 
ATOM      5  C22 NON d   1     -40.681  20.368  -3.318  0.00  0.00     0.017 A 
ATOM      6  C23 NON d   1     -41.319  19.642  -4.341  0.00  0.00     0.010 A 
ENDROOT
BRANCH   4   7
ATOM      7  C11 NON d   1     -39.417  20.621  -1.192  0.00  0.00     0.256 C 
ATOM      8  O2  NON d   1     -38.228  20.809  -1.446  0.00  0.00    -0.267 OA
ATOM      9  N4  NON d   1     -40.073  21.141  -0.079  0.00  0.00    -0.321 N 
ATOM     10  H15 NON d   1     -40.983  20.765   0.147  0.00  0.00     0.169 HD
BRANCH   9  11
ATOM     11  C12 NON d   1     -39.545  22.102   0.861  0.00  0.00     0.057 A 
ATOM     12  C13 NON d   1     -40.434  23.109   1.325  0.00  0.00     0.044 A 
ATOM     13  C14 NON d   1     -40.042  24.111   2.252  0.00  0.00    -0.017 A 
ATOM     14  C19 NON d   1     -38.709  24.095   2.679  0.00  0.00     0.014 A 
ATOM     15  C20 NON d   1     -37.812  23.143   2.207  0.00  0.00     0.026 A 
ATOM     16  C21 NON d   1     -38.210  22.124   1.332  0.00  0.00     0.033 A 
BRANCH  13  17
ATOM     17  C15 NON d   1     -40.991  25.149   2.749  0.00  0.00     0.015 A 
ATOM     18  C16 NON d   1     -41.437  26.314   2.145  0.00  0.00     0.020 A 
ATOM     19  C17 NON d   1     -42.355  27.062   2.947  0.00  0.00     0.008 A 
ATOM     20  C18 NON d   1     -42.602  26.454   4.154  0.00  0.00     0.050 A 
ATOM     21  S1  NON d   1     -41.740  24.997   4.310  0.00  0.00    -0.101 SA
ENDBRANCH  13  17
BRANCH  16  22
ATOM     22  N5  NON d   1     -37.161  21.368   0.765  0.00  0.00    -0.301 NA
ATOM     23  H22 NON d   1     -36.841  21.810  -0.103  0.00  0.00     0.124 HD
ATOM     24  H23 NON d   1     -37.428  20.411   0.564  0.00  0.00     0.124 HD
ENDBRANCH  16  22
ENDBRANCH   9  11
ENDBRANCH   4   7
BRANCH   1  25
ATOM     25  C6  NON d   1     -42.081  17.383  -5.328  0.00  0.00     0.162 C 
BRANCH  25  26
ATOM     26  N3  NON d   1     -43.509  17.078  -5.256  0.00  0.00    -0.338 N 
ATOM     27  C5  NON d   1     -44.189  17.263  -4.068  0.00  0.00     0.325 C 
ATOM     28  N2  NON d   1     -45.534  16.849  -4.010  0.00  0.00    -0.260 N 
ATOM     29  O1  NON d   1     -43.638  17.799  -3.104  0.00  0.00    -0.247 OA
ATOM     30  C4  NON d   1     -46.254  17.258  -2.811  0.00  0.00     0.157 C 
ATOM     31  C24 NON d   1     -46.234  16.252  -5.061  0.00  0.00     0.319 C 
ATOM     32  C3  NON d   1     -47.564  16.528  -2.539  0.00  0.00     0.146 C 
ATOM     33  N1  NON d   1     -48.409  16.362  -3.705  0.00  0.00    -0.343 N 
ATOM     34  C25 NON d   1     -47.755  15.955  -4.887  0.00  0.00     0.312 C 
ATOM     35  O4  NON d   1     -48.320  15.378  -5.811  0.00  0.00    -0.262 OA
ATOM     36  O3  NON d   1     -45.693  15.914  -6.114  0.00  0.00    -0.262 OA
ATOM     37  H10 NON d   1     -43.925  16.435  -5.925  0.00  0.00     0.164 HD
BRANCH  33  38
ATOM     38  C2  NON d   1     -49.861  16.050  -3.443  0.00  0.00     0.122 C 
ATOM     39  C1  NON d   1     -50.200  14.552  -3.564  0.00  0.00     0.026 C 
ENDBRANCH  33  38
ENDBRANCH  25  26
ENDBRANCH   1  25
TORSDOF 7
ENDMDL
