MODEL 1
REMARK VINA RESULT:   -35.008      0.000      0.000
REMARK INTER + INTRA:         -38.926
REMARK INTER:                 -37.096
REMARK INTRA:                  -1.830
REMARK CONF_INDEPENDENT:        2.088
REMARK UNBOUND:                -1.830
REMARK  7 active torsions:
REMARK  status: ('A' for Active; 'I' for Inactive)
REMARK    1  A    between atoms: O1_2  and  C2_3 
REMARK    2  A    between atoms: C6_8  and  N2_9 
REMARK    3  A    between atoms: N2_9  and  C7_10 
REMARK    4  A    between atoms: C7_10  and  C8_11 
REMARK    5  A    between atoms: C11_14  and  C12_15 
REMARK       I    between atoms: C12_15  and  N3_17 
REMARK    6  A    between atoms: N3_17  and  C13_18 
REMARK    7  A    between atoms: C18_23  and  N4_24 
ROOT
ATOM      1  C8  NON d   1     -41.120  19.043  -3.756  0.00  0.00    -0.041 A 
ATOM      2  C9  NON d   1     -41.637  18.013  -2.947  0.00  0.00     0.010 A 
ATOM      3  C10 NON d   1     -42.892  17.434  -3.209  0.00  0.00     0.017 A 
ATOM      4  C11 NON d   1     -43.657  17.874  -4.295  0.00  0.00     0.032 A 
ATOM      5  C19 NON d   1     -43.137  18.879  -5.119  0.00  0.00     0.017 A 
ATOM      6  C20 NON d   1     -41.881  19.442  -4.864  0.00  0.00     0.010 A 
ENDROOT
BRANCH   1   7
ATOM      7  C7  NON d   1     -39.779  19.668  -3.384  0.00  0.00     0.160 C 
BRANCH   7   8
ATOM      8  N2  NON d   1     -39.623  19.831  -1.951  0.00  0.00    -0.365 N 
ATOM      9  H6  NON d   1     -38.785  19.416  -1.565  0.00  0.00     0.162 HD
BRANCH   8  10
ATOM     10  C6  NON d   1     -39.980  20.993  -1.357  0.00  0.00     0.168 A 
ATOM     11  N1  NON d   1     -40.217  22.135  -1.956  0.00  0.00    -0.224 NA
ATOM     12  C5  NON d   1     -40.518  23.113  -1.018  0.00  0.00     0.077 A 
ATOM     13  C4  NON d   1     -40.794  24.470  -1.279  0.00  0.00     0.036 A 
ATOM     14  C21 NON d   1     -40.542  22.680   0.308  0.00  0.00     0.040 A 
ATOM     15  C3  NON d   1     -41.098  25.345  -0.223  0.00  0.00     0.039 A 
ATOM     16  C2  NON d   1     -41.143  24.882   1.089  0.00  0.00     0.069 A 
ATOM     17  C22 NON d   1     -40.858  23.543   1.368  0.00  0.00     0.058 A 
ATOM     18  S1  NON d   1     -40.125  21.017   0.357  0.00  0.00    -0.050 SA
BRANCH  16  19
ATOM     19  O1  NON d   1     -41.442  25.628   2.197  0.00  0.00    -0.356 OA
ATOM     20  C1  NON d   1     -40.487  25.640   3.251  0.00  0.00     0.210 C 
ENDBRANCH  16  19
ENDBRANCH   8  10
ENDBRANCH   7   8
ENDBRANCH   1   7
BRANCH   4  21
ATOM     21  C12 NON d   1     -45.037  17.374  -4.608  0.00  0.00     0.256 C 
ATOM     22  O2  NON d   1     -45.341  17.266  -5.793  0.00  0.00    -0.267 OA
ATOM     23  N3  NON d   1     -45.861  17.104  -3.533  0.00  0.00    -0.321 N 
ATOM     24  H11 NON d   1     -45.501  17.326  -2.616  0.00  0.00     0.169 HD
BRANCH  23  25
ATOM     25  C13 NON d   1     -47.202  16.623  -3.536  0.00  0.00     0.056 A 
ATOM     26  C14 NON d   1     -47.782  16.491  -2.259  0.00  0.00     0.031 A 
ATOM     27  C15 NON d   1     -49.093  16.038  -2.093  0.00  0.00     0.002 A 
ATOM     28  C16 NON d   1     -49.841  15.677  -3.204  0.00  0.00     0.002 A 
ATOM     29  C17 NON d   1     -49.275  15.772  -4.472  0.00  0.00     0.025 A 
ATOM     30  C18 NON d   1     -47.974  16.277  -4.669  0.00  0.00     0.033 A 
BRANCH  30  31
ATOM     31  N4  NON d   1     -47.440  16.130  -5.964  0.00  0.00    -0.301 NA
ATOM     32  H16 NON d   1     -46.517  15.683  -5.927  0.00  0.00     0.124 HD
ATOM     33  H17 NON d   1     -47.382  17.003  -6.476  0.00  0.00     0.124 HD
ENDBRANCH  30  31
ENDBRANCH  23  25
ENDBRANCH   4  21
TORSDOF 7
ENDMDL
MODEL 2
REMARK VINA RESULT:   -34.662      0.930      1.292
REMARK INTER + INTRA:         -38.680
REMARK INTER:                 -36.750
REMARK INTRA:                  -1.930
REMARK CONF_INDEPENDENT:        2.088
REMARK UNBOUND:                -1.930
REMARK  7 active torsions:
REMARK  status: ('A' for Active; 'I' for Inactive)
REMARK    1  A    between atoms: O1_2  and  C2_3 
REMARK    2  A    between atoms: C6_8  and  N2_9 
REMARK    3  A    between atoms: N2_9  and  C7_10 
REMARK    4  A    between atoms: C7_10  and  C8_11 
REMARK    5  A    between atoms: C11_14  and  C12_15 
REMARK       I    between atoms: C12_15  and  N3_17 
REMARK    6  A    between atoms: N3_17  and  C13_18 
REMARK    7  A    between atoms: C18_23  and  N4_24 
ROOT
ATOM      1  C8  NON d   1     -41.014  18.945  -3.857  0.00  0.00    -0.041 A 
ATOM      2  C9  NON d   1     -41.488  17.787  -3.212  0.00  0.00     0.010 A 
ATOM      3  C10 NON d   1     -42.777  17.284  -3.461  0.00  0.00     0.017 A 
ATOM      4  C11 NON d   1     -43.622  17.931  -4.370  0.00  0.00     0.032 A 
ATOM      5  C19 NON d   1     -43.147  19.068  -5.035  0.00  0.00     0.017 A 
ATOM      6  C20 NON d   1     -41.857  19.556  -4.796  0.00  0.00     0.010 A 
ENDROOT
BRANCH   1   7
ATOM      7  C7  NON d   1     -39.627  19.473  -3.499  0.00  0.00     0.160 C 
BRANCH   7   8
ATOM      8  N2  NON d   1     -39.435  19.594  -2.066  0.00  0.00    -0.365 N 
ATOM      9  H6  NON d   1     -38.589  19.164  -1.714  0.00  0.00     0.162 HD
BRANCH   8  10
ATOM     10  C6  NON d   1     -39.771  20.740  -1.430  0.00  0.00     0.168 A 
ATOM     11  N1  NON d   1     -39.678  20.975  -0.144  0.00  0.00    -0.224 NA
ATOM     12  C5  NON d   1     -40.152  22.247   0.144  0.00  0.00     0.077 A 
ATOM     13  C4  NON d   1     -40.245  22.839   1.420  0.00  0.00     0.036 A 
ATOM     14  C21 NON d   1     -40.574  22.990  -0.958  0.00  0.00     0.040 A 
ATOM     15  C3  NON d   1     -40.735  24.149   1.558  0.00  0.00     0.039 A 
ATOM     16  C2  NON d   1     -41.123  24.880   0.439  0.00  0.00     0.069 A 
ATOM     17  C22 NON d   1     -41.053  24.304  -0.833  0.00  0.00     0.058 A 
ATOM     18  S1  NON d   1     -40.410  22.032  -2.370  0.00  0.00    -0.050 SA
BRANCH  16  19
ATOM     19  O1  NON d   1     -41.599  26.164   0.440  0.00  0.00    -0.356 OA
ATOM     20  C1  NON d   1     -41.026  27.069   1.375  0.00  0.00     0.210 C 
ENDBRANCH  16  19
ENDBRANCH   8  10
ENDBRANCH   7   8
ENDBRANCH   1   7
BRANCH   4  21
ATOM     21  C12 NON d   1     -45.038  17.517  -4.644  0.00  0.00     0.256 C 
ATOM     22  O2  NON d   1     -45.435  17.600  -5.802  0.00  0.00    -0.267 OA
ATOM     23  N3  NON d   1     -45.785  17.100  -3.559  0.00  0.00    -0.321 N 
ATOM     24  H11 NON d   1     -45.349  17.169  -2.652  0.00  0.00     0.169 HD
BRANCH  23  25
ATOM     25  C13 NON d   1     -47.139  16.656  -3.528  0.00  0.00     0.056 A 
ATOM     26  C14 NON d   1     -47.696  16.559  -2.238  0.00  0.00     0.031 A 
ATOM     27  C15 NON d   1     -49.014  16.144  -2.038  0.00  0.00     0.002 A 
ATOM     28  C16 NON d   1     -49.794  15.785  -3.127  0.00  0.00     0.002 A 
ATOM     29  C17 NON d   1     -49.253  15.845  -4.408  0.00  0.00     0.025 A 
ATOM     30  C18 NON d   1     -47.943  16.312  -4.639  0.00  0.00     0.033 A 
BRANCH  30  31
ATOM     31  N4  NON d   1     -47.439  16.131  -5.942  0.00  0.00    -0.301 NA
ATOM     32  H16 NON d   1     -46.479  15.770  -5.913  0.00  0.00     0.124 HD
ATOM     33  H17 NON d   1     -47.476  16.971  -6.507  0.00  0.00     0.124 HD
ENDBRANCH  30  31
ENDBRANCH  23  25
ENDBRANCH   4  21
TORSDOF 7
ENDMDL
MODEL 3
REMARK VINA RESULT:   -34.355      0.656      1.159
REMARK INTER + INTRA:         -38.401
REMARK INTER:                 -36.443
REMARK INTRA:                  -1.958
REMARK CONF_INDEPENDENT:        2.088
REMARK UNBOUND:                -1.958
REMARK  7 active torsions:
REMARK  status: ('A' for Active; 'I' for Inactive)
REMARK    1  A    between atoms: O1_2  and  C2_3 
REMARK    2  A    between atoms: C6_8  and  N2_9 
REMARK    3  A    between atoms: N2_9  and  C7_10 
REMARK    4  A    between atoms: C7_10  and  C8_11 
REMARK    5  A    between atoms: C11_14  and  C12_15 
REMARK       I    between atoms: C12_15  and  N3_17 
REMARK    6  A    between atoms: N3_17  and  C13_18 
REMARK    7  A    between atoms: C18_23  and  N4_24 
ROOT
ATOM      1  C8  NON d   1     -40.910  18.597  -3.755  0.00  0.00    -0.041 A 
ATOM      2  C9  NON d   1     -41.605  19.197  -4.821  0.00  0.00     0.010 A 
ATOM      3  C10 NON d   1     -42.943  18.866  -5.104  0.00  0.00     0.017 A 
ATOM      4  C11 NON d   1     -43.616  17.925  -4.318  0.00  0.00     0.032 A 
ATOM      5  C19 NON d   1     -42.939  17.344  -3.239  0.00  0.00     0.017 A 
ATOM      6  C20 NON d   1     -41.613  17.688  -2.951  0.00  0.00     0.010 A 
ENDROOT
BRANCH   1   7
ATOM      7  C7  NON d   1     -39.443  18.957  -3.536  0.00  0.00     0.160 C 
BRANCH   7   8
ATOM      8  N2  NON d   1     -39.194  19.477  -2.205  0.00  0.00    -0.365 N 
ATOM      9  H6  NON d   1     -38.279  19.262  -1.829  0.00  0.00     0.162 HD
BRANCH   8  10
ATOM     10  C6  NON d   1     -39.653  20.701  -1.857  0.00  0.00     0.168 A 
ATOM     11  N1  NON d   1     -39.863  21.713  -2.662  0.00  0.00    -0.224 NA
ATOM     12  C5  NON d   1     -40.298  22.816  -1.939  0.00  0.00     0.077 A 
ATOM     13  C4  NON d   1     -40.590  24.095  -2.455  0.00  0.00     0.036 A 
ATOM     14  C21 NON d   1     -40.451  22.609  -0.569  0.00  0.00     0.040 A 
ATOM     15  C3  NON d   1     -41.038  25.116  -1.600  0.00  0.00     0.039 A 
ATOM     16  C2  NON d   1     -41.209  24.875  -0.240  0.00  0.00     0.069 A 
ATOM     17  C22 NON d   1     -40.910  23.618   0.292  0.00  0.00     0.058 A 
ATOM     18  S1  NON d   1     -39.984  21.001  -0.195  0.00  0.00    -0.050 SA
BRANCH  16  19
ATOM     19  O1  NON d   1     -41.653  25.778   0.689  0.00  0.00    -0.356 OA
ATOM     20  C1  NON d   1     -41.057  25.730   1.980  0.00  0.00     0.210 C 
ENDBRANCH  16  19
ENDBRANCH   8  10
ENDBRANCH   7   8
ENDBRANCH   1   7
BRANCH   4  21
ATOM     21  C12 NON d   1     -45.014  17.449  -4.587  0.00  0.00     0.256 C 
ATOM     22  O2  NON d   1     -45.354  17.336  -5.762  0.00  0.00    -0.267 OA
ATOM     23  N3  NON d   1     -45.811  17.205  -3.486  0.00  0.00    -0.321 N 
ATOM     24  H11 NON d   1     -45.422  17.428  -2.583  0.00  0.00     0.169 HD
BRANCH  23  25
ATOM     25  C13 NON d   1     -47.161  16.750  -3.447  0.00  0.00     0.056 A 
ATOM     26  C14 NON d   1     -47.727  16.698  -2.158  0.00  0.00     0.031 A 
ATOM     27  C15 NON d   1     -49.043  16.279  -1.952  0.00  0.00     0.002 A 
ATOM     28  C16 NON d   1     -49.812  15.873  -3.032  0.00  0.00     0.002 A 
ATOM     29  C17 NON d   1     -49.262  15.889  -4.311  0.00  0.00     0.025 A 
ATOM     30  C18 NON d   1     -47.955  16.357  -4.550  0.00  0.00     0.033 A 
BRANCH  30  31
ATOM     31  N4  NON d   1     -47.440  16.130  -5.841  0.00  0.00    -0.301 NA
ATOM     32  H16 NON d   1     -46.520  15.679  -5.791  0.00  0.00     0.124 HD
ATOM     33  H17 NON d   1     -47.383  16.972  -6.404  0.00  0.00     0.124 HD
ENDBRANCH  30  31
ENDBRANCH  23  25
ENDBRANCH   4  21
TORSDOF 7
ENDMDL
MODEL 4
REMARK VINA RESULT:   -34.206      1.215      1.986
REMARK INTER + INTRA:         -38.083
REMARK INTER:                 -36.294
REMARK INTRA:                  -1.788
REMARK CONF_INDEPENDENT:        2.088
REMARK UNBOUND:                -1.788
REMARK  7 active torsions:
REMARK  status: ('A' for Active; 'I' for Inactive)
REMARK    1  A    between atoms: O1_2  and  C2_3 
REMARK    2  A    between atoms: C6_8  and  N2_9 
REMARK    3  A    between atoms: N2_9  and  C7_10 
REMARK    4  A    between atoms: C7_10  and  C8_11 
REMARK    5  A    between atoms: C11_14  and  C12_15 
REMARK       I    between atoms: C12_15  and  N3_17 
REMARK    6  A    between atoms: N3_17  and  C13_18 
REMARK    7  A    between atoms: C18_23  and  N4_24 
ROOT
ATOM      1  C8  NON d   1     -40.996  18.714  -3.715  0.00  0.00    -0.041 A 
ATOM      2  C9  NON d   1     -41.689  19.307  -4.788  0.00  0.00     0.010 A 
ATOM      3  C10 NON d   1     -43.014  18.950  -5.092  0.00  0.00     0.017 A 
ATOM      4  C11 NON d   1     -43.680  17.991  -4.322  0.00  0.00     0.032 A 
ATOM      5  C19 NON d   1     -43.006  17.417  -3.236  0.00  0.00     0.017 A 
ATOM      6  C20 NON d   1     -41.692  17.786  -2.927  0.00  0.00     0.010 A 
ENDROOT
BRANCH   1   7
ATOM      7  C7  NON d   1     -39.541  19.103  -3.473  0.00  0.00     0.160 C 
BRANCH   7   8
ATOM      8  N2  NON d   1     -39.308  19.554  -2.114  0.00  0.00    -0.365 N 
ATOM      9  H6  NON d   1     -38.450  19.218  -1.696  0.00  0.00     0.162 HD
BRANCH   8  10
ATOM     10  C6  NON d   1     -39.632  20.817  -1.753  0.00  0.00     0.168 A 
ATOM     11  N1  NON d   1     -40.073  21.204  -0.581  0.00  0.00    -0.224 NA
ATOM     12  C5  NON d   1     -40.334  22.568  -0.596  0.00  0.00     0.077 A 
ATOM     13  C4  NON d   1     -40.854  23.335   0.467  0.00  0.00     0.036 A 
ATOM     14  C21 NON d   1     -40.047  23.217  -1.796  0.00  0.00     0.040 A 
ATOM     15  C3  NON d   1     -41.054  24.716   0.310  0.00  0.00     0.039 A 
ATOM     16  C2  NON d   1     -40.732  25.345  -0.889  0.00  0.00     0.069 A 
ATOM     17  C22 NON d   1     -40.230  24.599  -1.959  0.00  0.00     0.058 A 
ATOM     18  S1  NON d   1     -39.484  22.062  -2.932  0.00  0.00    -0.050 SA
BRANCH  16  19
ATOM     19  O1  NON d   1     -40.865  26.681  -1.160  0.00  0.00    -0.356 OA
ATOM     20  C1  NON d   1     -41.415  27.038  -2.422  0.00  0.00     0.210 C 
ENDBRANCH  16  19
ENDBRANCH   8  10
ENDBRANCH   7   8
ENDBRANCH   1   7
BRANCH   4  21
ATOM     21  C12 NON d   1     -45.063  17.488  -4.614  0.00  0.00     0.256 C 
ATOM     22  O2  NON d   1     -45.400  17.419  -5.793  0.00  0.00    -0.267 OA
ATOM     23  N3  NON d   1     -45.853  17.170  -3.527  0.00  0.00    -0.321 N 
ATOM     24  H11 NON d   1     -45.470  17.363  -2.613  0.00  0.00     0.169 HD
BRANCH  23  25
ATOM     25  C13 NON d   1     -47.190  16.676  -3.510  0.00  0.00     0.056 A 
ATOM     26  C14 NON d   1     -47.759  16.564  -2.226  0.00  0.00     0.031 A 
ATOM     27  C15 NON d   1     -49.063  16.101  -2.041  0.00  0.00     0.002 A 
ATOM     28  C16 NON d   1     -49.816  15.709  -3.138  0.00  0.00     0.002 A 
ATOM     29  C17 NON d   1     -49.261  15.784  -4.413  0.00  0.00     0.025 A 
ATOM     30  C18 NON d   1     -47.967  16.298  -4.629  0.00  0.00     0.033 A 
BRANCH  30  31
ATOM     31  N4  NON d   1     -47.440  16.130  -5.925  0.00  0.00    -0.301 NA
ATOM     32  H16 NON d   1     -46.649  15.477  -5.914  0.00  0.00     0.124 HD
ATOM     33  H17 NON d   1     -47.162  17.002  -6.362  0.00  0.00     0.124 HD
ENDBRANCH  30  31
ENDBRANCH  23  25
ENDBRANCH   4  21
TORSDOF 7
ENDMDL
MODEL 5
REMARK VINA RESULT:   -33.530      4.247      6.221
REMARK INTER + INTRA:         -37.391
REMARK INTER:                 -35.619
REMARK INTRA:                  -1.773
REMARK CONF_INDEPENDENT:        2.088
REMARK UNBOUND:                -1.773
REMARK  7 active torsions:
REMARK  status: ('A' for Active; 'I' for Inactive)
REMARK    1  A    between atoms: O1_2  and  C2_3 
REMARK    2  A    between atoms: C6_8  and  N2_9 
REMARK    3  A    between atoms: N2_9  and  C7_10 
REMARK    4  A    between atoms: C7_10  and  C8_11 
REMARK    5  A    between atoms: C11_14  and  C12_15 
REMARK       I    between atoms: C12_15  and  N3_17 
REMARK    6  A    between atoms: N3_17  and  C13_18 
REMARK    7  A    between atoms: C18_23  and  N4_24 
ROOT
ATOM      1  C8  NON d   1     -41.068  19.180  -4.074  0.00  0.00    -0.041 A 
ATOM      2  C9  NON d   1     -41.554  18.257  -3.129  0.00  0.00     0.010 A 
ATOM      3  C10 NON d   1     -42.795  17.618  -3.299  0.00  0.00     0.017 A 
ATOM      4  C11 NON d   1     -43.578  17.888  -4.428  0.00  0.00     0.032 A 
ATOM      5  C19 NON d   1     -43.088  18.785  -5.385  0.00  0.00     0.017 A 
ATOM      6  C20 NON d   1     -41.845  19.407  -5.219  0.00  0.00     0.010 A 
ENDROOT
BRANCH   1   7
ATOM      7  C7  NON d   1     -39.741  19.883  -3.802  0.00  0.00     0.160 C 
BRANCH   7   8
ATOM      8  N2  NON d   1     -38.750  19.608  -4.825  0.00  0.00    -0.365 N 
ATOM      9  H6  NON d   1     -38.438  18.646  -4.866  0.00  0.00     0.162 HD
BRANCH   8  10
ATOM     10  C6  NON d   1     -38.842  20.204  -6.037  0.00  0.00     0.168 A 
ATOM     11  N1  NON d   1     -38.255  19.817  -7.143  0.00  0.00    -0.224 NA
ATOM     12  C5  NON d   1     -38.552  20.697  -8.174  0.00  0.00     0.077 A 
ATOM     13  C4  NON d   1     -38.074  20.631  -9.499  0.00  0.00     0.036 A 
ATOM     14  C21 NON d   1     -39.410  21.743  -7.837  0.00  0.00     0.040 A 
ATOM     15  C3  NON d   1     -38.474  21.590 -10.444  0.00  0.00     0.039 A 
ATOM     16  C2  NON d   1     -39.354  22.609 -10.088  0.00  0.00     0.069 A 
ATOM     17  C22 NON d   1     -39.826  22.699  -8.776  0.00  0.00     0.058 A 
ATOM     18  S1  NON d   1     -39.799  21.628  -6.170  0.00  0.00    -0.050 SA
BRANCH  16  19
ATOM     19  O1  NON d   1     -39.830  23.589 -10.917  0.00  0.00    -0.356 OA
ATOM     20  C1  NON d   1     -39.853  23.307 -12.311  0.00  0.00     0.210 C 
ENDBRANCH  16  19
ENDBRANCH   8  10
ENDBRANCH   7   8
ENDBRANCH   1   7
BRANCH   4  21
ATOM     21  C12 NON d   1     -44.946  17.318  -4.659  0.00  0.00     0.256 C 
ATOM     22  O2  NON d   1     -45.240  17.008  -5.810  0.00  0.00    -0.267 OA
ATOM     23  N3  NON d   1     -45.772  17.215  -3.556  0.00  0.00    -0.321 N 
ATOM     24  H11 NON d   1     -45.423  17.593  -2.688  0.00  0.00     0.169 HD
BRANCH  23  25
ATOM     25  C13 NON d   1     -47.105  16.715  -3.484  0.00  0.00     0.056 A 
ATOM     26  C14 NON d   1     -47.628  16.621  -2.180  0.00  0.00     0.031 A 
ATOM     27  C15 NON d   1     -48.922  16.156  -1.941  0.00  0.00     0.002 A 
ATOM     28  C16 NON d   1     -49.711  15.744  -3.005  0.00  0.00     0.002 A 
ATOM     29  C17 NON d   1     -49.202  15.801  -4.299  0.00  0.00     0.025 A 
ATOM     30  C18 NON d   1     -47.919  16.316  -4.570  0.00  0.00     0.033 A 
BRANCH  30  31
ATOM     31  N4  NON d   1     -47.438  16.130  -5.880  0.00  0.00    -0.301 NA
ATOM     32  H16 NON d   1     -46.616  15.515  -5.881  0.00  0.00     0.124 HD
ATOM     33  H17 NON d   1     -47.220  16.999  -6.356  0.00  0.00     0.124 HD
ENDBRANCH  30  31
ENDBRANCH  23  25
ENDBRANCH   4  21
TORSDOF 7
ENDMDL
MODEL 6
REMARK VINA RESULT:   -33.296      4.532      6.334
REMARK INTER + INTRA:         -37.269
REMARK INTER:                 -35.384
REMARK INTRA:                  -1.885
REMARK CONF_INDEPENDENT:        2.088
REMARK UNBOUND:                -1.885
REMARK  7 active torsions:
REMARK  status: ('A' for Active; 'I' for Inactive)
REMARK    1  A    between atoms: O1_2  and  C2_3 
REMARK    2  A    between atoms: C6_8  and  N2_9 
REMARK    3  A    between atoms: N2_9  and  C7_10 
REMARK    4  A    between atoms: C7_10  and  C8_11 
REMARK    5  A    between atoms: C11_14  and  C12_15 
REMARK       I    between atoms: C12_15  and  N3_17 
REMARK    6  A    between atoms: N3_17  and  C13_18 
REMARK    7  A    between atoms: C18_23  and  N4_24 
ROOT
ATOM      1  C8  NON d   1     -40.875  18.778  -4.227  0.00  0.00    -0.041 A 
ATOM      2  C9  NON d   1     -41.627  19.380  -5.253  0.00  0.00     0.010 A 
ATOM      3  C10 NON d   1     -42.983  19.062  -5.453  0.00  0.00     0.017 A 
ATOM      4  C11 NON d   1     -43.618  18.133  -4.622  0.00  0.00     0.032 A 
ATOM      5  C19 NON d   1     -42.882  17.550  -3.582  0.00  0.00     0.017 A 
ATOM      6  C20 NON d   1     -41.538  17.880  -3.377  0.00  0.00     0.010 A 
ENDROOT
BRANCH   1   7
ATOM      7  C7  NON d   1     -39.394  19.122  -4.100  0.00  0.00     0.160 C 
BRANCH   7   8
ATOM      8  N2  NON d   1     -39.117  20.504  -4.443  0.00  0.00    -0.365 N 
ATOM      9  H6  NON d   1     -38.410  20.950  -3.872  0.00  0.00     0.162 HD
BRANCH   8  10
ATOM     10  C6  NON d   1     -39.096  20.891  -5.739  0.00  0.00     0.168 A 
ATOM     11  N1  NON d   1     -39.315  22.100  -6.196  0.00  0.00    -0.224 NA
ATOM     12  C5  NON d   1     -39.246  22.106  -7.583  0.00  0.00     0.077 A 
ATOM     13  C4  NON d   1     -39.462  23.213  -8.429  0.00  0.00     0.036 A 
ATOM     14  C21 NON d   1     -38.934  20.880  -8.169  0.00  0.00     0.040 A 
ATOM     15  C3  NON d   1     -39.344  23.070  -9.822  0.00  0.00     0.039 A 
ATOM     16  C2  NON d   1     -39.003  21.842 -10.381  0.00  0.00     0.069 A 
ATOM     17  C22 NON d   1     -38.801  20.731  -9.559  0.00  0.00     0.058 A 
ATOM     18  S1  NON d   1     -38.776  19.698  -6.937  0.00  0.00    -0.050 SA
BRANCH  16  19
ATOM     19  O1  NON d   1     -38.842  21.581 -11.715  0.00  0.00    -0.356 OA
ATOM     20  C1  NON d   1     -38.206  22.580 -12.502  0.00  0.00     0.210 C 
ENDBRANCH  16  19
ENDBRANCH   8  10
ENDBRANCH   7   8
ENDBRANCH   1   7
BRANCH   4  21
ATOM     21  C12 NON d   1     -45.034  17.671  -4.803  0.00  0.00     0.256 C 
ATOM     22  O2  NON d   1     -45.505  17.731  -5.935  0.00  0.00    -0.267 OA
ATOM     23  N3  NON d   1     -45.699  17.242  -3.671  0.00  0.00    -0.321 N 
ATOM     24  H11 NON d   1     -45.210  17.333  -2.793  0.00  0.00     0.169 HD
BRANCH  23  25
ATOM     25  C13 NON d   1     -47.033  16.755  -3.552  0.00  0.00     0.056 A 
ATOM     26  C14 NON d   1     -47.519  16.689  -2.231  0.00  0.00     0.031 A 
ATOM     27  C15 NON d   1     -48.810  16.239  -1.947  0.00  0.00     0.002 A 
ATOM     28  C16 NON d   1     -49.633  15.814  -2.980  0.00  0.00     0.002 A 
ATOM     29  C17 NON d   1     -49.160  15.844  -4.289  0.00  0.00     0.025 A 
ATOM     30  C18 NON d   1     -47.881  16.344  -4.606  0.00  0.00     0.033 A 
BRANCH  30  31
ATOM     31  N4  NON d   1     -47.440  16.130  -5.926  0.00  0.00    -0.301 NA
ATOM     32  H16 NON d   1     -46.476  15.778  -5.934  0.00  0.00     0.124 HD
ATOM     33  H17 NON d   1     -47.512  16.954  -6.512  0.00  0.00     0.124 HD
ENDBRANCH  30  31
ENDBRANCH  23  25
ENDBRANCH   4  21
TORSDOF 7
ENDMDL
MODEL 7
REMARK VINA RESULT:   -32.813      2.594      3.400
REMARK INTER + INTRA:         -36.139
REMARK INTER:                 -34.901
REMARK INTRA:                  -1.238
REMARK CONF_INDEPENDENT:        2.088
REMARK UNBOUND:                -1.238
REMARK  7 active torsions:
REMARK  status: ('A' for Active; 'I' for Inactive)
REMARK    1  A    between atoms: O1_2  and  C2_3 
REMARK    2  A    between atoms: C6_8  and  N2_9 
REMARK    3  A    between atoms: N2_9  and  C7_10 
REMARK    4  A    between atoms: C7_10  and  C8_11 
REMARK    5  A    between atoms: C11_14  and  C12_15 
REMARK       I    between atoms: C12_15  and  N3_17 
REMARK    6  A    between atoms: N3_17  and  C13_18 
REMARK    7  A    between atoms: C18_23  and  N4_24 
ROOT
ATOM      1  C8  NON d   1     -40.824  18.342  -3.670  0.00  0.00    -0.041 A 
ATOM      2  C9  NON d   1     -41.612  19.058  -4.592  0.00  0.00     0.010 A 
ATOM      3  C10 NON d   1     -42.942  18.691  -4.861  0.00  0.00     0.017 A 
ATOM      4  C11 NON d   1     -43.516  17.595  -4.207  0.00  0.00     0.032 A 
ATOM      5  C19 NON d   1     -42.747  16.895  -3.269  0.00  0.00     0.017 A 
ATOM      6  C20 NON d   1     -41.428  17.273  -2.992  0.00  0.00     0.010 A 
ENDROOT
BRANCH   1   7
ATOM      7  C7  NON d   1     -39.370  18.756  -3.466  0.00  0.00     0.160 C 
BRANCH   7   8
ATOM      8  N2  NON d   1     -39.232  19.834  -2.504  0.00  0.00    -0.365 N 
ATOM      9  H6  NON d   1     -38.535  19.677  -1.787  0.00  0.00     0.162 HD
BRANCH   8  10
ATOM     10  C6  NON d   1     -39.316  21.122  -2.911  0.00  0.00     0.168 A 
ATOM     11  N1  NON d   1     -39.960  22.090  -2.306  0.00  0.00    -0.224 NA
ATOM     12  C5  NON d   1     -39.853  23.265  -3.039  0.00  0.00     0.077 A 
ATOM     13  C4  NON d   1     -40.443  24.506  -2.725  0.00  0.00     0.036 A 
ATOM     14  C21 NON d   1     -39.081  23.177  -4.197  0.00  0.00     0.040 A 
ATOM     15  C3  NON d   1     -40.234  25.618  -3.558  0.00  0.00     0.039 A 
ATOM     16  C2  NON d   1     -39.436  25.511  -4.693  0.00  0.00     0.069 A 
ATOM     17  C22 NON d   1     -38.855  24.285  -5.028  0.00  0.00     0.058 A 
ATOM     18  S1  NON d   1     -38.529  21.563  -4.376  0.00  0.00    -0.050 SA
BRANCH  16  19
ATOM     19  O1  NON d   1     -39.144  26.521  -5.571  0.00  0.00    -0.356 OA
ATOM     20  C1  NON d   1     -40.237  27.266  -6.093  0.00  0.00     0.210 C 
ENDBRANCH  16  19
ENDBRANCH   8  10
ENDBRANCH   7   8
ENDBRANCH   1   7
BRANCH   4  21
ATOM     21  C12 NON d   1     -44.898  17.080  -4.484  0.00  0.00     0.256 C 
ATOM     22  O2  NON d   1     -45.145  16.720  -5.631  0.00  0.00    -0.267 OA
ATOM     23  N3  NON d   1     -45.786  17.079  -3.425  0.00  0.00    -0.321 N 
ATOM     24  H11 NON d   1     -45.465  17.489  -2.561  0.00  0.00     0.169 HD
BRANCH  23  25
ATOM     25  C13 NON d   1     -47.144  16.650  -3.402  0.00  0.00     0.056 A 
ATOM     26  C14 NON d   1     -47.710  16.557  -2.115  0.00  0.00     0.031 A 
ATOM     27  C15 NON d   1     -49.034  16.157  -1.923  0.00  0.00     0.002 A 
ATOM     28  C16 NON d   1     -49.812  15.808  -3.017  0.00  0.00     0.002 A 
ATOM     29  C17 NON d   1     -49.262  15.864  -4.295  0.00  0.00     0.025 A 
ATOM     30  C18 NON d   1     -47.946  16.316  -4.518  0.00  0.00     0.033 A 
BRANCH  30  31
ATOM     31  N4  NON d   1     -47.437  16.131  -5.818  0.00  0.00    -0.301 NA
ATOM     32  H16 NON d   1     -46.772  16.875  -6.057  0.00  0.00     0.124 HD
ATOM     33  H17 NON d   1     -48.159  16.072  -6.528  0.00  0.00     0.124 HD
ENDBRANCH  30  31
ENDBRANCH  23  25
ENDBRANCH   4  21
TORSDOF 7
ENDMDL
