MODEL 1
REMARK VINA RESULT:   -30.379      0.000      0.000
REMARK INTER + INTRA:         -33.120
REMARK INTER:                 -31.572
REMARK INTRA:                  -1.548
REMARK CONF_INDEPENDENT:        1.193
REMARK UNBOUND:                -1.548
REMARK  4 active torsions:
REMARK  status: ('A' for Active; 'I' for Inactive)
REMARK    1  A    between atoms: N1_1  and  C1_2 
REMARK    2  A    between atoms: C4_5  and  C5_6 
REMARK    3  A    between atoms: C12_13  and  N2_14 
REMARK       I    between atoms: N2_14  and  C13_15 
REMARK    4  A    between atoms: C13_15  and  C14_17 
ROOT
ATOM      1  C1  NON d   1     -41.429  18.516  -3.577  0.00  0.00     0.033 A 
ATOM      2  C2  NON d   1     -40.057  18.740  -3.498  0.00  0.00     0.026 A 
ATOM      3  C3  NON d   1     -39.320  19.059  -4.647  0.00  0.00     0.014 A 
ATOM      4  C4  NON d   1     -39.918  19.160  -5.918  0.00  0.00    -0.024 A 
ATOM      5  C11 NON d   1     -41.304  18.889  -5.969  0.00  0.00     0.043 A 
ATOM      6  C12 NON d   1     -42.051  18.532  -4.838  0.00  0.00     0.057 A 
ENDROOT
BRANCH   6   7
ATOM      7  N2  NON d   1     -43.410  18.128  -4.882  0.00  0.00    -0.321 N 
ATOM      8  C13 NON d   1     -44.004  17.090  -4.187  0.00  0.00     0.257 C 
ATOM      9  O1  NON d   1     -43.420  16.305  -3.446  0.00  0.00    -0.267 OA
ATOM     10  H11 NON d   1     -43.975  18.775  -5.415  0.00  0.00     0.169 HD
BRANCH   8  11
ATOM     11  C14 NON d   1     -45.472  16.899  -4.356  0.00  0.00     0.049 A 
ATOM     12  C15 NON d   1     -46.285  16.881  -3.214  0.00  0.00     0.020 A 
ATOM     13  C16 NON d   1     -47.658  16.676  -3.332  0.00  0.00     0.020 A 
ATOM     14  C17 NON d   1     -48.185  16.496  -4.598  0.00  0.00     0.116 A 
ATOM     15  N3  NON d   1     -47.440  16.505  -5.724  0.00  0.00    -0.272 NA
ATOM     16  C18 NON d   1     -46.104  16.703  -5.577  0.00  0.00     0.133 A 
ENDBRANCH   8  11
ENDBRANCH   6   7
BRANCH   1  17
ATOM     17  N1  NON d   1     -42.166  18.201  -2.411  0.00  0.00    -0.301 NA
ATOM     18  H1  NON d   1     -43.168  18.309  -2.553  0.00  0.00     0.124 HD
ATOM     19  H2  NON d   1     -41.966  17.248  -2.116  0.00  0.00     0.124 HD
ENDBRANCH   1  17
BRANCH   4  20
ATOM     20  C5  NON d   1     -39.135  19.508  -7.148  0.00  0.00    -0.026 A 
ATOM     21  C6  NON d   1     -39.469  20.605  -7.969  0.00  0.00     0.012 A 
ATOM     22  C7  NON d   1     -38.729  20.937  -9.114  0.00  0.00     0.001 A 
ATOM     23  C8  NON d   1     -37.633  20.170  -9.486  0.00  0.00     0.000 A 
ATOM     24  C9  NON d   1     -37.276  19.077  -8.710  0.00  0.00     0.001 A 
ATOM     25  C10 NON d   1     -38.011  18.758  -7.560  0.00  0.00     0.012 A 
ENDBRANCH   4  20
TORSDOF 4
ENDMDL
MODEL 2
REMARK VINA RESULT:   -30.369      0.097      1.023
REMARK INTER + INTRA:         -33.111
REMARK INTER:                 -31.562
REMARK INTRA:                  -1.549
REMARK CONF_INDEPENDENT:        1.193
REMARK UNBOUND:                -1.549
REMARK  4 active torsions:
REMARK  status: ('A' for Active; 'I' for Inactive)
REMARK    1  A    between atoms: N1_1  and  C1_2 
REMARK    2  A    between atoms: C4_5  and  C5_6 
REMARK    3  A    between atoms: C12_13  and  N2_14 
REMARK       I    between atoms: N2_14  and  C13_15 
REMARK    4  A    between atoms: C13_15  and  C14_17 
ROOT
ATOM      1  C1  NON d   1     -41.474  18.531  -3.641  0.00  0.00     0.033 A 
ATOM      2  C2  NON d   1     -40.106  18.774  -3.553  0.00  0.00     0.026 A 
ATOM      3  C3  NON d   1     -39.364  19.093  -4.699  0.00  0.00     0.014 A 
ATOM      4  C4  NON d   1     -39.954  19.174  -5.976  0.00  0.00    -0.024 A 
ATOM      5  C11 NON d   1     -41.336  18.883  -6.035  0.00  0.00     0.043 A 
ATOM      6  C12 NON d   1     -42.086  18.526  -4.907  0.00  0.00     0.057 A 
ENDROOT
BRANCH   6   7
ATOM      7  N2  NON d   1     -43.439  18.102  -4.958  0.00  0.00    -0.321 N 
ATOM      8  C13 NON d   1     -44.024  17.063  -4.258  0.00  0.00     0.257 C 
ATOM      9  O1  NON d   1     -43.435  16.292  -3.505  0.00  0.00    -0.267 OA
ATOM     10  H11 NON d   1     -44.009  18.737  -5.500  0.00  0.00     0.169 HD
BRANCH   8  11
ATOM     11  C14 NON d   1     -45.488  16.850  -4.436  0.00  0.00     0.049 A 
ATOM     12  C15 NON d   1     -46.315  16.872  -3.305  0.00  0.00     0.020 A 
ATOM     13  C16 NON d   1     -47.684  16.649  -3.430  0.00  0.00     0.020 A 
ATOM     14  C17 NON d   1     -48.194  16.409  -4.693  0.00  0.00     0.116 A 
ATOM     15  N3  NON d   1     -47.435  16.378  -5.810  0.00  0.00    -0.272 NA
ATOM     16  C18 NON d   1     -46.103  16.596  -5.655  0.00  0.00     0.133 A 
ENDBRANCH   8  11
ENDBRANCH   6   7
BRANCH   1  17
ATOM     17  N1  NON d   1     -42.216  18.216  -2.478  0.00  0.00    -0.301 NA
ATOM     18  H1  NON d   1     -43.218  18.310  -2.628  0.00  0.00     0.124 HD
ATOM     19  H2  NON d   1     -42.006  17.267  -2.174  0.00  0.00     0.124 HD
ENDBRANCH   1  17
BRANCH   4  20
ATOM     20  C5  NON d   1     -39.166  19.522  -7.203  0.00  0.00    -0.026 A 
ATOM     21  C6  NON d   1     -37.992  18.829  -7.566  0.00  0.00     0.012 A 
ATOM     22  C7  NON d   1     -37.262  19.148  -8.721  0.00  0.00     0.001 A 
ATOM     23  C8  NON d   1     -37.675  20.185  -9.547  0.00  0.00     0.000 A 
ATOM     24  C9  NON d   1     -38.820  20.896  -9.221  0.00  0.00     0.001 A 
ATOM     25  C10 NON d   1     -39.553  20.565  -8.074  0.00  0.00     0.012 A 
ENDBRANCH   4  20
TORSDOF 4
ENDMDL
MODEL 3
REMARK VINA RESULT:   -29.861      1.137      1.433
REMARK INTER + INTRA:         -32.598
REMARK INTER:                 -31.055
REMARK INTRA:                  -1.543
REMARK CONF_INDEPENDENT:        1.193
REMARK UNBOUND:                -1.543
REMARK  4 active torsions:
REMARK  status: ('A' for Active; 'I' for Inactive)
REMARK    1  A    between atoms: N1_1  and  C1_2 
REMARK    2  A    between atoms: C4_5  and  C5_6 
REMARK    3  A    between atoms: C12_13  and  N2_14 
REMARK       I    between atoms: N2_14  and  C13_15 
REMARK    4  A    between atoms: C13_15  and  C14_17 
ROOT
ATOM      1  C1  NON d   1     -41.363  18.496  -3.898  0.00  0.00     0.033 A 
ATOM      2  C2  NON d   1     -40.014  18.839  -3.929  0.00  0.00     0.026 A 
ATOM      3  C3  NON d   1     -39.500  19.612  -4.980  0.00  0.00     0.014 A 
ATOM      4  C4  NON d   1     -40.307  20.066  -6.042  0.00  0.00    -0.024 A 
ATOM      5  C11 NON d   1     -41.662  19.668  -5.998  0.00  0.00     0.043 A 
ATOM      6  C12 NON d   1     -42.186  18.865  -4.977  0.00  0.00     0.057 A 
ENDROOT
BRANCH   6   7
ATOM      7  N2  NON d   1     -43.505  18.343  -4.979  0.00  0.00    -0.321 N 
ATOM      8  C13 NON d   1     -43.908  17.069  -4.622  0.00  0.00     0.257 C 
ATOM      9  O1  NON d   1     -43.161  16.153  -4.290  0.00  0.00    -0.267 OA
ATOM     10  H11 NON d   1     -44.191  19.061  -5.168  0.00  0.00     0.169 HD
BRANCH   8  11
ATOM     11  C14 NON d   1     -45.370  16.776  -4.649  0.00  0.00     0.049 A 
ATOM     12  C15 NON d   1     -46.082  16.793  -3.442  0.00  0.00     0.020 A 
ATOM     13  C16 NON d   1     -47.443  16.496  -3.425  0.00  0.00     0.020 A 
ATOM     14  C17 NON d   1     -48.059  16.189  -4.625  0.00  0.00     0.116 A 
ATOM     15  N3  NON d   1     -47.412  16.160  -5.810  0.00  0.00    -0.272 NA
ATOM     16  C18 NON d   1     -46.085  16.451  -5.793  0.00  0.00     0.133 A 
ENDBRANCH   8  11
ENDBRANCH   6   7
BRANCH   1  17
ATOM     17  N1  NON d   1     -41.875  17.721  -2.830  0.00  0.00    -0.301 NA
ATOM     18  H1  NON d   1     -42.889  17.784  -2.766  0.00  0.00     0.124 HD
ATOM     19  H2  NON d   1     -41.602  16.747  -2.941  0.00  0.00     0.124 HD
ENDBRANCH   1  17
BRANCH   4  20
ATOM     20  C5  NON d   1     -39.762  20.899  -7.163  0.00  0.00    -0.026 A 
ATOM     21  C6  NON d   1     -39.847  20.495  -8.512  0.00  0.00     0.012 A 
ATOM     22  C7  NON d   1     -39.348  21.280  -9.561  0.00  0.00     0.001 A 
ATOM     23  C8  NON d   1     -38.730  22.495  -9.295  0.00  0.00     0.000 A 
ATOM     24  C9  NON d   1     -38.619  22.925  -7.981  0.00  0.00     0.001 A 
ATOM     25  C10 NON d   1     -39.132  22.142  -6.938  0.00  0.00     0.012 A 
ENDBRANCH   4  20
TORSDOF 4
ENDMDL
MODEL 4
REMARK VINA RESULT:   -28.926      2.639      4.716
REMARK INTER + INTRA:         -31.434
REMARK INTER:                 -30.119
REMARK INTRA:                  -1.314
REMARK CONF_INDEPENDENT:        1.193
REMARK UNBOUND:                -1.314
REMARK  4 active torsions:
REMARK  status: ('A' for Active; 'I' for Inactive)
REMARK    1  A    between atoms: N1_1  and  C1_2 
REMARK    2  A    between atoms: C4_5  and  C5_6 
REMARK    3  A    between atoms: C12_13  and  N2_14 
REMARK       I    between atoms: N2_14  and  C13_15 
REMARK    4  A    between atoms: C13_15  and  C14_17 
ROOT
ATOM      1  C1  NON d   1     -40.785  18.430  -4.962  0.00  0.00     0.033 A 
ATOM      2  C2  NON d   1     -39.575  19.118  -4.985  0.00  0.00     0.026 A 
ATOM      3  C3  NON d   1     -39.126  19.807  -3.849  0.00  0.00     0.014 A 
ATOM      4  C4  NON d   1     -39.868  19.843  -2.652  0.00  0.00    -0.024 A 
ATOM      5  C11 NON d   1     -41.108  19.167  -2.676  0.00  0.00     0.043 A 
ATOM      6  C12 NON d   1     -41.591  18.505  -3.812  0.00  0.00     0.057 A 
ENDROOT
BRANCH   6   7
ATOM      7  N2  NON d   1     -42.886  17.933  -3.905  0.00  0.00    -0.321 N 
ATOM      8  C13 NON d   1     -43.900  18.279  -4.779  0.00  0.00     0.257 C 
ATOM      9  O1  NON d   1     -43.853  19.194  -5.596  0.00  0.00    -0.267 OA
ATOM     10  H11 NON d   1     -42.978  17.118  -3.314  0.00  0.00     0.169 HD
BRANCH   8  11
ATOM     11  C14 NON d   1     -45.160  17.484  -4.723  0.00  0.00     0.049 A 
ATOM     12  C15 NON d   1     -45.533  16.899  -3.505  0.00  0.00     0.020 A 
ATOM     13  C16 NON d   1     -46.690  16.127  -3.421  0.00  0.00     0.020 A 
ATOM     14  C17 NON d   1     -47.447  15.960  -4.566  0.00  0.00     0.116 A 
ATOM     15  N3  NON d   1     -47.126  16.505  -5.760  0.00  0.00    -0.272 NA
ATOM     16  C18 NON d   1     -45.991  17.250  -5.810  0.00  0.00     0.133 A 
ENDBRANCH   8  11
ENDBRANCH   6   7
BRANCH   1  17
ATOM     17  N1  NON d   1     -41.227  17.732  -6.111  0.00  0.00    -0.301 NA
ATOM     18  H1  NON d   1     -42.199  17.938  -6.332  0.00  0.00     0.124 HD
ATOM     19  H2  NON d   1     -40.641  17.965  -6.911  0.00  0.00     0.124 HD
ENDBRANCH   1  17
BRANCH   4  20
ATOM     20  C5  NON d   1     -39.388  20.573  -1.433  0.00  0.00    -0.026 A 
ATOM     21  C6  NON d   1     -40.271  21.234  -0.555  0.00  0.00     0.012 A 
ATOM     22  C7  NON d   1     -39.822  21.907   0.592  0.00  0.00     0.001 A 
ATOM     23  C8  NON d   1     -38.467  21.953   0.891  0.00  0.00     0.000 A 
ATOM     24  C9  NON d   1     -37.565  21.322   0.048  0.00  0.00     0.001 A 
ATOM     25  C10 NON d   1     -38.020  20.641  -1.088  0.00  0.00     0.012 A 
ENDBRANCH   4  20
TORSDOF 4
ENDMDL
MODEL 5
REMARK VINA RESULT:   -28.856      2.949      3.940
REMARK INTER + INTRA:         -31.297
REMARK INTER:                 -30.049
REMARK INTRA:                  -1.248
REMARK CONF_INDEPENDENT:        1.193
REMARK UNBOUND:                -1.248
REMARK  4 active torsions:
REMARK  status: ('A' for Active; 'I' for Inactive)
REMARK    1  A    between atoms: N1_1  and  C1_2 
REMARK    2  A    between atoms: C4_5  and  C5_6 
REMARK    3  A    between atoms: C12_13  and  N2_14 
REMARK       I    between atoms: N2_14  and  C13_15 
REMARK    4  A    between atoms: C13_15  and  C14_17 
ROOT
ATOM      1  C1  NON d   1     -41.274  18.597  -5.345  0.00  0.00     0.033 A 
ATOM      2  C2  NON d   1     -40.047  19.245  -5.461  0.00  0.00     0.026 A 
ATOM      3  C3  NON d   1     -39.885  20.553  -4.981  0.00  0.00     0.014 A 
ATOM      4  C4  NON d   1     -40.938  21.267  -4.377  0.00  0.00    -0.024 A 
ATOM      5  C11 NON d   1     -42.179  20.594  -4.310  0.00  0.00     0.043 A 
ATOM      6  C12 NON d   1     -42.371  19.302  -4.817  0.00  0.00     0.057 A 
ENDROOT
BRANCH   6   7
ATOM      7  N2  NON d   1     -43.633  18.657  -4.883  0.00  0.00    -0.321 N 
ATOM      8  C13 NON d   1     -44.010  17.478  -4.266  0.00  0.00     0.257 C 
ATOM      9  O1  NON d   1     -43.276  16.761  -3.592  0.00  0.00    -0.267 OA
ATOM     10  H11 NON d   1     -44.319  19.226  -5.360  0.00  0.00     0.169 HD
BRANCH   8  11
ATOM     11  C14 NON d   1     -45.422  17.031  -4.438  0.00  0.00     0.049 A 
ATOM     12  C15 NON d   1     -46.224  16.880  -3.299  0.00  0.00     0.020 A 
ATOM     13  C16 NON d   1     -47.540  16.436  -3.420  0.00  0.00     0.020 A 
ATOM     14  C17 NON d   1     -48.021  16.157  -4.686  0.00  0.00     0.116 A 
ATOM     15  N3  NON d   1     -47.284  16.289  -5.810  0.00  0.00    -0.272 NA
ATOM     16  C18 NON d   1     -46.004  16.719  -5.660  0.00  0.00     0.133 A 
ENDBRANCH   8  11
ENDBRANCH   6   7
BRANCH   1  17
ATOM     17  N1  NON d   1     -41.428  17.275  -5.826  0.00  0.00    -0.301 NA
ATOM     18  H1  NON d   1     -42.320  16.870  -5.550  0.00  0.00     0.124 HD
ATOM     19  H2  NON d   1     -41.348  17.259  -6.841  0.00  0.00     0.124 HD
ENDBRANCH   1  17
BRANCH   4  20
ATOM     20  C5  NON d   1     -40.766  22.662  -3.856  0.00  0.00    -0.026 A 
ATOM     21  C6  NON d   1     -40.519  23.759  -4.708  0.00  0.00     0.012 A 
ATOM     22  C7  NON d   1     -40.369  25.066  -4.221  0.00  0.00     0.001 A 
ATOM     23  C8  NON d   1     -40.448  25.319  -2.858  0.00  0.00     0.000 A 
ATOM     24  C9  NON d   1     -40.682  24.267  -1.986  0.00  0.00     0.001 A 
ATOM     25  C10 NON d   1     -40.843  22.965  -2.479  0.00  0.00     0.012 A 
ENDBRANCH   4  20
TORSDOF 4
ENDMDL
