MODEL 1
REMARK VINA RESULT:    -7.913      0.000      0.000
REMARK INTER + INTRA:         -12.279
REMARK INTER:                 -10.300
REMARK INTRA:                  -1.979
REMARK CONF_INDEPENDENT:        2.386
REMARK UNBOUND:                -1.979
REMARK  8 active torsions:
REMARK  status: ('A' for Active; 'I' for Inactive)
REMARK    1  A    between atoms: C2_2  and  C3_3 
REMARK    2  A    between atoms: C4_4  and  C3_3 
REMARK    3  A    between atoms: C10_14  and  C11_15 
REMARK    4  A    between atoms: C11_15  and  C12_16 
REMARK    5  A    between atoms: C16_22  and  C17_23 
REMARK    6  A    between atoms: C17_23  and  C18_24 
REMARK    7  A    between atoms: N4_26  and  C20_27 
REMARK    8  A    between atoms: C20_27  and  N5_28 
ROOT
ATOM      1  C4  NON d   1     -39.571  23.474  -4.512  0.00  0.00     0.155 C 
ATOM      2  N1  NON d   1     -40.586  24.276  -5.176  0.00  0.00    -0.248 NA
ATOM      3  C5  NON d   1     -40.175  25.547  -5.505  0.00  0.00     0.220 C 
ATOM      4  O1  NON d   1     -40.459  26.477  -4.752  0.00  0.00    -0.278 OA
ATOM      5  C6  NON d   1     -39.713  25.733  -6.963  0.00  0.00     0.166 C 
ATOM      6  C7  NON d   1     -39.663  27.246  -7.242  0.00  0.00     0.042 C 
ATOM      7  N2  NON d   1     -38.894  24.837  -7.731  0.00  0.00    -0.349 N 
ATOM      8  C8  NON d   1     -39.556  23.986  -8.597  0.00  0.00     0.219 C 
ATOM      9  O2  NON d   1     -40.767  23.795  -8.546  0.00  0.00    -0.274 OA
ATOM     10  C9  NON d   1     -38.682  23.312  -9.602  0.00  0.00     0.122 C 
ATOM     11  C10 NON d   1     -39.486  22.322 -10.481  0.00  0.00     0.072 C 
ATOM     12  N3  NON d   1     -39.654  21.009  -9.821  0.00  0.00    -0.256 NA
ATOM     13  C15 NON d   1     -40.450  20.955  -8.670  0.00  0.00     0.220 C 
ATOM     14  O3  NON d   1     -41.667  20.838  -8.786  0.00  0.00    -0.278 OA
ATOM     15  C16 NON d   1     -39.708  20.894  -7.309  0.00  0.00     0.175 C 
ATOM     16  N6  NON d   1     -40.182  21.862  -6.311  0.00  0.00    -0.347 N 
ATOM     17  C29 NON d   1     -39.461  22.066  -5.141  0.00  0.00     0.236 C 
ATOM     18  O4  NON d   1     -38.645  21.250  -4.717  0.00  0.00    -0.272 OA
ATOM     19  H9  NON d   1     -41.402  24.357  -4.577  0.00  0.00     0.131 HD
ATOM     20  H14 NON d   1     -37.908  25.035  -7.832  0.00  0.00     0.163 HD
ATOM     21  H27 NON d   1     -40.201  20.461 -10.479  0.00  0.00     0.130 HD
ATOM     22  H45 NON d   1     -40.766  22.633  -6.640  0.00  0.00     0.163 HD
ENDROOT
BRANCH  15  23
ATOM     23  C17 NON d   1     -39.802  19.427  -6.830  0.00  0.00     0.075 C 
BRANCH  23  24
ATOM     24  C18 NON d   1     -40.848  19.181  -5.765  0.00  0.00    -0.028 C 
ATOM     25  C19 NON d   1     -42.208  19.398  -5.833  0.00  0.00     0.101 C 
ATOM     26  N4  NON d   1     -42.790  18.803  -4.743  0.00  0.00    -0.331 N 
ATOM     27  C23 NON d   1     -41.809  18.483  -3.821  0.00  0.00     0.046 A 
ATOM     28  C24 NON d   1     -41.891  18.004  -2.503  0.00  0.00     0.030 A 
ATOM     29  C28 NON d   1     -40.581  18.674  -4.459  0.00  0.00    -0.002 A 
ATOM     30  C25 NON d   1     -40.697  17.725  -1.832  0.00  0.00     0.002 A 
ATOM     31  C26 NON d   1     -39.466  17.889  -2.456  0.00  0.00     0.001 A 
ATOM     32  C27 NON d   1     -39.394  18.354  -3.771  0.00  0.00     0.014 A 
BRANCH  26  33
ATOM     33  C20 NON d   1     -44.193  18.431  -4.581  0.00  0.00     0.363 C 
BRANCH  33  34
ATOM     34  N5  NON d   1     -44.476  16.939  -4.472  0.00  0.00    -0.063 N 
ATOM     35  C21 NON d   1     -43.346  16.140  -5.060  0.00  0.00     0.271 C 
ATOM     36  C22 NON d   1     -45.791  16.502  -5.061  0.00  0.00     0.271 C 
ATOM     37  H34 NON d   1     -44.494  16.748  -3.461  0.00  0.00     0.280 HD
ENDBRANCH  33  34
ENDBRANCH  26  33
ENDBRANCH  23  24
ENDBRANCH  15  23
BRANCH  11  38
ATOM     38  C11 NON d   1     -38.751  22.282 -11.850  0.00  0.00     0.024 C 
BRANCH  38  39
ATOM     39  C12 NON d   1     -39.318  22.985 -13.092  0.00  0.00    -0.021 C 
ATOM     40  C13 NON d   1     -40.499  23.890 -12.752  0.00  0.00     0.009 C 
ATOM     41  C14 NON d   1     -38.267  23.677 -13.953  0.00  0.00     0.009 C 
ENDBRANCH  38  39
ENDBRANCH  11  38
BRANCH   1  42
ATOM     42  C3  NON d   1     -39.768  23.490  -2.979  0.00  0.00     0.029 C 
BRANCH  42  43
ATOM     43  C2  NON d   1     -40.443  22.225  -2.429  0.00  0.00    -0.002 C 
ATOM     44  C1  NON d   1     -39.531  21.346  -1.581  0.00  0.00     0.005 C 
ENDBRANCH  42  43
ENDBRANCH   1  42
TORSDOF 8
ENDMDL
MODEL 2
REMARK VINA RESULT:    -7.911      1.646      2.999
REMARK INTER + INTRA:         -12.338
REMARK INTER:                 -10.298
REMARK INTRA:                  -2.040
REMARK CONF_INDEPENDENT:        2.386
REMARK UNBOUND:                -2.040
REMARK  8 active torsions:
REMARK  status: ('A' for Active; 'I' for Inactive)
REMARK    1  A    between atoms: C2_2  and  C3_3 
REMARK    2  A    between atoms: C4_4  and  C3_3 
REMARK    3  A    between atoms: C10_14  and  C11_15 
REMARK    4  A    between atoms: C11_15  and  C12_16 
REMARK    5  A    between atoms: C16_22  and  C17_23 
REMARK    6  A    between atoms: C17_23  and  C18_24 
REMARK    7  A    between atoms: N4_26  and  C20_27 
REMARK    8  A    between atoms: C20_27  and  N5_28 
ROOT
ATOM      1  C4  NON d   1     -38.951  23.400  -4.666  0.00  0.00     0.155 C 
ATOM      2  N1  NON d   1     -40.262  23.868  -5.086  0.00  0.00    -0.248 NA
ATOM      3  C5  NON d   1     -40.323  25.217  -5.345  0.00  0.00     0.220 C 
ATOM      4  O1  NON d   1     -40.742  25.973  -4.469  0.00  0.00    -0.278 OA
ATOM      5  C6  NON d   1     -40.202  25.610  -6.830  0.00  0.00     0.166 C 
ATOM      6  C7  NON d   1     -40.666  27.072  -6.961  0.00  0.00     0.042 C 
ATOM      7  N2  NON d   1     -39.295  25.058  -7.798  0.00  0.00    -0.349 N 
ATOM      8  C8  NON d   1     -39.805  24.083  -8.635  0.00  0.00     0.219 C 
ATOM      9  O2  NON d   1     -40.871  23.515  -8.421  0.00  0.00    -0.274 OA
ATOM     10  C9  NON d   1     -38.955  23.771  -9.822  0.00  0.00     0.122 C 
ATOM     11  C10 NON d   1     -39.558  22.620 -10.664  0.00  0.00     0.072 C 
ATOM     12  N3  NON d   1     -39.199  21.292 -10.122  0.00  0.00    -0.256 NA
ATOM     13  C15 NON d   1     -39.727  20.933  -8.875  0.00  0.00     0.220 C 
ATOM     14  O3  NON d   1     -40.851  20.440  -8.818  0.00  0.00    -0.278 OA
ATOM     15  C16 NON d   1     -38.777  21.046  -7.654  0.00  0.00     0.175 C 
ATOM     16  N6  NON d   1     -39.343  21.765  -6.504  0.00  0.00    -0.347 N 
ATOM     17  C29 NON d   1     -38.527  22.132  -5.441  0.00  0.00     0.236 C 
ATOM     18  O4  NON d   1     -37.439  21.598  -5.229  0.00  0.00    -0.272 OA
ATOM     19  H9  NON d   1     -40.946  23.656  -4.366  0.00  0.00     0.131 HD
ATOM     20  H14 NON d   1     -38.450  25.565  -8.025  0.00  0.00     0.163 HD
ATOM     21  H27 NON d   1     -39.658  20.630 -10.741  0.00  0.00     0.130 HD
ATOM     22  H45 NON d   1     -40.183  22.325  -6.663  0.00  0.00     0.163 HD
ENDROOT
BRANCH  15  23
ATOM     23  C17 NON d   1     -38.333  19.604  -7.315  0.00  0.00     0.075 C 
BRANCH  23  24
ATOM     24  C18 NON d   1     -38.803  19.105  -5.967  0.00  0.00    -0.028 C 
ATOM     25  C19 NON d   1     -38.047  18.617  -4.922  0.00  0.00     0.101 C 
ATOM     26  N4  NON d   1     -38.855  18.522  -3.819  0.00  0.00    -0.331 N 
ATOM     27  C23 NON d   1     -40.178  18.638  -4.211  0.00  0.00     0.046 A 
ATOM     28  C24 NON d   1     -41.378  18.465  -3.502  0.00  0.00     0.030 A 
ATOM     29  C28 NON d   1     -40.165  19.045  -5.548  0.00  0.00    -0.002 A 
ATOM     30  C25 NON d   1     -42.578  18.705  -4.177  0.00  0.00     0.002 A 
ATOM     31  C26 NON d   1     -42.587  19.129  -5.500  0.00  0.00     0.001 A 
ATOM     32  C27 NON d   1     -41.388  19.312  -6.194  0.00  0.00     0.014 A 
BRANCH  26  33
ATOM     33  C20 NON d   1     -38.439  18.436  -2.421  0.00  0.00     0.363 C 
BRANCH  33  34
ATOM     34  N5  NON d   1     -38.277  19.764  -1.694  0.00  0.00    -0.063 N 
ATOM     35  C21 NON d   1     -39.574  20.525  -1.684  0.00  0.00     0.271 C 
ATOM     36  C22 NON d   1     -37.160  20.633  -2.210  0.00  0.00     0.271 C 
ATOM     37  H34 NON d   1     -38.064  19.506  -0.721  0.00  0.00     0.280 HD
ENDBRANCH  33  34
ENDBRANCH  26  33
ENDBRANCH  23  24
ENDBRANCH  15  23
BRANCH  11  38
ATOM     38  C11 NON d   1     -39.096  22.880 -12.126  0.00  0.00     0.024 C 
BRANCH  38  39
ATOM     39  C12 NON d   1     -40.063  23.407 -13.197  0.00  0.00    -0.021 C 
ATOM     40  C13 NON d   1     -41.061  24.412 -12.626  0.00  0.00     0.009 C 
ATOM     41  C14 NON d   1     -39.380  23.902 -14.466  0.00  0.00     0.009 C 
ENDBRANCH  38  39
ENDBRANCH  11  38
BRANCH   1  42
ATOM     42  C3  NON d   1     -38.874  23.280  -3.127  0.00  0.00     0.029 C 
BRANCH  42  43
ATOM     43  C2  NON d   1     -39.852  24.204  -2.385  0.00  0.00    -0.002 C 
ATOM     44  C1  NON d   1     -41.059  23.488  -1.790  0.00  0.00     0.005 C 
ENDBRANCH  42  43
ENDBRANCH   1  42
TORSDOF 8
ENDMDL
MODEL 3
REMARK VINA RESULT:    -7.706      1.926      6.189
REMARK INTER + INTRA:         -12.165
REMARK INTER:                 -10.093
REMARK INTRA:                  -2.073
REMARK CONF_INDEPENDENT:        2.386
REMARK UNBOUND:                -2.073
REMARK  8 active torsions:
REMARK  status: ('A' for Active; 'I' for Inactive)
REMARK    1  A    between atoms: C2_2  and  C3_3 
REMARK    2  A    between atoms: C4_4  and  C3_3 
REMARK    3  A    between atoms: C10_14  and  C11_15 
REMARK    4  A    between atoms: C11_15  and  C12_16 
REMARK    5  A    between atoms: C16_22  and  C17_23 
REMARK    6  A    between atoms: C17_23  and  C18_24 
REMARK    7  A    between atoms: N4_26  and  C20_27 
REMARK    8  A    between atoms: C20_27  and  N5_28 
ROOT
ATOM      1  C4  NON d   1     -39.192  22.976 -10.263  0.00  0.00     0.155 C 
ATOM      2  N1  NON d   1     -38.188  23.867  -9.704  0.00  0.00    -0.248 NA
ATOM      3  C5  NON d   1     -38.523  25.199  -9.755  0.00  0.00     0.220 C 
ATOM      4  O1  NON d   1     -38.088  25.888 -10.677  0.00  0.00    -0.278 OA
ATOM      5  C6  NON d   1     -39.114  25.780  -8.455  0.00  0.00     0.166 C 
ATOM      6  C7  NON d   1     -39.066  27.314  -8.572  0.00  0.00     0.042 C 
ATOM      7  N2  NON d   1     -40.078  25.157  -7.591  0.00  0.00    -0.349 N 
ATOM      8  C8  NON d   1     -39.580  24.523  -6.468  0.00  0.00     0.219 C 
ATOM      9  O2  NON d   1     -38.390  24.260  -6.325  0.00  0.00    -0.274 OA
ATOM     10  C9  NON d   1     -40.605  24.179  -5.438  0.00  0.00     0.122 C 
ATOM     11  C10 NON d   1     -39.979  23.408  -4.250  0.00  0.00     0.072 C 
ATOM     12  N3  NON d   1     -39.854  21.962  -4.536  0.00  0.00    -0.256 NA
ATOM     13  C15 NON d   1     -38.953  21.570  -5.533  0.00  0.00     0.220 C 
ATOM     14  O3  NON d   1     -37.767  21.421  -5.247  0.00  0.00    -0.278 OA
ATOM     15  C16 NON d   1     -39.555  21.200  -6.914  0.00  0.00     0.175 C 
ATOM     16  N6  NON d   1     -38.903  21.852  -8.059  0.00  0.00    -0.347 N 
ATOM     17  C29 NON d   1     -39.482  21.786  -9.320  0.00  0.00     0.236 C 
ATOM     18  O4  NON d   1     -40.316  20.934  -9.620  0.00  0.00    -0.272 OA
ATOM     19  H9  NON d   1     -37.311  23.745 -10.203  0.00  0.00     0.131 HD
ATOM     20  H14 NON d   1     -41.049  25.428  -7.662  0.00  0.00     0.163 HD
ATOM     21  H27 NON d   1     -39.424  21.573  -3.701  0.00  0.00     0.130 HD
ATOM     22  H45 NON d   1     -38.294  22.649  -7.865  0.00  0.00     0.163 HD
ENDROOT
BRANCH  15  23
ATOM     23  C17 NON d   1     -39.534  19.657  -6.997  0.00  0.00     0.075 C 
BRANCH  23  24
ATOM     24  C18 NON d   1     -39.583  18.957  -5.657  0.00  0.00    -0.028 C 
ATOM     25  C19 NON d   1     -38.532  18.549  -4.863  0.00  0.00     0.101 C 
ATOM     26  N4  NON d   1     -39.034  18.194  -3.638  0.00  0.00    -0.331 N 
ATOM     27  C23 NON d   1     -40.409  18.067  -3.729  0.00  0.00     0.046 A 
ATOM     28  C24 NON d   1     -41.362  17.588  -2.815  0.00  0.00     0.030 A 
ATOM     29  C28 NON d   1     -40.778  18.579  -4.975  0.00  0.00    -0.002 A 
ATOM     30  C25 NON d   1     -42.709  17.630  -3.190  0.00  0.00     0.002 A 
ATOM     31  C26 NON d   1     -43.098  18.155  -4.416  0.00  0.00     0.001 A 
ATOM     32  C27 NON d   1     -42.144  18.642  -5.314  0.00  0.00     0.014 A 
BRANCH  26  33
ATOM     33  C20 NON d   1     -38.301  18.077  -2.380  0.00  0.00     0.363 C 
BRANCH  33  34
ATOM     34  N5  NON d   1     -37.961  19.388  -1.685  0.00  0.00    -0.063 N 
ATOM     35  C21 NON d   1     -39.140  20.323  -1.710  0.00  0.00     0.271 C 
ATOM     36  C22 NON d   1     -36.731  20.080  -2.208  0.00  0.00     0.271 C 
ATOM     37  H34 NON d   1     -37.795  19.130  -0.703  0.00  0.00     0.280 HD
ENDBRANCH  33  34
ENDBRANCH  26  33
ENDBRANCH  23  24
ENDBRANCH  15  23
BRANCH  11  38
ATOM     38  C11 NON d   1     -40.850  23.761  -3.012  0.00  0.00     0.024 C 
BRANCH  38  39
ATOM     39  C12 NON d   1     -40.455  23.321  -1.595  0.00  0.00    -0.021 C 
ATOM     40  C13 NON d   1     -39.013  23.693  -1.257  0.00  0.00     0.009 C 
ATOM     41  C14 NON d   1     -41.445  23.736  -0.512  0.00  0.00     0.009 C 
ENDBRANCH  38  39
ENDBRANCH  11  38
BRANCH   1  42
ATOM     42  C3  NON d   1     -38.840  22.586 -11.717  0.00  0.00     0.029 C 
BRANCH  42  43
ATOM     43  C2  NON d   1     -39.895  23.021 -12.745  0.00  0.00    -0.002 C 
ATOM     44  C1  NON d   1     -40.653  24.288 -12.368  0.00  0.00     0.005 C 
ENDBRANCH  42  43
ENDBRANCH   1  42
TORSDOF 8
ENDMDL
MODEL 4
REMARK VINA RESULT:    -7.651      2.545      5.853
REMARK INTER + INTRA:         -11.503
REMARK INTER:                 -10.037
REMARK INTRA:                  -1.465
REMARK CONF_INDEPENDENT:        2.386
REMARK UNBOUND:                -1.465
REMARK  8 active torsions:
REMARK  status: ('A' for Active; 'I' for Inactive)
REMARK    1  A    between atoms: C2_2  and  C3_3 
REMARK    2  A    between atoms: C4_4  and  C3_3 
REMARK    3  A    between atoms: C10_14  and  C11_15 
REMARK    4  A    between atoms: C11_15  and  C12_16 
REMARK    5  A    between atoms: C16_22  and  C17_23 
REMARK    6  A    between atoms: C17_23  and  C18_24 
REMARK    7  A    between atoms: N4_26  and  C20_27 
REMARK    8  A    between atoms: C20_27  and  N5_28 
ROOT
ATOM      1  C4  NON d   1     -40.524  19.518  -6.008  0.00  0.00     0.155 C 
ATOM      2  N1  NON d   1     -39.150  19.766  -6.410  0.00  0.00    -0.248 NA
ATOM      3  C5  NON d   1     -38.921  19.626  -7.759  0.00  0.00     0.220 C 
ATOM      4  O1  NON d   1     -38.464  18.565  -8.179  0.00  0.00    -0.278 OA
ATOM      5  C6  NON d   1     -38.922  20.939  -8.567  0.00  0.00     0.166 C 
ATOM      6  C7  NON d   1     -38.287  20.639  -9.936  0.00  0.00     0.042 C 
ATOM      7  N2  NON d   1     -39.835  22.039  -8.427  0.00  0.00    -0.349 N 
ATOM      8  C8  NON d   1     -39.398  23.111  -7.672  0.00  0.00     0.219 C 
ATOM      9  O2  NON d   1     -38.416  23.052  -6.939  0.00  0.00    -0.274 OA
ATOM     10  C9  NON d   1     -40.216  24.352  -7.815  0.00  0.00     0.122 C 
ATOM     11  C10 NON d   1     -39.706  25.478  -6.882  0.00  0.00     0.072 C 
ATOM     12  N3  NON d   1     -40.242  25.344  -5.510  0.00  0.00    -0.256 NA
ATOM     13  C15 NON d   1     -39.822  24.244  -4.752  0.00  0.00     0.220 C 
ATOM     14  O3  NON d   1     -38.767  24.312  -4.128  0.00  0.00    -0.278 OA
ATOM     15  C16 NON d   1     -40.814  23.057  -4.633  0.00  0.00     0.175 C 
ATOM     16  N6  NON d   1     -40.229  21.741  -4.922  0.00  0.00    -0.347 N 
ATOM     17  C29 NON d   1     -41.050  20.630  -5.073  0.00  0.00     0.236 C 
ATOM     18  O4  NON d   1     -42.202  20.597  -4.641  0.00  0.00    -0.272 OA
ATOM     19  H9  NON d   1     -38.531  19.125  -5.921  0.00  0.00     0.131 HD
ATOM     20  H14 NON d   1     -40.604  22.125  -9.078  0.00  0.00     0.163 HD
ATOM     21  H27 NON d   1     -39.831  26.119  -4.999  0.00  0.00     0.130 HD
ATOM     22  H45 NON d   1     -39.324  21.719  -5.396  0.00  0.00     0.163 HD
ENDROOT
BRANCH  15  23
ATOM     23  C17 NON d   1     -41.436  23.151  -3.221  0.00  0.00     0.075 C 
BRANCH  23  24
ATOM     24  C18 NON d   1     -40.554  22.626  -2.111  0.00  0.00    -0.028 C 
ATOM     25  C19 NON d   1     -39.630  21.604  -2.160  0.00  0.00     0.101 C 
ATOM     26  N4  NON d   1     -38.890  21.641  -1.007  0.00  0.00    -0.331 N 
ATOM     27  C23 NON d   1     -39.521  22.460  -0.086  0.00  0.00     0.046 A 
ATOM     28  C24 NON d   1     -39.260  22.710   1.271  0.00  0.00     0.030 A 
ATOM     29  C28 NON d   1     -40.545  23.119  -0.772  0.00  0.00    -0.002 A 
ATOM     30  C25 NON d   1     -40.063  23.644   1.932  0.00  0.00     0.002 A 
ATOM     31  C26 NON d   1     -41.072  24.326   1.262  0.00  0.00     0.001 A 
ATOM     32  C27 NON d   1     -41.317  24.080  -0.091  0.00  0.00     0.014 A 
BRANCH  26  33
ATOM     33  C20 NON d   1     -37.581  21.035  -0.774  0.00  0.00     0.363 C 
BRANCH  33  34
ATOM     34  N5  NON d   1     -37.399  19.621  -1.309  0.00  0.00    -0.063 N 
ATOM     35  C21 NON d   1     -36.190  18.973  -0.691  0.00  0.00     0.271 C 
ATOM     36  C22 NON d   1     -37.342  19.517  -2.810  0.00  0.00     0.271 C 
ATOM     37  H34 NON d   1     -38.226  19.106  -0.979  0.00  0.00     0.280 HD
ENDBRANCH  33  34
ENDBRANCH  26  33
ENDBRANCH  23  24
ENDBRANCH  15  23
BRANCH  11  38
ATOM     38  C11 NON d   1     -40.061  26.812  -7.599  0.00  0.00     0.024 C 
BRANCH  38  39
ATOM     39  C12 NON d   1     -39.327  27.265  -8.869  0.00  0.00    -0.021 C 
ATOM     40  C13 NON d   1     -37.826  26.995  -8.795  0.00  0.00     0.009 C 
ATOM     41  C14 NON d   1     -39.957  26.770 -10.166  0.00  0.00     0.009 C 
ENDBRANCH  38  39
ENDBRANCH  11  38
BRANCH   1  42
ATOM     42  C3  NON d   1     -40.693  18.079  -5.470  0.00  0.00     0.029 C 
BRANCH  42  43
ATOM     43  C2  NON d   1     -41.236  18.016  -4.034  0.00  0.00    -0.002 C 
ATOM     44  C1  NON d   1     -42.603  17.354  -3.910  0.00  0.00     0.005 C 
ENDBRANCH  42  43
ENDBRANCH   1  42
TORSDOF 8
ENDMDL
MODEL 5
REMARK VINA RESULT:    -7.532      3.264      7.592
REMARK INTER + INTRA:         -12.321
REMARK INTER:                  -9.918
REMARK INTRA:                  -2.403
REMARK CONF_INDEPENDENT:        2.386
REMARK UNBOUND:                -2.403
REMARK  8 active torsions:
REMARK  status: ('A' for Active; 'I' for Inactive)
REMARK    1  A    between atoms: C2_2  and  C3_3 
REMARK    2  A    between atoms: C4_4  and  C3_3 
REMARK    3  A    between atoms: C10_14  and  C11_15 
REMARK    4  A    between atoms: C11_15  and  C12_16 
REMARK    5  A    between atoms: C16_22  and  C17_23 
REMARK    6  A    between atoms: C17_23  and  C18_24 
REMARK    7  A    between atoms: N4_26  and  C20_27 
REMARK    8  A    between atoms: C20_27  and  N5_28 
ROOT
ATOM      1  C4  NON d   1     -40.729  19.235  -5.240  0.00  0.00     0.155 C 
ATOM      2  N1  NON d   1     -39.742  19.523  -6.269  0.00  0.00    -0.248 NA
ATOM      3  C5  NON d   1     -40.247  20.176  -7.369  0.00  0.00     0.220 C 
ATOM      4  O1  NON d   1     -40.550  19.519  -8.364  0.00  0.00    -0.278 OA
ATOM      5  C6  NON d   1     -40.045  21.704  -7.379  0.00  0.00     0.166 C 
ATOM      6  C7  NON d   1     -40.315  22.195  -8.812  0.00  0.00     0.042 C 
ATOM      7  N2  NON d   1     -40.206  22.603  -6.271  0.00  0.00    -0.349 N 
ATOM      8  C8  NON d   1     -39.052  22.977  -5.608  0.00  0.00     0.219 C 
ATOM      9  O2  NON d   1     -37.982  22.396  -5.756  0.00  0.00    -0.274 OA
ATOM     10  C9  NON d   1     -39.208  24.146  -4.691  0.00  0.00     0.122 C 
ATOM     11  C10 NON d   1     -37.893  24.452  -3.933  0.00  0.00     0.072 C 
ATOM     12  N3  NON d   1     -37.736  23.598  -2.735  0.00  0.00    -0.256 NA
ATOM     13  C15 NON d   1     -37.543  22.225  -2.934  0.00  0.00     0.220 C 
ATOM     14  O3  NON d   1     -36.410  21.802  -3.150  0.00  0.00    -0.278 OA
ATOM     15  C16 NON d   1     -38.774  21.307  -2.713  0.00  0.00     0.175 C 
ATOM     16  N6  NON d   1     -39.030  20.356  -3.804  0.00  0.00    -0.347 N 
ATOM     17  C29 NON d   1     -40.219  19.639  -3.838  0.00  0.00     0.236 C 
ATOM     18  O4  NON d   1     -40.925  19.482  -2.843  0.00  0.00    -0.272 OA
ATOM     19  H9  NON d   1     -39.319  18.656  -6.587  0.00  0.00     0.131 HD
ATOM     20  H14 NON d   1     -41.062  23.135  -6.190  0.00  0.00     0.163 HD
ATOM     21  H27 NON d   1     -36.843  23.878  -2.338  0.00  0.00     0.130 HD
ATOM     22  H45 NON d   1     -38.557  20.519  -4.695  0.00  0.00     0.163 HD
ENDROOT
BRANCH  15  23
ATOM     23  C17 NON d   1     -38.565  20.623  -1.343  0.00  0.00     0.075 C 
BRANCH  23  24
ATOM     24  C18 NON d   1     -38.772  21.531  -0.151  0.00  0.00    -0.028 C 
ATOM     25  C19 NON d   1     -38.086  21.548   1.045  0.00  0.00     0.101 C 
ATOM     26  N4  NON d   1     -38.436  22.687   1.722  0.00  0.00    -0.331 N 
ATOM     27  C23 NON d   1     -39.560  23.240   1.134  0.00  0.00     0.046 A 
ATOM     28  C24 NON d   1     -40.388  24.305   1.526  0.00  0.00     0.030 A 
ATOM     29  C28 NON d   1     -39.764  22.554  -0.067  0.00  0.00    -0.002 A 
ATOM     30  C25 NON d   1     -41.441  24.663   0.679  0.00  0.00     0.002 A 
ATOM     31  C26 NON d   1     -41.647  24.007  -0.529  0.00  0.00     0.001 A 
ATOM     32  C27 NON d   1     -40.811  22.957  -0.918  0.00  0.00     0.014 A 
BRANCH  26  33
ATOM     33  C20 NON d   1     -37.707  23.327   2.814  0.00  0.00     0.363 C 
BRANCH  33  34
ATOM     34  N5  NON d   1     -36.907  24.568   2.442  0.00  0.00    -0.063 N 
ATOM     35  C21 NON d   1     -37.777  25.794   2.489  0.00  0.00     0.271 C 
ATOM     36  C22 NON d   1     -36.190  24.483   1.120  0.00  0.00     0.271 C 
ATOM     37  H34 NON d   1     -36.204  24.661   3.187  0.00  0.00     0.280 HD
ENDBRANCH  33  34
ENDBRANCH  26  33
ENDBRANCH  23  24
ENDBRANCH  15  23
BRANCH  11  38
ATOM     38  C11 NON d   1     -37.914  25.981  -3.653  0.00  0.00     0.024 C 
BRANCH  38  39
ATOM     39  C12 NON d   1     -38.836  26.594  -2.589  0.00  0.00    -0.021 C 
ATOM     40  C13 NON d   1     -40.285  26.682  -3.064  0.00  0.00     0.009 C 
ATOM     41  C14 NON d   1     -38.701  25.966  -1.207  0.00  0.00     0.009 C 
ENDBRANCH  38  39
ENDBRANCH  11  38
BRANCH   1  42
ATOM     42  C3  NON d   1     -41.241  17.781  -5.356  0.00  0.00     0.029 C 
BRANCH  42  43
ATOM     43  C2  NON d   1     -42.735  17.626  -5.035  0.00  0.00    -0.002 C 
ATOM     44  C1  NON d   1     -43.029  17.257  -3.585  0.00  0.00     0.005 C 
ENDBRANCH  42  43
ENDBRANCH   1  42
TORSDOF 8
ENDMDL
MODEL 6
REMARK VINA RESULT:    -7.307      3.132      7.459
REMARK INTER + INTRA:         -11.897
REMARK INTER:                  -9.694
REMARK INTRA:                  -2.203
REMARK CONF_INDEPENDENT:        2.386
REMARK UNBOUND:                -2.203
REMARK  8 active torsions:
REMARK  status: ('A' for Active; 'I' for Inactive)
REMARK    1  A    between atoms: C2_2  and  C3_3 
REMARK    2  A    between atoms: C4_4  and  C3_3 
REMARK    3  A    between atoms: C10_14  and  C11_15 
REMARK    4  A    between atoms: C11_15  and  C12_16 
REMARK    5  A    between atoms: C16_22  and  C17_23 
REMARK    6  A    between atoms: C17_23  and  C18_24 
REMARK    7  A    between atoms: N4_26  and  C20_27 
REMARK    8  A    between atoms: C20_27  and  N5_28 
ROOT
ATOM      1  C4  NON d   1     -40.973  19.250  -5.456  0.00  0.00     0.155 C 
ATOM      2  N1  NON d   1     -39.818  19.110  -6.329  0.00  0.00    -0.248 NA
ATOM      3  C5  NON d   1     -39.982  19.664  -7.577  0.00  0.00     0.220 C 
ATOM      4  O1  NON d   1     -40.313  18.937  -8.512  0.00  0.00    -0.278 OA
ATOM      5  C6  NON d   1     -39.384  21.073  -7.756  0.00  0.00     0.166 C 
ATOM      6  C7  NON d   1     -39.323  21.359  -9.267  0.00  0.00     0.042 C 
ATOM      7  N2  NON d   1     -39.448  22.163  -6.823  0.00  0.00    -0.349 N 
ATOM      8  C8  NON d   1     -38.335  22.359  -6.026  0.00  0.00     0.219 C 
ATOM      9  O2  NON d   1     -37.446  21.522  -5.908  0.00  0.00    -0.274 OA
ATOM     10  C9  NON d   1     -38.298  23.671  -5.315  0.00  0.00     0.122 C 
ATOM     11  C10 NON d   1     -37.061  23.780  -4.389  0.00  0.00     0.072 C 
ATOM     12  N3  NON d   1     -37.295  23.134  -3.079  0.00  0.00    -0.256 NA
ATOM     13  C15 NON d   1     -37.446  21.742  -3.057  0.00  0.00     0.220 C 
ATOM     14  O3  NON d   1     -36.447  21.029  -3.015  0.00  0.00    -0.278 OA
ATOM     15  C16 NON d   1     -38.894  21.198  -2.930  0.00  0.00     0.175 C 
ATOM     16  N6  NON d   1     -39.244  20.162  -3.911  0.00  0.00    -0.347 N 
ATOM     17  C29 NON d   1     -40.566  19.756  -4.054  0.00  0.00     0.236 C 
ATOM     18  O4  NON d   1     -41.413  19.948  -3.184  0.00  0.00    -0.272 OA
ATOM     19  H9  NON d   1     -39.600  18.125  -6.450  0.00  0.00     0.131 HD
ATOM     20  H14 NON d   1     -40.136  22.891  -6.963  0.00  0.00     0.163 HD
ATOM     21  H27 NON d   1     -36.421  23.257  -2.575  0.00  0.00     0.130 HD
ATOM     22  H45 NON d   1     -38.631  20.050  -4.721  0.00  0.00     0.163 HD
ENDROOT
BRANCH  15  23
ATOM     23  C17 NON d   1     -39.056  20.732  -1.465  0.00  0.00     0.075 C 
BRANCH  23  24
ATOM     24  C18 NON d   1     -39.300  21.850  -0.476  0.00  0.00    -0.028 C 
ATOM     25  C19 NON d   1     -39.006  21.882   0.871  0.00  0.00     0.101 C 
ATOM     26  N4  NON d   1     -39.164  23.171   1.311  0.00  0.00    -0.331 N 
ATOM     27  C23 NON d   1     -39.852  23.898   0.356  0.00  0.00     0.046 A 
ATOM     28  C24 NON d   1     -40.388  25.196   0.381  0.00  0.00     0.030 A 
ATOM     29  C28 NON d   1     -39.911  23.100  -0.790  0.00  0.00    -0.002 A 
ATOM     30  C25 NON d   1     -40.998  25.676  -0.782  0.00  0.00     0.002 A 
ATOM     31  C26 NON d   1     -41.049  24.906  -1.937  0.00  0.00     0.001 A 
ATOM     32  C27 NON d   1     -40.501  23.620  -1.958  0.00  0.00     0.014 A 
BRANCH  26  33
ATOM     33  C20 NON d   1     -38.610  23.766   2.525  0.00  0.00     0.363 C 
BRANCH  33  34
ATOM     34  N5  NON d   1     -37.147  24.179   2.455  0.00  0.00    -0.063 N 
ATOM     35  C21 NON d   1     -36.990  25.446   1.659  0.00  0.00     0.271 C 
ATOM     36  C22 NON d   1     -36.215  23.115   1.938  0.00  0.00     0.271 C 
ATOM     37  H34 NON d   1     -36.886  24.393   3.427  0.00  0.00     0.280 HD
ENDBRANCH  33  34
ENDBRANCH  26  33
ENDBRANCH  23  24
ENDBRANCH  15  23
BRANCH  11  38
ATOM     38  C11 NON d   1     -36.715  25.294  -4.324  0.00  0.00     0.024 C 
BRANCH  38  39
ATOM     39  C12 NON d   1     -37.586  26.288  -3.542  0.00  0.00    -0.021 C 
ATOM     40  C13 NON d   1     -38.887  26.612  -4.272  0.00  0.00     0.009 C 
ATOM     41  C14 NON d   1     -37.800  25.916  -2.079  0.00  0.00     0.009 C 
ENDBRANCH  38  39
ENDBRANCH  11  38
BRANCH   1  42
ATOM     42  C3  NON d   1     -41.830  17.963  -5.463  0.00  0.00     0.029 C 
BRANCH  42  43
ATOM     43  C2  NON d   1     -43.002  17.998  -4.470  0.00  0.00    -0.002 C 
ATOM     44  C1  NON d   1     -44.027  16.888  -4.673  0.00  0.00     0.005 C 
ENDBRANCH  42  43
ENDBRANCH   1  42
TORSDOF 8
ENDMDL
MODEL 7
REMARK VINA RESULT:    -7.085      2.605      6.059
REMARK INTER + INTRA:         -11.042
REMARK INTER:                  -9.472
REMARK INTRA:                  -1.571
REMARK CONF_INDEPENDENT:        2.386
REMARK UNBOUND:                -1.571
REMARK  8 active torsions:
REMARK  status: ('A' for Active; 'I' for Inactive)
REMARK    1  A    between atoms: C2_2  and  C3_3 
REMARK    2  A    between atoms: C4_4  and  C3_3 
REMARK    3  A    between atoms: C10_14  and  C11_15 
REMARK    4  A    between atoms: C11_15  and  C12_16 
REMARK    5  A    between atoms: C16_22  and  C17_23 
REMARK    6  A    between atoms: C17_23  and  C18_24 
REMARK    7  A    between atoms: N4_26  and  C20_27 
REMARK    8  A    between atoms: C20_27  and  N5_28 
ROOT
ATOM      1  C4  NON d   1     -39.446  18.965  -4.020  0.00  0.00     0.155 C 
ATOM      2  N1  NON d   1     -38.050  19.291  -4.261  0.00  0.00    -0.248 NA
ATOM      3  C5  NON d   1     -37.454  18.534  -5.243  0.00  0.00     0.220 C 
ATOM      4  O1  NON d   1     -36.786  17.554  -4.915  0.00  0.00    -0.278 OA
ATOM      5  C6  NON d   1     -37.384  19.194  -6.633  0.00  0.00     0.166 C 
ATOM      6  C7  NON d   1     -36.376  18.391  -7.475  0.00  0.00     0.042 C 
ATOM      7  N2  NON d   1     -38.418  19.950  -7.284  0.00  0.00    -0.349 N 
ATOM      8  C8  NON d   1     -38.321  21.327  -7.199  0.00  0.00     0.219 C 
ATOM      9  O2  NON d   1     -37.571  21.893  -6.410  0.00  0.00    -0.274 OA
ATOM     10  C9  NON d   1     -39.204  22.075  -8.142  0.00  0.00     0.122 C 
ATOM     11  C10 NON d   1     -39.091  23.605  -7.932  0.00  0.00     0.072 C 
ATOM     12  N3  NON d   1     -39.956  24.076  -6.828  0.00  0.00    -0.256 NA
ATOM     13  C15 NON d   1     -39.636  23.666  -5.528  0.00  0.00     0.220 C 
ATOM     14  O3  NON d   1     -38.800  24.298  -4.887  0.00  0.00    -0.278 OA
ATOM     15  C16 NON d   1     -40.485  22.514  -4.929  0.00  0.00     0.175 C 
ATOM     16  N6  NON d   1     -39.701  21.423  -4.333  0.00  0.00    -0.347 N 
ATOM     17  C29 NON d   1     -40.323  20.236  -3.968  0.00  0.00     0.236 C 
ATOM     18  O4  NON d   1     -41.537  20.156  -3.785  0.00  0.00    -0.272 OA
ATOM     19  H9  NON d   1     -37.518  19.167  -3.405  0.00  0.00     0.131 HD
ATOM     20  H14 NON d   1     -38.989  19.500  -7.986  0.00  0.00     0.163 HD
ATOM     21  H27 NON d   1     -39.786  25.076  -6.779  0.00  0.00     0.130 HD
ATOM     22  H45 NON d   1     -38.705  21.378  -4.558  0.00  0.00     0.163 HD
ENDROOT
BRANCH  15  23
ATOM     23  C17 NON d   1     -41.469  23.172  -3.935  0.00  0.00     0.075 C 
BRANCH  23  24
ATOM     24  C18 NON d   1     -40.963  23.255  -2.513  0.00  0.00    -0.028 C 
ATOM     25  C19 NON d   1     -40.690  22.224  -1.638  0.00  0.00     0.101 C 
ATOM     26  N4  NON d   1     -40.020  22.744  -0.562  0.00  0.00    -0.331 N 
ATOM     27  C23 NON d   1     -40.132  24.123  -0.577  0.00  0.00     0.046 A 
ATOM     28  C24 NON d   1     -39.761  25.098   0.363  0.00  0.00     0.030 A 
ATOM     29  C28 NON d   1     -40.685  24.467  -1.813  0.00  0.00    -0.002 A 
ATOM     30  C25 NON d   1     -39.966  26.440   0.032  0.00  0.00     0.002 A 
ATOM     31  C26 NON d   1     -40.496  26.804  -1.201  0.00  0.00     0.001 A 
ATOM     32  C27 NON d   1     -40.850  25.828  -2.136  0.00  0.00     0.014 A 
BRANCH  26  33
ATOM     33  C20 NON d   1     -39.199  22.018   0.405  0.00  0.00     0.363 C 
BRANCH  33  34
ATOM     34  N5  NON d   1     -38.224  21.005  -0.178  0.00  0.00    -0.063 N 
ATOM     35  C21 NON d   1     -37.043  20.818   0.735  0.00  0.00     0.271 C 
ATOM     36  C22 NON d   1     -37.762  21.308  -1.579  0.00  0.00     0.271 C 
ATOM     37  H34 NON d   1     -38.744  20.117  -0.193  0.00  0.00     0.280 HD
ENDBRANCH  33  34
ENDBRANCH  26  33
ENDBRANCH  23  24
ENDBRANCH  15  23
BRANCH  11  38
ATOM     38  C11 NON d   1     -39.386  24.245  -9.318  0.00  0.00     0.024 C 
BRANCH  38  39
ATOM     39  C12 NON d   1     -39.553  23.390 -10.582  0.00  0.00    -0.021 C 
ATOM     40  C13 NON d   1     -40.315  24.128 -11.680  0.00  0.00     0.009 C 
ATOM     41  C14 NON d   1     -38.261  22.752 -11.081  0.00  0.00     0.009 C 
ENDBRANCH  38  39
ENDBRANCH  11  38
BRANCH   1  42
ATOM     42  C3  NON d   1     -39.592  18.021  -2.805  0.00  0.00     0.029 C 
BRANCH  42  43
ATOM     43  C2  NON d   1     -41.022  17.946  -2.249  0.00  0.00    -0.002 C 
ATOM     44  C1  NON d   1     -42.024  17.282  -3.186  0.00  0.00     0.005 C 
ENDBRANCH  42  43
ENDBRANCH   1  42
TORSDOF 8
ENDMDL
MODEL 8
REMARK VINA RESULT:    -6.976      2.258      8.613
REMARK INTER + INTRA:         -11.286
REMARK INTER:                  -9.362
REMARK INTRA:                  -1.923
REMARK CONF_INDEPENDENT:        2.386
REMARK UNBOUND:                -1.923
REMARK  8 active torsions:
REMARK  status: ('A' for Active; 'I' for Inactive)
REMARK    1  A    between atoms: C2_2  and  C3_3 
REMARK    2  A    between atoms: C4_4  and  C3_3 
REMARK    3  A    between atoms: C10_14  and  C11_15 
REMARK    4  A    between atoms: C11_15  and  C12_16 
REMARK    5  A    between atoms: C16_22  and  C17_23 
REMARK    6  A    between atoms: C17_23  and  C18_24 
REMARK    7  A    between atoms: N4_26  and  C20_27 
REMARK    8  A    between atoms: C20_27  and  N5_28 
ROOT
ATOM      1  C4  NON d   1     -39.398  19.507  -6.286  0.00  0.00     0.155 C 
ATOM      2  N1  NON d   1     -40.753  19.589  -5.768  0.00  0.00    -0.248 NA
ATOM      3  C5  NON d   1     -41.107  18.550  -4.941  0.00  0.00     0.220 C 
ATOM      4  O1  NON d   1     -41.739  17.604  -5.410  0.00  0.00    -0.278 OA
ATOM      5  C6  NON d   1     -40.991  18.839  -3.431  0.00  0.00     0.166 C 
ATOM      6  C7  NON d   1     -41.770  17.738  -2.689  0.00  0.00     0.042 C 
ATOM      7  N2  NON d   1     -39.926  19.536  -2.765  0.00  0.00    -0.349 N 
ATOM      8  C8  NON d   1     -40.149  20.869  -2.475  0.00  0.00     0.219 C 
ATOM      9  O2  NON d   1     -41.067  21.514  -2.972  0.00  0.00    -0.274 OA
ATOM     10  C9  NON d   1     -39.181  21.469  -1.508  0.00  0.00     0.122 C 
ATOM     11  C10 NON d   1     -39.454  22.979  -1.296  0.00  0.00     0.072 C 
ATOM     12  N3  NON d   1     -38.833  23.806  -2.354  0.00  0.00    -0.256 NA
ATOM     13  C15 NON d   1     -39.337  23.687  -3.654  0.00  0.00     0.220 C 
ATOM     14  O3  NON d   1     -40.320  24.348  -3.981  0.00  0.00    -0.278 OA
ATOM     15  C16 NON d   1     -38.512  22.828  -4.649  0.00  0.00     0.175 C 
ATOM     16  N6  NON d   1     -39.295  21.827  -5.387  0.00  0.00    -0.347 N 
ATOM     17  C29 NON d   1     -38.649  20.850  -6.134  0.00  0.00     0.236 C 
ATOM     18  O4  NON d   1     -37.483  20.967  -6.506  0.00  0.00    -0.272 OA
ATOM     19  H9  NON d   1     -41.412  19.613  -6.540  0.00  0.00     0.131 HD
ATOM     20  H14 NON d   1     -39.208  19.002  -2.294  0.00  0.00     0.163 HD
ATOM     21  H27 NON d   1     -39.091  24.759  -2.116  0.00  0.00     0.130 HD
ATOM     22  H45 NON d   1     -40.230  21.607  -5.038  0.00  0.00     0.163 HD
ENDROOT
BRANCH  15  23
ATOM     23  C17 NON d   1     -37.771  23.824  -5.570  0.00  0.00     0.075 C 
BRANCH  23  24
ATOM     24  C18 NON d   1     -38.562  24.266  -6.781  0.00  0.00    -0.028 C 
ATOM     25  C19 NON d   1     -38.573  23.715  -8.046  0.00  0.00     0.101 C 
ATOM     26  N4  NON d   1     -39.613  24.272  -8.744  0.00  0.00    -0.331 N 
ATOM     27  C23 NON d   1     -40.071  25.389  -8.067  0.00  0.00     0.046 A 
ATOM     28  C24 NON d   1     -41.001  26.378  -8.425  0.00  0.00     0.030 A 
ATOM     29  C28 NON d   1     -39.453  25.379  -6.814  0.00  0.00    -0.002 A 
ATOM     30  C25 NON d   1     -41.293  27.373  -7.487  0.00  0.00     0.002 A 
ATOM     31  C26 NON d   1     -40.705  27.370  -6.228  0.00  0.00     0.001 A 
ATOM     32  C27 NON d   1     -39.791  26.374  -5.875  0.00  0.00     0.014 A 
BRANCH  26  33
ATOM     33  C20 NON d   1     -40.255  23.746  -9.946  0.00  0.00     0.363 C 
BRANCH  33  34
ATOM     34  N5  NON d   1     -40.358  24.710 -11.120  0.00  0.00    -0.063 N 
ATOM     35  C21 NON d   1     -40.588  23.960 -12.404  0.00  0.00     0.271 C 
ATOM     36  C22 NON d   1     -39.195  25.655 -11.265  0.00  0.00     0.271 C 
ATOM     37  H34 NON d   1     -41.205  25.264 -10.932  0.00  0.00     0.280 HD
ENDBRANCH  33  34
ENDBRANCH  26  33
ENDBRANCH  23  24
ENDBRANCH  15  23
BRANCH  11  38
ATOM     38  C11 NON d   1     -38.978  23.294   0.150  0.00  0.00     0.024 C 
BRANCH  38  39
ATOM     39  C12 NON d   1     -39.970  23.645   1.268  0.00  0.00    -0.021 C 
ATOM     40  C13 NON d   1     -40.522  25.061   1.124  0.00  0.00     0.009 C 
ATOM     41  C14 NON d   1     -41.060  22.602   1.487  0.00  0.00     0.009 C 
ENDBRANCH  38  39
ENDBRANCH  11  38
BRANCH   1  42
ATOM     42  C3  NON d   1     -39.386  18.910  -7.713  0.00  0.00     0.029 C 
BRANCH  42  43
ATOM     43  C2  NON d   1     -39.712  19.933  -8.812  0.00  0.00    -0.002 C 
ATOM     44  C1  NON d   1     -41.059  20.626  -8.643  0.00  0.00     0.005 C 
ENDBRANCH  42  43
ENDBRANCH   1  42
TORSDOF 8
ENDMDL
MODEL 9
REMARK VINA RESULT:    -6.549      3.325      7.196
REMARK INTER + INTRA:         -11.188
REMARK INTER:                  -8.936
REMARK INTRA:                  -2.252
REMARK CONF_INDEPENDENT:        2.386
REMARK UNBOUND:                -2.252
REMARK  8 active torsions:
REMARK  status: ('A' for Active; 'I' for Inactive)
REMARK    1  A    between atoms: C2_2  and  C3_3 
REMARK    2  A    between atoms: C4_4  and  C3_3 
REMARK    3  A    between atoms: C10_14  and  C11_15 
REMARK    4  A    between atoms: C11_15  and  C12_16 
REMARK    5  A    between atoms: C16_22  and  C17_23 
REMARK    6  A    between atoms: C17_23  and  C18_24 
REMARK    7  A    between atoms: N4_26  and  C20_27 
REMARK    8  A    between atoms: C20_27  and  N5_28 
ROOT
ATOM      1  C4  NON d   1     -40.152  23.588   0.588  0.00  0.00     0.155 C 
ATOM      2  N1  NON d   1     -38.751  23.863   0.865  0.00  0.00    -0.248 NA
ATOM      3  C5  NON d   1     -38.180  23.017   1.786  0.00  0.00     0.220 C 
ATOM      4  O1  NON d   1     -38.101  23.380   2.958  0.00  0.00    -0.278 OA
ATOM      5  C6  NON d   1     -37.370  21.848   1.193  0.00  0.00     0.166 C 
ATOM      6  C7  NON d   1     -36.514  21.257   2.328  0.00  0.00     0.042 C 
ATOM      7  N2  NON d   1     -37.730  21.030   0.068  0.00  0.00    -0.349 N 
ATOM      8  C8  NON d   1     -37.153  21.362  -1.145  0.00  0.00     0.219 C 
ATOM      9  O2  NON d   1     -36.582  22.430  -1.339  0.00  0.00    -0.274 OA
ATOM     10  C9  NON d   1     -37.282  20.318  -2.205  0.00  0.00     0.122 C 
ATOM     11  C10 NON d   1     -36.679  20.797  -3.548  0.00  0.00     0.072 C 
ATOM     12  N3  NON d   1     -37.634  21.624  -4.318  0.00  0.00    -0.256 NA
ATOM     13  C15 NON d   1     -37.983  22.874  -3.793  0.00  0.00     0.220 C 
ATOM     14  O3  NON d   1     -37.261  23.843  -4.014  0.00  0.00    -0.278 OA
ATOM     15  C16 NON d   1     -39.360  22.976  -3.086  0.00  0.00     0.175 C 
ATOM     16  N6  NON d   1     -39.321  23.609  -1.760  0.00  0.00    -0.347 N 
ATOM     17  C29 NON d   1     -40.435  23.559  -0.931  0.00  0.00     0.236 C 
ATOM     18  O4  NON d   1     -41.565  23.327  -1.356  0.00  0.00    -0.272 OA
ATOM     19  H9  NON d   1     -38.653  24.814   1.209  0.00  0.00     0.131 HD
ATOM     20  H14 NON d   1     -38.136  20.119   0.232  0.00  0.00     0.163 HD
ATOM     21  H27 NON d   1     -37.125  21.885  -5.158  0.00  0.00     0.130 HD
ATOM     22  H45 NON d   1     -38.409  23.711  -1.312  0.00  0.00     0.163 HD
ENDROOT
BRANCH  15  23
ATOM     23  C17 NON d   1     -40.305  23.693  -4.077  0.00  0.00     0.075 C 
BRANCH  23  24
ATOM     24  C18 NON d   1     -40.215  23.192  -5.502  0.00  0.00    -0.028 C 
ATOM     25  C19 NON d   1     -39.940  23.909  -6.647  0.00  0.00     0.101 C 
ATOM     26  N4  NON d   1     -39.711  23.019  -7.664  0.00  0.00    -0.331 N 
ATOM     27  C23 NON d   1     -40.139  21.761  -7.273  0.00  0.00     0.046 A 
ATOM     28  C24 NON d   1     -40.263  20.557  -7.985  0.00  0.00     0.030 A 
ATOM     29  C28 NON d   1     -40.421  21.840  -5.907  0.00  0.00    -0.002 A 
ATOM     30  C25 NON d   1     -40.688  19.423  -7.287  0.00  0.00     0.002 A 
ATOM     31  C26 NON d   1     -40.953  19.476  -5.924  0.00  0.00     0.001 A 
ATOM     32  C27 NON d   1     -40.815  20.675  -5.220  0.00  0.00     0.014 A 
BRANCH  26  33
ATOM     33  C20 NON d   1     -39.019  23.273  -8.925  0.00  0.00     0.363 C 
BRANCH  33  34
ATOM     34  N5  NON d   1     -39.854  23.104 -10.187  0.00  0.00    -0.063 N 
ATOM     35  C21 NON d   1     -39.134  22.242 -11.188  0.00  0.00     0.271 C 
ATOM     36  C22 NON d   1     -40.300  24.392 -10.826  0.00  0.00     0.271 C 
ATOM     37  H34 NON d   1     -40.690  22.587  -9.882  0.00  0.00     0.280 HD
ENDBRANCH  33  34
ENDBRANCH  26  33
ENDBRANCH  23  24
ENDBRANCH  15  23
BRANCH  11  38
ATOM     38  C11 NON d   1     -36.190  19.511  -4.273  0.00  0.00     0.024 C 
BRANCH  38  39
ATOM     39  C12 NON d   1     -37.152  18.618  -5.069  0.00  0.00    -0.021 C 
ATOM     40  C13 NON d   1     -38.460  18.370  -4.322  0.00  0.00     0.009 C 
ATOM     41  C14 NON d   1     -37.365  19.060  -6.513  0.00  0.00     0.009 C 
ENDBRANCH  38  39
ENDBRANCH  11  38
BRANCH   1  42
ATOM     42  C3  NON d   1     -41.072  24.524   1.406  0.00  0.00     0.029 C 
BRANCH  42  43
ATOM     43  C2  NON d   1     -41.437  25.824   0.675  0.00  0.00    -0.002 C 
ATOM     44  C1  NON d   1     -40.240  26.588   0.120  0.00  0.00     0.005 C 
ENDBRANCH  42  43
ENDBRANCH   1  42
TORSDOF 8
ENDMDL
