MODEL 1
REMARK VINA RESULT:   -35.642      0.000      0.000
REMARK INTER + INTRA:         -39.973
REMARK INTER:                 -38.028
REMARK INTRA:                  -1.945
REMARK CONF_INDEPENDENT:        2.386
REMARK UNBOUND:                -1.945
REMARK  8 active torsions:
REMARK  status: ('A' for Active; 'I' for Inactive)
REMARK       I    between atoms: N1_2  and  C3_4 
REMARK       I    between atoms: C3_4  and  N2_6 
REMARK    1  A    between atoms: N2_6  and  C4_7 
REMARK    2  A    between atoms: N2_6  and  C18_24 
REMARK    3  A    between atoms: C4_7  and  C5_8 
REMARK    4  A    between atoms: C8_11  and  C9_12 
REMARK       I    between atoms: C9_12  and  N3_14 
REMARK    5  A    between atoms: N3_14  and  C10_15 
REMARK    6  A    between atoms: C15_20  and  N4_21 
REMARK    7  A    between atoms: C18_24  and  C19_25 
REMARK    8  A    between atoms: C22_28  and  C23_29 
ROOT
ATOM      1  C5  NON d   1     -41.365  19.170  -4.648  0.00  0.00    -0.040 A 
ATOM      2  C6  NON d   1     -41.495  17.878  -4.146  0.00  0.00     0.010 A 
ATOM      3  C7  NON d   1     -42.722  17.197  -4.239  0.00  0.00     0.017 A 
ATOM      4  C8  NON d   1     -43.842  17.764  -4.876  0.00  0.00     0.032 A 
ATOM      5  C16 NON d   1     -43.708  19.041  -5.419  0.00  0.00     0.017 A 
ATOM      6  C17 NON d   1     -42.488  19.726  -5.305  0.00  0.00     0.010 A 
ENDROOT
BRANCH   1   7
ATOM      7  C4  NON d   1     -40.089  19.993  -4.680  0.00  0.00     0.166 C 
BRANCH   7   8
ATOM      8  N2  NON d   1     -39.748  21.058  -5.621  0.00  0.00    -0.326 N 
ATOM      9  C3  NON d   1     -39.233  20.726  -6.877  0.00  0.00     0.320 C 
ATOM     10  N1  NON d   1     -39.384  21.621  -7.942  0.00  0.00    -0.343 N 
ATOM     11  O1  NON d   1     -38.797  19.594  -7.104  0.00  0.00    -0.247 OA
ATOM     12  C1  NON d   1     -39.134  23.050  -7.921  0.00  0.00     0.154 C 
ATOM     13  C2  NON d   1     -39.399  21.080  -9.384  0.00  0.00     0.154 C 
BRANCH   8  14
ATOM     14  C18 NON d   1     -39.795  22.436  -5.099  0.00  0.00     0.166 C 
BRANCH  14  15
ATOM     15  C19 NON d   1     -40.184  22.858  -3.674  0.00  0.00    -0.040 A 
ATOM     16  C20 NON d   1     -41.285  23.607  -3.255  0.00  0.00     0.010 A 
ATOM     17  C21 NON d   1     -41.436  24.027  -1.918  0.00  0.00     0.013 A 
ATOM     18  C22 NON d   1     -40.487  23.737  -0.929  0.00  0.00    -0.019 A 
ATOM     19  C27 NON d   1     -39.384  22.983  -1.337  0.00  0.00     0.013 A 
ATOM     20  C28 NON d   1     -39.235  22.560  -2.670  0.00  0.00     0.010 A 
BRANCH  18  21
ATOM     21  C23 NON d   1     -40.666  24.243   0.456  0.00  0.00     0.015 A 
ATOM     22  C24 NON d   1     -40.621  23.544   1.656  0.00  0.00     0.020 A 
ATOM     23  C25 NON d   1     -40.860  24.360   2.802  0.00  0.00     0.008 A 
ATOM     24  C26 NON d   1     -41.081  25.670   2.458  0.00  0.00     0.050 A 
ATOM     25  S1  NON d   1     -40.995  25.908   0.771  0.00  0.00    -0.101 SA
ENDBRANCH  18  21
ENDBRANCH  14  15
ENDBRANCH   8  14
ENDBRANCH   7   8
ENDBRANCH   1   7
BRANCH   4  26
ATOM     26  C9  NON d   1     -45.114  16.959  -4.916  0.00  0.00     0.256 C 
ATOM     27  O2  NON d   1     -45.223  16.117  -5.806  0.00  0.00    -0.267 OA
ATOM     28  N3  NON d   1     -46.092  17.239  -3.972  0.00  0.00    -0.321 N 
ATOM     29  H11 NON d   1     -45.965  18.006  -3.329  0.00  0.00     0.169 HD
BRANCH  28  30
ATOM     30  C10 NON d   1     -47.297  16.519  -3.752  0.00  0.00     0.056 A 
ATOM     31  C11 NON d   1     -47.870  16.359  -2.486  0.00  0.00     0.031 A 
ATOM     32  C12 NON d   1     -49.110  15.729  -2.335  0.00  0.00     0.002 A 
ATOM     33  C13 NON d   1     -49.800  15.272  -3.451  0.00  0.00     0.002 A 
ATOM     34  C14 NON d   1     -49.242  15.419  -4.720  0.00  0.00     0.025 A 
ATOM     35  C15 NON d   1     -47.971  15.989  -4.878  0.00  0.00     0.033 A 
BRANCH  35  36
ATOM     36  N4  NON d   1     -47.439  16.130  -6.185  0.00  0.00    -0.301 NA
ATOM     37  H16 NON d   1     -47.086  17.075  -6.322  0.00  0.00     0.124 HD
ATOM     38  H17 NON d   1     -46.701  15.453  -6.368  0.00  0.00     0.124 HD
ENDBRANCH  35  36
ENDBRANCH  28  30
ENDBRANCH   4  26
TORSDOF 8
ENDMDL
MODEL 2
REMARK VINA RESULT:   -35.225      3.022      6.278
REMARK INTER + INTRA:         -39.296
REMARK INTER:                 -37.612
REMARK INTRA:                  -1.685
REMARK CONF_INDEPENDENT:        2.386
REMARK UNBOUND:                -1.685
REMARK  8 active torsions:
REMARK  status: ('A' for Active; 'I' for Inactive)
REMARK       I    between atoms: N1_2  and  C3_4 
REMARK       I    between atoms: C3_4  and  N2_6 
REMARK    1  A    between atoms: N2_6  and  C4_7 
REMARK    2  A    between atoms: N2_6  and  C18_24 
REMARK    3  A    between atoms: C4_7  and  C5_8 
REMARK    4  A    between atoms: C8_11  and  C9_12 
REMARK       I    between atoms: C9_12  and  N3_14 
REMARK    5  A    between atoms: N3_14  and  C10_15 
REMARK    6  A    between atoms: C15_20  and  N4_21 
REMARK    7  A    between atoms: C18_24  and  C19_25 
REMARK    8  A    between atoms: C22_28  and  C23_29 
ROOT
ATOM      1  C5  NON d   1     -41.279  18.995  -4.642  0.00  0.00    -0.040 A 
ATOM      2  C6  NON d   1     -41.430  17.674  -4.228  0.00  0.00     0.010 A 
ATOM      3  C7  NON d   1     -42.681  17.038  -4.315  0.00  0.00     0.017 A 
ATOM      4  C8  NON d   1     -43.808  17.682  -4.859  0.00  0.00     0.032 A 
ATOM      5  C16 NON d   1     -43.656  18.991  -5.314  0.00  0.00     0.017 A 
ATOM      6  C17 NON d   1     -42.411  19.630  -5.206  0.00  0.00     0.010 A 
ENDROOT
BRANCH   1   7
ATOM      7  C4  NON d   1     -39.980  19.781  -4.671  0.00  0.00     0.166 C 
BRANCH   7   8
ATOM      8  N2  NON d   1     -39.678  21.015  -3.948  0.00  0.00    -0.326 N 
ATOM      9  C3  NON d   1     -39.839  21.055  -2.560  0.00  0.00     0.320 C 
ATOM     10  N1  NON d   1     -39.103  21.979  -1.809  0.00  0.00    -0.343 N 
ATOM     11  O1  NON d   1     -40.488  20.186  -1.972  0.00  0.00    -0.247 OA
ATOM     12  C1  NON d   1     -38.922  23.389  -2.097  0.00  0.00     0.154 C 
ATOM     13  C2  NON d   1     -38.787  21.667  -0.334  0.00  0.00     0.154 C 
BRANCH   8  14
ATOM     14  C18 NON d   1     -39.403  22.207  -4.771  0.00  0.00     0.166 C 
BRANCH  14  15
ATOM     15  C19 NON d   1     -39.607  22.334  -6.288  0.00  0.00    -0.040 A 
ATOM     16  C20 NON d   1     -39.470  21.353  -7.273  0.00  0.00     0.010 A 
ATOM     17  C21 NON d   1     -39.563  21.656  -8.646  0.00  0.00     0.013 A 
ATOM     18  C22 NON d   1     -39.782  22.959  -9.113  0.00  0.00    -0.019 A 
ATOM     19  C27 NON d   1     -39.927  23.948  -8.135  0.00  0.00     0.013 A 
ATOM     20  C28 NON d   1     -39.838  23.644  -6.765  0.00  0.00     0.010 A 
BRANCH  18  21
ATOM     21  C23 NON d   1     -39.823  23.238 -10.571  0.00  0.00     0.015 A 
ATOM     22  C24 NON d   1     -40.323  24.352 -11.235  0.00  0.00     0.020 A 
ATOM     23  C25 NON d   1     -40.214  24.268 -12.655  0.00  0.00     0.008 A 
ATOM     24  C26 NON d   1     -39.631  23.090 -13.052  0.00  0.00     0.050 A 
ATOM     25  S1  NON d   1     -39.218  22.105 -11.723  0.00  0.00    -0.101 SA
ENDBRANCH  18  21
ENDBRANCH  14  15
ENDBRANCH   8  14
ENDBRANCH   7   8
ENDBRANCH   1   7
BRANCH   4  26
ATOM     26  C9  NON d   1     -45.106  16.920  -4.900  0.00  0.00     0.256 C 
ATOM     27  O2  NON d   1     -45.255  16.105  -5.810  0.00  0.00    -0.267 OA
ATOM     28  N3  NON d   1     -46.061  17.207  -3.934  0.00  0.00    -0.321 N 
ATOM     29  H11 NON d   1     -45.900  17.951  -3.273  0.00  0.00     0.169 HD
BRANCH  28  30
ATOM     30  C10 NON d   1     -47.285  16.519  -3.714  0.00  0.00     0.056 A 
ATOM     31  C11 NON d   1     -47.862  16.374  -2.448  0.00  0.00     0.031 A 
ATOM     32  C12 NON d   1     -49.118  15.779  -2.296  0.00  0.00     0.002 A 
ATOM     33  C13 NON d   1     -49.822  15.342  -3.413  0.00  0.00     0.002 A 
ATOM     34  C14 NON d   1     -49.261  15.476  -4.681  0.00  0.00     0.025 A 
ATOM     35  C15 NON d   1     -47.974  16.010  -4.840  0.00  0.00     0.033 A 
BRANCH  35  36
ATOM     36  N4  NON d   1     -47.440  16.138  -6.147  0.00  0.00    -0.301 NA
ATOM     37  H16 NON d   1     -47.076  17.077  -6.289  0.00  0.00     0.124 HD
ATOM     38  H17 NON d   1     -46.710  15.451  -6.326  0.00  0.00     0.124 HD
ENDBRANCH  35  36
ENDBRANCH  28  30
ENDBRANCH   4  26
TORSDOF 8
ENDMDL
MODEL 3
REMARK VINA RESULT:   -34.985      3.158      6.668
REMARK INTER + INTRA:         -39.166
REMARK INTER:                 -37.371
REMARK INTRA:                  -1.795
REMARK CONF_INDEPENDENT:        2.386
REMARK UNBOUND:                -1.795
REMARK  8 active torsions:
REMARK  status: ('A' for Active; 'I' for Inactive)
REMARK       I    between atoms: N1_2  and  C3_4 
REMARK       I    between atoms: C3_4  and  N2_6 
REMARK    1  A    between atoms: N2_6  and  C4_7 
REMARK    2  A    between atoms: N2_6  and  C18_24 
REMARK    3  A    between atoms: C4_7  and  C5_8 
REMARK    4  A    between atoms: C8_11  and  C9_12 
REMARK       I    between atoms: C9_12  and  N3_14 
REMARK    5  A    between atoms: N3_14  and  C10_15 
REMARK    6  A    between atoms: C15_20  and  N4_21 
REMARK    7  A    between atoms: C18_24  and  C19_25 
REMARK    8  A    between atoms: C22_28  and  C23_29 
ROOT
ATOM      1  C5  NON d   1     -41.394  19.202  -4.946  0.00  0.00    -0.040 A 
ATOM      2  C6  NON d   1     -42.589  19.709  -5.451  0.00  0.00     0.010 A 
ATOM      3  C7  NON d   1     -43.759  18.929  -5.433  0.00  0.00     0.017 A 
ATOM      4  C8  NON d   1     -43.786  17.639  -4.871  0.00  0.00     0.032 A 
ATOM      5  C16 NON d   1     -42.604  17.140  -4.325  0.00  0.00     0.017 A 
ATOM      6  C17 NON d   1     -41.433  17.913  -4.364  0.00  0.00     0.010 A 
ENDROOT
BRANCH   1   7
ATOM      7  C4  NON d   1     -40.079  19.953  -4.837  0.00  0.00     0.166 C 
BRANCH   7   8
ATOM      8  N2  NON d   1     -39.873  21.395  -4.955  0.00  0.00    -0.326 N 
ATOM      9  C3  NON d   1     -40.709  22.268  -4.252  0.00  0.00     0.320 C 
ATOM     10  N1  NON d   1     -40.248  23.549  -3.929  0.00  0.00    -0.343 N 
ATOM     11  O1  NON d   1     -41.774  21.874  -3.769  0.00  0.00    -0.247 OA
ATOM     12  C1  NON d   1     -39.572  24.481  -4.812  0.00  0.00     0.154 C 
ATOM     13  C2  NON d   1     -40.835  24.271  -2.702  0.00  0.00     0.154 C 
BRANCH   8  14
ATOM     14  C18 NON d   1     -38.905  21.839  -5.974  0.00  0.00     0.166 C 
BRANCH  14  15
ATOM     15  C19 NON d   1     -39.187  22.050  -7.470  0.00  0.00    -0.040 A 
ATOM     16  C20 NON d   1     -38.886  21.207  -8.542  0.00  0.00     0.010 A 
ATOM     17  C21 NON d   1     -39.092  21.601  -9.880  0.00  0.00     0.013 A 
ATOM     18  C22 NON d   1     -39.591  22.864 -10.221  0.00  0.00    -0.019 A 
ATOM     19  C27 NON d   1     -39.902  23.713  -9.155  0.00  0.00     0.013 A 
ATOM     20  C28 NON d   1     -39.700  23.319  -7.820  0.00  0.00     0.010 A 
BRANCH  18  21
ATOM     21  C23 NON d   1     -39.744  23.253 -11.646  0.00  0.00     0.015 A 
ATOM     22  C24 NON d   1     -40.482  24.295 -12.196  0.00  0.00     0.020 A 
ATOM     23  C25 NON d   1     -40.413  24.356 -13.620  0.00  0.00     0.008 A 
ATOM     24  C26 NON d   1     -39.622  23.359 -14.134  0.00  0.00     0.050 A 
ATOM     25  S1  NON d   1     -38.970  22.368 -12.909  0.00  0.00    -0.101 SA
ENDBRANCH  18  21
ENDBRANCH  14  15
ENDBRANCH   8  14
ENDBRANCH   7   8
ENDBRANCH   1   7
BRANCH   4  26
ATOM     26  C9  NON d   1     -45.085  16.879  -4.908  0.00  0.00     0.256 C 
ATOM     27  O2  NON d   1     -45.232  16.054  -5.810  0.00  0.00    -0.267 OA
ATOM     28  N3  NON d   1     -46.043  17.178  -3.950  0.00  0.00    -0.321 N 
ATOM     29  H11 NON d   1     -45.883  17.930  -3.297  0.00  0.00     0.169 HD
BRANCH  28  30
ATOM     30  C10 NON d   1     -47.269  16.496  -3.727  0.00  0.00     0.056 A 
ATOM     31  C11 NON d   1     -47.840  16.347  -2.458  0.00  0.00     0.031 A 
ATOM     32  C12 NON d   1     -49.098  15.757  -2.304  0.00  0.00     0.002 A 
ATOM     33  C13 NON d   1     -49.811  15.331  -3.419  0.00  0.00     0.002 A 
ATOM     34  C14 NON d   1     -49.256  15.469  -4.689  0.00  0.00     0.025 A 
ATOM     35  C15 NON d   1     -47.968  15.997  -4.852  0.00  0.00     0.033 A 
BRANCH  35  36
ATOM     36  N4  NON d   1     -47.440  16.130  -6.162  0.00  0.00    -0.301 NA
ATOM     37  H16 NON d   1     -46.936  17.010  -6.251  0.00  0.00     0.124 HD
ATOM     38  H17 NON d   1     -46.829  15.353  -6.404  0.00  0.00     0.124 HD
ENDBRANCH  35  36
ENDBRANCH  28  30
ENDBRANCH   4  26
TORSDOF 8
ENDMDL
MODEL 4
REMARK VINA RESULT:   -34.921      1.752      2.276
REMARK INTER + INTRA:         -38.747
REMARK INTER:                 -37.308
REMARK INTRA:                  -1.440
REMARK CONF_INDEPENDENT:        2.386
REMARK UNBOUND:                -1.440
REMARK  8 active torsions:
REMARK  status: ('A' for Active; 'I' for Inactive)
REMARK       I    between atoms: N1_2  and  C3_4 
REMARK       I    between atoms: C3_4  and  N2_6 
REMARK    1  A    between atoms: N2_6  and  C4_7 
REMARK    2  A    between atoms: N2_6  and  C18_24 
REMARK    3  A    between atoms: C4_7  and  C5_8 
REMARK    4  A    between atoms: C8_11  and  C9_12 
REMARK       I    between atoms: C9_12  and  N3_14 
REMARK    5  A    between atoms: N3_14  and  C10_15 
REMARK    6  A    between atoms: C15_20  and  N4_21 
REMARK    7  A    between atoms: C18_24  and  C19_25 
REMARK    8  A    between atoms: C22_28  and  C23_29 
ROOT
ATOM      1  C5  NON d   1     -41.105  18.934  -4.854  0.00  0.00    -0.040 A 
ATOM      2  C6  NON d   1     -41.285  17.639  -4.372  0.00  0.00     0.010 A 
ATOM      3  C7  NON d   1     -42.560  17.047  -4.380  0.00  0.00     0.017 A 
ATOM      4  C8  NON d   1     -43.685  17.707  -4.910  0.00  0.00     0.032 A 
ATOM      5  C16 NON d   1     -43.505  18.987  -5.432  0.00  0.00     0.017 A 
ATOM      6  C17 NON d   1     -42.235  19.584  -5.403  0.00  0.00     0.010 A 
ENDROOT
BRANCH   1   7
ATOM      7  C4  NON d   1     -39.780  19.668  -4.971  0.00  0.00     0.166 C 
BRANCH   7   8
ATOM      8  N2  NON d   1     -39.102  20.436  -3.928  0.00  0.00    -0.326 N 
ATOM      9  C3  NON d   1     -37.911  21.103  -4.231  0.00  0.00     0.320 C 
ATOM     10  N1  NON d   1     -37.532  22.214  -3.469  0.00  0.00    -0.343 N 
ATOM     11  O1  NON d   1     -37.277  20.835  -5.255  0.00  0.00    -0.247 OA
ATOM     12  C1  NON d   1     -37.537  22.321  -2.022  0.00  0.00     0.154 C 
ATOM     13  C2  NON d   1     -36.630  23.288  -4.103  0.00  0.00     0.154 C 
BRANCH   8  14
ATOM     14  C18 NON d   1     -39.630  20.293  -2.559  0.00  0.00     0.166 C 
BRANCH  14  15
ATOM     15  C19 NON d   1     -40.153  21.425  -1.661  0.00  0.00    -0.040 A 
ATOM     16  C20 NON d   1     -40.767  22.622  -2.035  0.00  0.00     0.010 A 
ATOM     17  C21 NON d   1     -41.075  23.627  -1.095  0.00  0.00     0.013 A 
ATOM     18  C22 NON d   1     -40.772  23.498   0.266  0.00  0.00    -0.019 A 
ATOM     19  C27 NON d   1     -40.163  22.300   0.652  0.00  0.00     0.013 A 
ATOM     20  C28 NON d   1     -39.860  21.297  -0.285  0.00  0.00     0.010 A 
BRANCH  18  21
ATOM     21  C23 NON d   1     -41.071  24.604   1.211  0.00  0.00     0.015 A 
ATOM     22  C24 NON d   1     -41.353  25.937   0.938  0.00  0.00     0.020 A 
ATOM     23  C25 NON d   1     -41.572  26.727   2.106  0.00  0.00     0.008 A 
ATOM     24  C26 NON d   1     -41.456  25.982   3.253  0.00  0.00     0.050 A 
ATOM     25  S1  NON d   1     -41.092  24.350   2.918  0.00  0.00    -0.101 SA
ENDBRANCH  18  21
ENDBRANCH  14  15
ENDBRANCH   8  14
ENDBRANCH   7   8
ENDBRANCH   1   7
BRANCH   4  26
ATOM     26  C9  NON d   1     -45.010  16.993  -4.864  0.00  0.00     0.256 C 
ATOM     27  O2  NON d   1     -45.218  16.132  -5.718  0.00  0.00    -0.267 OA
ATOM     28  N3  NON d   1     -45.920  17.371  -3.887  0.00  0.00    -0.321 N 
ATOM     29  H11 NON d   1     -45.711  18.147  -3.278  0.00  0.00     0.169 HD
BRANCH  28  30
ATOM     30  C10 NON d   1     -47.160  16.744  -3.588  0.00  0.00     0.056 A 
ATOM     31  C11 NON d   1     -47.685  16.670  -2.293  0.00  0.00     0.031 A 
ATOM     32  C12 NON d   1     -48.955  16.134  -2.064  0.00  0.00     0.002 A 
ATOM     33  C13 NON d   1     -49.726  15.686  -3.131  0.00  0.00     0.002 A 
ATOM     34  C14 NON d   1     -49.218  15.749  -4.427  0.00  0.00     0.025 A 
ATOM     35  C15 NON d   1     -47.919  16.223  -4.662  0.00  0.00     0.033 A 
BRANCH  35  36
ATOM     36  N4  NON d   1     -47.440  16.280  -5.995  0.00  0.00    -0.301 NA
ATOM     37  H16 NON d   1     -46.936  17.150  -6.152  0.00  0.00     0.124 HD
ATOM     38  H17 NON d   1     -46.841  15.487  -6.216  0.00  0.00     0.124 HD
ENDBRANCH  35  36
ENDBRANCH  28  30
ENDBRANCH   4  26
TORSDOF 8
ENDMDL
MODEL 5
REMARK VINA RESULT:   -34.450      2.021      2.959
REMARK INTER + INTRA:         -38.091
REMARK INTER:                 -36.836
REMARK INTRA:                  -1.255
REMARK CONF_INDEPENDENT:        2.386
REMARK UNBOUND:                -1.255
REMARK  8 active torsions:
REMARK  status: ('A' for Active; 'I' for Inactive)
REMARK       I    between atoms: N1_2  and  C3_4 
REMARK       I    between atoms: C3_4  and  N2_6 
REMARK    1  A    between atoms: N2_6  and  C4_7 
REMARK    2  A    between atoms: N2_6  and  C18_24 
REMARK    3  A    between atoms: C4_7  and  C5_8 
REMARK    4  A    between atoms: C8_11  and  C9_12 
REMARK       I    between atoms: C9_12  and  N3_14 
REMARK    5  A    between atoms: N3_14  and  C10_15 
REMARK    6  A    between atoms: C15_20  and  N4_21 
REMARK    7  A    between atoms: C18_24  and  C19_25 
REMARK    8  A    between atoms: C22_28  and  C23_29 
ROOT
ATOM      1  C5  NON d   1     -41.071  18.820  -5.065  0.00  0.00    -0.040 A 
ATOM      2  C6  NON d   1     -42.086  19.613  -5.594  0.00  0.00     0.010 A 
ATOM      3  C7  NON d   1     -43.430  19.208  -5.501  0.00  0.00     0.017 A 
ATOM      4  C8  NON d   1     -43.807  18.025  -4.838  0.00  0.00     0.032 A 
ATOM      5  C16 NON d   1     -42.800  17.247  -4.268  0.00  0.00     0.017 A 
ATOM      6  C17 NON d   1     -41.459  17.643  -4.382  0.00  0.00     0.010 A 
ENDROOT
BRANCH   1   7
ATOM      7  C4  NON d   1     -39.592  19.164  -5.031  0.00  0.00     0.166 C 
BRANCH   7   8
ATOM      8  N2  NON d   1     -38.774  19.424  -3.848  0.00  0.00    -0.326 N 
ATOM      9  C3  NON d   1     -38.472  18.373  -2.977  0.00  0.00     0.320 C 
ATOM     10  N1  NON d   1     -37.327  18.451  -2.176  0.00  0.00    -0.343 N 
ATOM     11  O1  NON d   1     -39.102  17.313  -3.021  0.00  0.00    -0.247 OA
ATOM     12  C1  NON d   1     -36.892  19.586  -1.385  0.00  0.00     0.154 C 
ATOM     13  C2  NON d   1     -36.653  17.150  -1.701  0.00  0.00     0.154 C 
BRANCH   8  14
ATOM     14  C18 NON d   1     -38.478  20.838  -3.553  0.00  0.00     0.166 C 
BRANCH  14  15
ATOM     15  C19 NON d   1     -38.955  21.633  -2.328  0.00  0.00    -0.040 A 
ATOM     16  C20 NON d   1     -39.882  21.259  -1.352  0.00  0.00     0.010 A 
ATOM     17  C21 NON d   1     -40.317  22.155  -0.355  0.00  0.00     0.013 A 
ATOM     18  C22 NON d   1     -39.865  23.479  -0.288  0.00  0.00    -0.019 A 
ATOM     19  C27 NON d   1     -38.932  23.862  -1.257  0.00  0.00     0.013 A 
ATOM     20  C28 NON d   1     -38.495  22.966  -2.248  0.00  0.00     0.010 A 
BRANCH  18  21
ATOM     21  C23 NON d   1     -40.390  24.401   0.751  0.00  0.00     0.015 A 
ATOM     22  C24 NON d   1     -40.161  24.397   2.122  0.00  0.00     0.020 A 
ATOM     23  C25 NON d   1     -40.853  25.431   2.821  0.00  0.00     0.008 A 
ATOM     24  C26 NON d   1     -41.598  26.210   1.970  0.00  0.00     0.050 A 
ATOM     25  S1  NON d   1     -41.456  25.697   0.350  0.00  0.00    -0.101 SA
ENDBRANCH  18  21
ENDBRANCH  14  15
ENDBRANCH   8  14
ENDBRANCH   7   8
ENDBRANCH   1   7
BRANCH   4  26
ATOM     26  C9  NON d   1     -45.270  17.673  -4.800  0.00  0.00     0.256 C 
ATOM     27  O2  NON d   1     -45.929  17.880  -5.818  0.00  0.00    -0.267 OA
ATOM     28  N3  NON d   1     -45.789  17.170  -3.615  0.00  0.00    -0.321 N 
ATOM     29  H11 NON d   1     -45.204  17.110  -2.795  0.00  0.00     0.169 HD
BRANCH  28  30
ATOM     30  C10 NON d   1     -47.097  16.656  -3.406  0.00  0.00     0.056 A 
ATOM     31  C11 NON d   1     -47.733  16.671  -2.160  0.00  0.00     0.031 A 
ATOM     32  C12 NON d   1     -49.059  16.247  -2.028  0.00  0.00     0.002 A 
ATOM     33  C13 NON d   1     -49.772  15.825  -3.144  0.00  0.00     0.002 A 
ATOM     34  C14 NON d   1     -49.153  15.800  -4.392  0.00  0.00     0.025 A 
ATOM     35  C15 NON d   1     -47.804  16.159  -4.527  0.00  0.00     0.033 A 
BRANCH  35  36
ATOM     36  N4  NON d   1     -47.211  16.130  -5.815  0.00  0.00    -0.301 NA
ATOM     37  H16 NON d   1     -47.271  17.047  -6.252  0.00  0.00     0.124 HD
ATOM     38  H17 NON d   1     -46.240  15.826  -5.777  0.00  0.00     0.124 HD
ENDBRANCH  35  36
ENDBRANCH  28  30
ENDBRANCH   4  26
TORSDOF 8
ENDMDL
