MODEL 1
REMARK VINA RESULT:   -23.528      0.000      0.000
REMARK INTER + INTRA:         -26.849
REMARK INTER:                 -25.019
REMARK INTRA:                  -1.830
REMARK CONF_INDEPENDENT:        1.492
REMARK UNBOUND:                -1.830
REMARK  5 active torsions:
REMARK  status: ('A' for Active; 'I' for Inactive)
REMARK       I    between atoms: C2_2  and  N1_4 
REMARK    1  A    between atoms: N2_11  and  C9_12 
REMARK    2  A    between atoms: C12_15  and  C13_16 
REMARK       I    between atoms: C13_16  and  N3_18 
REMARK    3  A    between atoms: N3_18  and  C14_19 
REMARK    4  A    between atoms: C16_21  and  C17_22 
REMARK    5  A    between atoms: C23_29  and  N4_30 
ROOT
ATOM      1  C9  NON d   1     -41.046  19.050  -3.940  0.00  0.00     0.105 A 
ATOM      2  C10 NON d   1     -41.485  17.958  -3.177  0.00  0.00     0.045 A 
ATOM      3  C11 NON d   1     -42.792  17.446  -3.312  0.00  0.00     0.022 A 
ATOM      4  C12 NON d   1     -43.653  18.012  -4.243  0.00  0.00     0.050 A 
ATOM      5  C24 NON d   1     -43.133  19.051  -5.001  0.00  0.00     0.135 A 
ATOM      6  N5  NON d   1     -41.878  19.561  -4.872  0.00  0.00    -0.248 NA
ENDROOT
BRANCH   4   7
ATOM      7  C13 NON d   1     -45.057  17.590  -4.518  0.00  0.00     0.257 C 
ATOM      8  O2  NON d   1     -45.367  17.460  -5.702  0.00  0.00    -0.267 OA
ATOM      9  N3  NON d   1     -45.902  17.356  -3.446  0.00  0.00    -0.321 N 
ATOM     10  H16 NON d   1     -45.492  17.322  -2.523  0.00  0.00     0.169 HD
BRANCH   9  11
ATOM     11  C14 NON d   1     -47.295  17.020  -3.491  0.00  0.00     0.057 A 
ATOM     12  C15 NON d   1     -48.063  17.421  -2.370  0.00  0.00     0.044 A 
ATOM     13  C16 NON d   1     -49.445  17.158  -2.255  0.00  0.00    -0.017 A 
ATOM     14  C21 NON d   1     -50.058  16.500  -3.328  0.00  0.00     0.014 A 
ATOM     15  C22 NON d   1     -49.329  16.127  -4.455  0.00  0.00     0.026 A 
ATOM     16  C23 NON d   1     -47.946  16.344  -4.546  0.00  0.00     0.033 A 
BRANCH  13  17
ATOM     17  C17 NON d   1     -50.214  17.577  -1.054  0.00  0.00     0.015 A 
ATOM     18  C18 NON d   1     -49.751  17.987   0.187  0.00  0.00     0.020 A 
ATOM     19  C19 NON d   1     -50.795  18.324   1.102  0.00  0.00     0.008 A 
ATOM     20  C20 NON d   1     -52.039  18.164   0.542  0.00  0.00     0.050 A 
ATOM     21  S1  NON d   1     -51.943  17.592  -1.060  0.00  0.00    -0.101 SA
ENDBRANCH  13  17
BRANCH  16  22
ATOM     22  N4  NON d   1     -47.365  16.131  -5.813  0.00  0.00    -0.301 NA
ATOM     23  H23 NON d   1     -47.290  17.014  -6.324  0.00  0.00     0.124 HD
ATOM     24  H24 NON d   1     -46.450  15.698  -5.765  0.00  0.00     0.124 HD
ENDBRANCH  16  22
ENDBRANCH   9  11
ENDBRANCH   4   7
BRANCH   1  25
ATOM     25  N2  NON d   1     -39.766  19.656  -3.759  0.00  0.00    -0.267 NA
ATOM     26  C8  NON d   1     -38.643  18.767  -4.077  0.00  0.00     0.097 C 
ATOM     27  C7  NON d   1     -37.299  19.355  -3.686  0.00  0.00     0.016 C 
ATOM     28  C6  NON d   1     -37.314  19.722  -2.215  0.00  0.00     0.013 C 
ATOM     29  C5  NON d   1     -38.332  20.840  -1.962  0.00  0.00    -0.010 C 
ATOM     30  C4  NON d   1     -37.831  22.181  -2.555  0.00  0.00     0.032 C 
ATOM     31  C25 NON d   1     -39.734  20.427  -2.481  0.00  0.00     0.108 C 
ATOM     32  C26 NON d   1     -38.410  21.130  -0.449  0.00  0.00     0.136 C 
ATOM     33  C3  NON d   1     -38.076  23.257  -1.502  0.00  0.00     0.126 C 
ATOM     34  N1  NON d   1     -38.471  22.565  -0.296  0.00  0.00    -0.352 N 
ATOM     35  C2  NON d   1     -38.733  23.117   0.939  0.00  0.00     0.215 C 
ATOM     36  C1  NON d   1     -38.621  24.613   1.093  0.00  0.00     0.117 C 
ATOM     37  O1  NON d   1     -39.051  22.425   1.908  0.00  0.00    -0.274 OA
ENDBRANCH   1  25
TORSDOF 5
ENDMDL
MODEL 2
REMARK VINA RESULT:   -23.486      1.932      2.285
REMARK INTER + INTRA:         -26.524
REMARK INTER:                 -24.977
REMARK INTRA:                  -1.547
REMARK CONF_INDEPENDENT:        1.492
REMARK UNBOUND:                -1.547
REMARK  5 active torsions:
REMARK  status: ('A' for Active; 'I' for Inactive)
REMARK       I    between atoms: C2_2  and  N1_4 
REMARK    1  A    between atoms: N2_11  and  C9_12 
REMARK    2  A    between atoms: C12_15  and  C13_16 
REMARK       I    between atoms: C13_16  and  N3_18 
REMARK    3  A    between atoms: N3_18  and  C14_19 
REMARK    4  A    between atoms: C16_21  and  C17_22 
REMARK    5  A    between atoms: C23_29  and  N4_30 
ROOT
ATOM      1  C9  NON d   1     -41.145  19.281  -4.111  0.00  0.00     0.105 A 
ATOM      2  C10 NON d   1     -41.467  18.143  -3.356  0.00  0.00     0.045 A 
ATOM      3  C11 NON d   1     -42.735  17.534  -3.451  0.00  0.00     0.022 A 
ATOM      4  C12 NON d   1     -43.674  18.051  -4.334  0.00  0.00     0.050 A 
ATOM      5  C24 NON d   1     -43.268  19.143  -5.088  0.00  0.00     0.135 A 
ATOM      6  N5  NON d   1     -42.051  19.745  -4.997  0.00  0.00    -0.248 NA
ENDROOT
BRANCH   4   7
ATOM      7  C13 NON d   1     -45.052  17.527  -4.564  0.00  0.00     0.257 C 
ATOM      8  O2  NON d   1     -45.310  17.147  -5.705  0.00  0.00    -0.267 OA
ATOM      9  N3  NON d   1     -45.932  17.483  -3.494  0.00  0.00    -0.321 N 
ATOM     10  H16 NON d   1     -45.559  17.654  -2.571  0.00  0.00     0.169 HD
BRANCH   9  11
ATOM     11  C14 NON d   1     -47.311  17.090  -3.515  0.00  0.00     0.057 A 
ATOM     12  C15 NON d   1     -48.084  17.494  -2.400  0.00  0.00     0.044 A 
ATOM     13  C16 NON d   1     -49.454  17.180  -2.263  0.00  0.00    -0.017 A 
ATOM     14  C21 NON d   1     -50.049  16.466  -3.310  0.00  0.00     0.014 A 
ATOM     15  C22 NON d   1     -49.315  16.089  -4.433  0.00  0.00     0.026 A 
ATOM     16  C23 NON d   1     -47.944  16.358  -4.544  0.00  0.00     0.033 A 
BRANCH  13  17
ATOM     17  C17 NON d   1     -50.228  17.603  -1.068  0.00  0.00     0.015 A 
ATOM     18  C18 NON d   1     -49.772  18.007   0.178  0.00  0.00     0.020 A 
ATOM     19  C19 NON d   1     -50.820  18.351   1.085  0.00  0.00     0.008 A 
ATOM     20  C20 NON d   1     -52.060  18.205   0.515  0.00  0.00     0.050 A 
ATOM     21  S1  NON d   1     -51.957  17.635  -1.087  0.00  0.00    -0.101 SA
ENDBRANCH  13  17
BRANCH  16  22
ATOM     22  N4  NON d   1     -47.366  16.130  -5.810  0.00  0.00    -0.301 NA
ATOM     23  H23 NON d   1     -47.390  16.985  -6.372  0.00  0.00     0.124 HD
ATOM     24  H24 NON d   1     -46.410  15.796  -5.758  0.00  0.00     0.124 HD
ENDBRANCH  16  22
ENDBRANCH   9  11
ENDBRANCH   4   7
BRANCH   1  25
ATOM     25  N2  NON d   1     -39.909  19.981  -3.966  0.00  0.00    -0.267 NA
ATOM     26  C8  NON d   1     -38.994  19.368  -2.996  0.00  0.00     0.097 C 
ATOM     27  C7  NON d   1     -37.780  20.231  -2.706  0.00  0.00     0.016 C 
ATOM     28  C6  NON d   1     -38.231  21.605  -2.249  0.00  0.00     0.013 C 
ATOM     29  C5  NON d   1     -38.971  22.320  -3.385  0.00  0.00    -0.010 C 
ATOM     30  C4  NON d   1     -37.985  22.735  -4.506  0.00  0.00     0.032 C 
ATOM     31  C25 NON d   1     -40.151  21.453  -3.897  0.00  0.00     0.108 C 
ATOM     32  C26 NON d   1     -39.513  23.671  -2.873  0.00  0.00     0.136 C 
ATOM     33  C3  NON d   1     -38.324  24.170  -4.894  0.00  0.00     0.126 C 
ATOM     34  N1  NON d   1     -39.277  24.643  -3.916  0.00  0.00    -0.352 N 
ATOM     35  C2  NON d   1     -39.823  25.904  -3.819  0.00  0.00     0.215 C 
ATOM     36  C1  NON d   1     -39.417  26.940  -4.837  0.00  0.00     0.117 C 
ATOM     37  O1  NON d   1     -40.622  26.203  -2.929  0.00  0.00    -0.274 OA
ENDBRANCH   1  25
TORSDOF 5
ENDMDL
MODEL 3
REMARK VINA RESULT:   -23.321      0.966      1.010
REMARK INTER + INTRA:         -26.556
REMARK INTER:                 -24.812
REMARK INTRA:                  -1.743
REMARK CONF_INDEPENDENT:        1.492
REMARK UNBOUND:                -1.743
REMARK  5 active torsions:
REMARK  status: ('A' for Active; 'I' for Inactive)
REMARK       I    between atoms: C2_2  and  N1_4 
REMARK    1  A    between atoms: N2_11  and  C9_12 
REMARK    2  A    between atoms: C12_15  and  C13_16 
REMARK       I    between atoms: C13_16  and  N3_18 
REMARK    3  A    between atoms: N3_18  and  C14_19 
REMARK    4  A    between atoms: C16_21  and  C17_22 
REMARK    5  A    between atoms: C23_29  and  N4_30 
ROOT
ATOM      1  C9  NON d   1     -41.036  19.011  -3.883  0.00  0.00     0.105 A 
ATOM      2  C10 NON d   1     -41.396  17.786  -3.301  0.00  0.00     0.045 A 
ATOM      3  C11 NON d   1     -42.692  17.252  -3.458  0.00  0.00     0.022 A 
ATOM      4  C12 NON d   1     -43.621  17.934  -4.232  0.00  0.00     0.050 A 
ATOM      5  C24 NON d   1     -43.179  19.110  -4.822  0.00  0.00     0.135 A 
ATOM      6  N5  NON d   1     -41.935  19.641  -4.669  0.00  0.00    -0.248 NA
ENDROOT
BRANCH   4   7
ATOM      7  C13 NON d   1     -45.024  17.509  -4.506  0.00  0.00     0.257 C 
ATOM      8  O2  NON d   1     -45.317  17.317  -5.685  0.00  0.00    -0.267 OA
ATOM      9  N3  NON d   1     -45.888  17.341  -3.436  0.00  0.00    -0.321 N 
ATOM     10  H16 NON d   1     -45.493  17.354  -2.507  0.00  0.00     0.169 HD
BRANCH   9  11
ATOM     11  C14 NON d   1     -47.284  17.013  -3.484  0.00  0.00     0.057 A 
ATOM     12  C15 NON d   1     -48.051  17.416  -2.364  0.00  0.00     0.044 A 
ATOM     13  C16 NON d   1     -49.435  17.161  -2.253  0.00  0.00    -0.017 A 
ATOM     14  C21 NON d   1     -50.050  16.510  -3.329  0.00  0.00     0.014 A 
ATOM     15  C22 NON d   1     -49.321  16.136  -4.456  0.00  0.00     0.026 A 
ATOM     16  C23 NON d   1     -47.937  16.345  -4.544  0.00  0.00     0.033 A 
BRANCH  13  17
ATOM     17  C17 NON d   1     -50.203  17.581  -1.052  0.00  0.00     0.015 A 
ATOM     18  C18 NON d   1     -49.741  17.989   0.190  0.00  0.00     0.020 A 
ATOM     19  C19 NON d   1     -50.784  18.328   1.104  0.00  0.00     0.008 A 
ATOM     20  C20 NON d   1     -52.028  18.173   0.543  0.00  0.00     0.050 A 
ATOM     21  S1  NON d   1     -51.932  17.602  -1.059  0.00  0.00    -0.101 SA
ENDBRANCH  13  17
BRANCH  16  22
ATOM     22  N4  NON d   1     -47.355  16.131  -5.810  0.00  0.00    -0.301 NA
ATOM     23  H23 NON d   1     -47.279  17.015  -6.321  0.00  0.00     0.124 HD
ATOM     24  H24 NON d   1     -46.439  15.700  -5.761  0.00  0.00     0.124 HD
ENDBRANCH  16  22
ENDBRANCH   9  11
ENDBRANCH   4   7
BRANCH   1  25
ATOM     25  N2  NON d   1     -39.768  19.629  -3.663  0.00  0.00    -0.267 NA
ATOM     26  C8  NON d   1     -38.711  18.686  -3.281  0.00  0.00     0.097 C 
ATOM     27  C7  NON d   1     -37.430  19.379  -2.854  0.00  0.00     0.016 C 
ATOM     28  C6  NON d   1     -37.730  20.356  -1.735  0.00  0.00     0.013 C 
ATOM     29  C5  NON d   1     -38.644  21.476  -2.245  0.00  0.00    -0.010 C 
ATOM     30  C4  NON d   1     -37.873  22.417  -3.205  0.00  0.00     0.032 C 
ATOM     31  C25 NON d   1     -39.933  20.884  -2.871  0.00  0.00     0.108 C 
ATOM     32  C26 NON d   1     -39.023  22.403  -1.072  0.00  0.00     0.136 C 
ATOM     33  C3  NON d   1     -38.222  23.848  -2.808  0.00  0.00     0.126 C 
ATOM     34  N1  NON d   1     -38.952  23.759  -1.564  0.00  0.00    -0.352 N 
ATOM     35  C2  NON d   1     -39.418  24.799  -0.790  0.00  0.00     0.215 C 
ATOM     36  C1  NON d   1     -39.172  26.210  -1.263  0.00  0.00     0.117 C 
ATOM     37  O1  NON d   1     -40.020  24.606   0.268  0.00  0.00    -0.274 OA
ENDBRANCH   1  25
TORSDOF 5
ENDMDL
MODEL 4
REMARK VINA RESULT:   -23.065      1.492      1.836
REMARK INTER + INTRA:         -25.567
REMARK INTER:                 -24.557
REMARK INTRA:                  -1.011
REMARK CONF_INDEPENDENT:        1.492
REMARK UNBOUND:                -1.011
REMARK  5 active torsions:
REMARK  status: ('A' for Active; 'I' for Inactive)
REMARK       I    between atoms: C2_2  and  N1_4 
REMARK    1  A    between atoms: N2_11  and  C9_12 
REMARK    2  A    between atoms: C12_15  and  C13_16 
REMARK       I    between atoms: C13_16  and  N3_18 
REMARK    3  A    between atoms: N3_18  and  C14_19 
REMARK    4  A    between atoms: C16_21  and  C17_22 
REMARK    5  A    between atoms: C23_29  and  N4_30 
ROOT
ATOM      1  C9  NON d   1     -41.215  19.456  -4.284  0.00  0.00     0.105 A 
ATOM      2  C10 NON d   1     -41.463  18.258  -3.597  0.00  0.00     0.045 A 
ATOM      3  C11 NON d   1     -42.717  17.617  -3.670  0.00  0.00     0.022 A 
ATOM      4  C12 NON d   1     -43.717  18.163  -4.463  0.00  0.00     0.050 A 
ATOM      5  C24 NON d   1     -43.383  19.318  -5.157  0.00  0.00     0.135 A 
ATOM      6  N5  NON d   1     -42.181  19.952  -5.086  0.00  0.00    -0.248 NA
ENDROOT
BRANCH   4   7
ATOM      7  C13 NON d   1     -45.089  17.613  -4.658  0.00  0.00     0.257 C 
ATOM      8  O2  NON d   1     -45.370  17.234  -5.794  0.00  0.00    -0.267 OA
ATOM      9  N3  NON d   1     -45.938  17.545  -3.566  0.00  0.00    -0.321 N 
ATOM     10  H16 NON d   1     -45.543  17.718  -2.652  0.00  0.00     0.169 HD
BRANCH   9  11
ATOM     11  C14 NON d   1     -47.309  17.124  -3.551  0.00  0.00     0.057 A 
ATOM     12  C15 NON d   1     -48.066  17.528  -2.425  0.00  0.00     0.044 A 
ATOM     13  C16 NON d   1     -49.426  17.188  -2.254  0.00  0.00    -0.017 A 
ATOM     14  C21 NON d   1     -50.029  16.447  -3.277  0.00  0.00     0.014 A 
ATOM     15  C22 NON d   1     -49.312  16.069  -4.411  0.00  0.00     0.026 A 
ATOM     16  C23 NON d   1     -47.948  16.364  -4.556  0.00  0.00     0.033 A 
BRANCH  13  17
ATOM     17  C17 NON d   1     -50.183  17.613  -1.048  0.00  0.00     0.015 A 
ATOM     18  C18 NON d   1     -49.708  18.024   0.189  0.00  0.00     0.020 A 
ATOM     19  C19 NON d   1     -50.743  18.367   1.111  0.00  0.00     0.008 A 
ATOM     20  C20 NON d   1     -51.992  18.213   0.562  0.00  0.00     0.050 A 
ATOM     21  S1  NON d   1     -51.912  17.637  -1.039  0.00  0.00    -0.101 SA
ENDBRANCH  13  17
BRANCH  16  22
ATOM     22  N4  NON d   1     -47.393  16.130  -5.830  0.00  0.00    -0.301 NA
ATOM     23  H23 NON d   1     -48.092  15.714  -6.452  0.00  0.00     0.124 HD
ATOM     24  H24 NON d   1     -47.022  16.968  -6.264  0.00  0.00     0.124 HD
ENDBRANCH  16  22
ENDBRANCH   9  11
ENDBRANCH   4   7
BRANCH   1  25
ATOM     25  N2  NON d   1     -39.993  20.184  -4.154  0.00  0.00    -0.267 NA
ATOM     26  C8  NON d   1     -39.251  20.320  -5.412  0.00  0.00     0.097 C 
ATOM     27  C7  NON d   1     -37.867  20.912  -5.218  0.00  0.00     0.016 C 
ATOM     28  C6  NON d   1     -37.097  20.084  -4.208  0.00  0.00     0.013 C 
ATOM     29  C5  NON d   1     -37.770  20.171  -2.833  0.00  0.00    -0.010 C 
ATOM     30  C4  NON d   1     -37.570  21.577  -2.214  0.00  0.00     0.032 C 
ATOM     31  C25 NON d   1     -39.259  19.749  -2.928  0.00  0.00     0.108 C 
ATOM     32  C26 NON d   1     -37.036  19.242  -1.844  0.00  0.00     0.136 C 
ATOM     33  C3  NON d   1     -37.171  21.373  -0.756  0.00  0.00     0.126 C 
ATOM     34  N1  NON d   1     -36.924  19.959  -0.595  0.00  0.00    -0.352 N 
ATOM     35  C2  NON d   1     -36.477  19.310   0.535  0.00  0.00     0.215 C 
ATOM     36  C1  NON d   1     -36.213  20.129   1.774  0.00  0.00     0.117 C 
ATOM     37  O1  NON d   1     -36.286  18.092   0.556  0.00  0.00    -0.274 OA
ENDBRANCH   1  25
TORSDOF 5
ENDMDL
MODEL 5
REMARK VINA RESULT:   -22.919      2.518      3.268
REMARK INTER + INTRA:         -26.250
REMARK INTER:                 -24.410
REMARK INTRA:                  -1.840
REMARK CONF_INDEPENDENT:        1.492
REMARK UNBOUND:                -1.840
REMARK  5 active torsions:
REMARK  status: ('A' for Active; 'I' for Inactive)
REMARK       I    between atoms: C2_2  and  N1_4 
REMARK    1  A    between atoms: N2_11  and  C9_12 
REMARK    2  A    between atoms: C12_15  and  C13_16 
REMARK       I    between atoms: C13_16  and  N3_18 
REMARK    3  A    between atoms: N3_18  and  C14_19 
REMARK    4  A    between atoms: C16_21  and  C17_22 
REMARK    5  A    between atoms: C23_29  and  N4_30 
ROOT
ATOM      1  C9  NON d   1     -41.045  19.109  -4.041  0.00  0.00     0.105 A 
ATOM      2  C10 NON d   1     -41.540  18.164  -3.129  0.00  0.00     0.045 A 
ATOM      3  C11 NON d   1     -42.853  17.660  -3.235  0.00  0.00     0.022 A 
ATOM      4  C12 NON d   1     -43.662  18.080  -4.282  0.00  0.00     0.050 A 
ATOM      5  C24 NON d   1     -43.088  18.971  -5.177  0.00  0.00     0.135 A 
ATOM      6  N5  NON d   1     -41.827  19.474  -5.079  0.00  0.00    -0.248 NA
ENDROOT
BRANCH   4   7
ATOM      7  C13 NON d   1     -45.063  17.642  -4.546  0.00  0.00     0.257 C 
ATOM      8  O2  NON d   1     -45.382  17.509  -5.726  0.00  0.00    -0.267 OA
ATOM      9  N3  NON d   1     -45.897  17.399  -3.466  0.00  0.00    -0.321 N 
ATOM     10  H16 NON d   1     -45.478  17.370  -2.547  0.00  0.00     0.169 HD
BRANCH   9  11
ATOM     11  C14 NON d   1     -47.287  17.047  -3.498  0.00  0.00     0.057 A 
ATOM     12  C15 NON d   1     -48.052  17.453  -2.378  0.00  0.00     0.044 A 
ATOM     13  C16 NON d   1     -49.430  17.176  -2.252  0.00  0.00    -0.017 A 
ATOM     14  C21 NON d   1     -50.042  16.499  -3.313  0.00  0.00     0.014 A 
ATOM     15  C22 NON d   1     -49.316  16.122  -4.440  0.00  0.00     0.026 A 
ATOM     16  C23 NON d   1     -47.936  16.352  -4.542  0.00  0.00     0.033 A 
BRANCH  13  17
ATOM     17  C17 NON d   1     -50.196  17.600  -1.051  0.00  0.00     0.015 A 
ATOM     18  C18 NON d   1     -49.732  18.004   0.192  0.00  0.00     0.020 A 
ATOM     19  C19 NON d   1     -50.773  18.349   1.106  0.00  0.00     0.008 A 
ATOM     20  C20 NON d   1     -52.018  18.203   0.544  0.00  0.00     0.050 A 
ATOM     21  S1  NON d   1     -51.925  17.632  -1.058  0.00  0.00    -0.101 SA
ENDBRANCH  13  17
BRANCH  16  22
ATOM     22  N4  NON d   1     -47.361  16.131  -5.810  0.00  0.00    -0.301 NA
ATOM     23  H23 NON d   1     -47.403  16.983  -6.375  0.00  0.00     0.124 HD
ATOM     24  H24 NON d   1     -46.399  15.814  -5.762  0.00  0.00     0.124 HD
ENDBRANCH  16  22
ENDBRANCH   9  11
ENDBRANCH   4   7
BRANCH   1  25
ATOM     25  N2  NON d   1     -39.759  19.714  -3.906  0.00  0.00    -0.267 NA
ATOM     26  C8  NON d   1     -39.280  19.778  -2.521  0.00  0.00     0.097 C 
ATOM     27  C7  NON d   1     -38.014  20.602  -2.374  0.00  0.00     0.016 C 
ATOM     28  C6  NON d   1     -38.242  21.988  -2.945  0.00  0.00     0.013 C 
ATOM     29  C5  NON d   1     -38.493  21.901  -4.455  0.00  0.00    -0.010 C 
ATOM     30  C4  NON d   1     -37.190  21.527  -5.205  0.00  0.00     0.032 C 
ATOM     31  C25 NON d   1     -39.671  20.940  -4.756  0.00  0.00     0.108 C 
ATOM     32  C26 NON d   1     -38.825  23.305  -5.001  0.00  0.00     0.136 C 
ATOM     33  C3  NON d   1     -37.087  22.451  -6.414  0.00  0.00     0.126 C 
ATOM     34  N1  NON d   1     -38.122  23.447  -6.255  0.00  0.00    -0.352 N 
ATOM     35  C2  NON d   1     -38.374  24.531  -7.068  0.00  0.00     0.215 C 
ATOM     36  C1  NON d   1     -37.503  24.733  -8.282  0.00  0.00     0.117 C 
ATOM     37  O1  NON d   1     -39.281  25.330  -6.827  0.00  0.00    -0.274 OA
ENDBRANCH   1  25
TORSDOF 5
ENDMDL
