MODEL 1
REMARK VINA RESULT:   -18.175      0.000      0.000
REMARK INTER + INTRA:         -21.467
REMARK INTER:                 -20.859
REMARK INTRA:                  -0.607
REMARK CONF_INDEPENDENT:        2.685
REMARK UNBOUND:                -0.607
REMARK  9 active torsions:
REMARK  status: ('A' for Active; 'I' for Inactive)
REMARK    1  A    between atoms: C1_2  and  C2_3 
REMARK       I    between atoms: C1_2  and  N1_10 
REMARK    2  A    between atoms: C2_3  and  C3_4 
REMARK    3  A    between atoms: C3_4  and  C4_5 
REMARK    4  A    between atoms: C4_5  and  C5_6 
REMARK    5  A    between atoms: C5_6  and  C6_7 
REMARK    6  A    between atoms: C6_7  and  C7_8 
REMARK    7  A    between atoms: C7_8  and  S1_9 
REMARK    8  A    between atoms: N1_10  and  C8_11 
REMARK    9  A    between atoms: C9_13  and  C10_14 
ROOT
ATOM      1  O1  NON d   1     -47.899  15.295  -5.976  0.00  0.00    -0.273 OA
ATOM      2  C1  NON d   1     -48.010  15.430  -4.761  0.00  0.00     0.223 C 
ATOM      3  N1  NON d   1     -47.142  16.104  -3.921  0.00  0.00    -0.306 N 
ATOM      4  H14 NON d   1     -47.268  16.061  -2.920  0.00  0.00     0.171 HD
ENDROOT
BRANCH   3   5
ATOM      5  C8  NON d   1     -46.015  16.799  -4.308  0.00  0.00     0.173 A 
ATOM      6  N2  NON d   1     -44.942  16.895  -3.549  0.00  0.00    -0.223 NA
ATOM      7  C9  NON d   1     -43.965  17.661  -4.194  0.00  0.00     0.076 A 
ATOM      8  C16 NON d   1     -44.351  18.130  -5.435  0.00  0.00     0.085 A 
ATOM      9  S2  NON d   1     -45.940  17.630  -5.794  0.00  0.00    -0.061 SA
BRANCH   7  10
ATOM     10  C10 NON d   1     -42.642  17.922  -3.611  0.00  0.00    -0.007 A 
ATOM     11  C11 NON d   1     -41.524  18.111  -4.438  0.00  0.00     0.014 A 
ATOM     12  C12 NON d   1     -40.265  18.389  -3.891  0.00  0.00     0.001 A 
ATOM     13  C13 NON d   1     -40.100  18.478  -2.511  0.00  0.00     0.000 A 
ATOM     14  C14 NON d   1     -41.191  18.284  -1.673  0.00  0.00     0.001 A 
ATOM     15  C15 NON d   1     -42.450  18.005  -2.219  0.00  0.00     0.014 A 
ENDBRANCH   7  10
ENDBRANCH   3   5
BRANCH   2  16
ATOM     16  C2  NON d   1     -49.191  14.815  -4.015  0.00  0.00     0.103 C 
BRANCH  16  17
ATOM     17  C3  NON d   1     -49.518  15.548  -2.701  0.00  0.00     0.009 C 
BRANCH  17  18
ATOM     18  C4  NON d   1     -50.422  16.770  -2.915  0.00  0.00     0.000 C 
BRANCH  18  19
ATOM     19  C5  NON d   1     -51.867  16.584  -2.434  0.00  0.00     0.001 C 
BRANCH  19  20
ATOM     20  C6  NON d   1     -52.390  17.630  -1.442  0.00  0.00     0.010 C 
BRANCH  20  21
ATOM     21  C7  NON d   1     -53.901  17.593  -1.239  0.00  0.00     0.070 C 
BRANCH  21  22
ATOM     22  S1  NON d   1     -54.749  17.253  -2.813  0.00  0.00    -0.182 SA
ATOM     23  H13 NON d   1     -55.982  17.107  -2.304  0.00  0.00     0.101 HD
ENDBRANCH  21  22
ENDBRANCH  20  21
ENDBRANCH  19  20
ENDBRANCH  18  19
ENDBRANCH  17  18
ENDBRANCH  16  17
ENDBRANCH   2  16
TORSDOF 9
ENDMDL
MODEL 2
REMARK VINA RESULT:   -16.446      2.718      4.278
REMARK INTER + INTRA:         -19.644
REMARK INTER:                 -19.131
REMARK INTRA:                  -0.513
REMARK CONF_INDEPENDENT:        2.685
REMARK UNBOUND:                -0.513
REMARK  9 active torsions:
REMARK  status: ('A' for Active; 'I' for Inactive)
REMARK    1  A    between atoms: C1_2  and  C2_3 
REMARK       I    between atoms: C1_2  and  N1_10 
REMARK    2  A    between atoms: C2_3  and  C3_4 
REMARK    3  A    between atoms: C3_4  and  C4_5 
REMARK    4  A    between atoms: C4_5  and  C5_6 
REMARK    5  A    between atoms: C5_6  and  C6_7 
REMARK    6  A    between atoms: C6_7  and  C7_8 
REMARK    7  A    between atoms: C7_8  and  S1_9 
REMARK    8  A    between atoms: N1_10  and  C8_11 
REMARK    9  A    between atoms: C9_13  and  C10_14 
ROOT
ATOM      1  O1  NON d   1     -45.522  16.773  -5.460  0.00  0.00    -0.273 OA
ATOM      2  C1  NON d   1     -45.455  16.646  -4.241  0.00  0.00     0.223 C 
ATOM      3  N1  NON d   1     -44.349  16.882  -3.445  0.00  0.00    -0.306 N 
ATOM      4  H14 NON d   1     -44.368  16.640  -2.464  0.00  0.00     0.171 HD
ENDROOT
BRANCH   3   5
ATOM      5  C8  NON d   1     -43.129  17.362  -3.873  0.00  0.00     0.173 A 
ATOM      6  N2  NON d   1     -42.954  17.901  -5.064  0.00  0.00    -0.223 NA
ATOM      7  C9  NON d   1     -41.619  18.290  -5.222  0.00  0.00     0.076 A 
ATOM      8  C16 NON d   1     -40.823  18.014  -4.127  0.00  0.00     0.085 A 
ATOM      9  S2  NON d   1     -41.733  17.256  -2.903  0.00  0.00    -0.061 SA
BRANCH   7  10
ATOM     10  C10 NON d   1     -41.119  18.950  -6.435  0.00  0.00    -0.007 A 
ATOM     11  C11 NON d   1     -39.940  18.508  -7.053  0.00  0.00     0.014 A 
ATOM     12  C12 NON d   1     -39.472  19.113  -8.226  0.00  0.00     0.001 A 
ATOM     13  C13 NON d   1     -40.171  20.173  -8.799  0.00  0.00     0.000 A 
ATOM     14  C14 NON d   1     -41.336  20.634  -8.199  0.00  0.00     0.001 A 
ATOM     15  C15 NON d   1     -41.804  20.030  -7.025  0.00  0.00     0.014 A 
ENDBRANCH   7  10
ENDBRANCH   3   5
BRANCH   2  16
ATOM     16  C2  NON d   1     -46.666  16.172  -3.441  0.00  0.00     0.103 C 
BRANCH  16  17
ATOM     17  C3  NON d   1     -47.331  17.302  -2.633  0.00  0.00     0.009 C 
BRANCH  17  18
ATOM     18  C4  NON d   1     -48.303  16.775  -1.570  0.00  0.00     0.000 C 
BRANCH  18  19
ATOM     19  C5  NON d   1     -49.405  15.857  -2.115  0.00  0.00     0.001 C 
BRANCH  19  20
ATOM     20  C6  NON d   1     -49.788  16.058  -3.586  0.00  0.00     0.010 C 
BRANCH  20  21
ATOM     21  C7  NON d   1     -49.225  14.997  -4.525  0.00  0.00     0.070 C 
BRANCH  21  22
ATOM     22  S1  NON d   1     -48.189  15.766  -5.810  0.00  0.00    -0.182 SA
ATOM     23  H13 NON d   1     -47.773  16.811  -5.079  0.00  0.00     0.101 HD
ENDBRANCH  21  22
ENDBRANCH  20  21
ENDBRANCH  19  20
ENDBRANCH  18  19
ENDBRANCH  17  18
ENDBRANCH  16  17
ENDBRANCH   2  16
TORSDOF 9
ENDMDL
MODEL 3
REMARK VINA RESULT:   -16.232      2.674      3.678
REMARK INTER + INTRA:         -19.373
REMARK INTER:                 -18.917
REMARK INTRA:                  -0.456
REMARK CONF_INDEPENDENT:        2.685
REMARK UNBOUND:                -0.456
REMARK  9 active torsions:
REMARK  status: ('A' for Active; 'I' for Inactive)
REMARK    1  A    between atoms: C1_2  and  C2_3 
REMARK       I    between atoms: C1_2  and  N1_10 
REMARK    2  A    between atoms: C2_3  and  C3_4 
REMARK    3  A    between atoms: C3_4  and  C4_5 
REMARK    4  A    between atoms: C4_5  and  C5_6 
REMARK    5  A    between atoms: C5_6  and  C6_7 
REMARK    6  A    between atoms: C6_7  and  C7_8 
REMARK    7  A    between atoms: C7_8  and  S1_9 
REMARK    8  A    between atoms: N1_10  and  C8_11 
REMARK    9  A    between atoms: C9_13  and  C10_14 
ROOT
ATOM      1  O1  NON d   1     -45.803  17.044  -5.536  0.00  0.00    -0.273 OA
ATOM      2  C1  NON d   1     -45.570  16.900  -4.339  0.00  0.00     0.223 C 
ATOM      3  N1  NON d   1     -44.418  17.274  -3.671  0.00  0.00    -0.306 N 
ATOM      4  H14 NON d   1     -44.282  17.009  -2.705  0.00  0.00     0.171 HD
ENDROOT
BRANCH   3   5
ATOM      5  C8  NON d   1     -43.339  17.933  -4.221  0.00  0.00     0.173 A 
ATOM      6  N2  NON d   1     -42.098  17.712  -3.836  0.00  0.00    -0.223 NA
ATOM      7  C9  NON d   1     -41.218  18.523  -4.561  0.00  0.00     0.076 A 
ATOM      8  C16 NON d   1     -41.845  19.348  -5.476  0.00  0.00     0.085 A 
ATOM      9  S2  NON d   1     -43.533  19.125  -5.423  0.00  0.00    -0.061 SA
BRANCH   7  10
ATOM     10  C10 NON d   1     -39.761  18.483  -4.380  0.00  0.00    -0.007 A 
ATOM     11  C11 NON d   1     -38.902  18.773  -5.450  0.00  0.00     0.014 A 
ATOM     12  C12 NON d   1     -37.512  18.765  -5.278  0.00  0.00     0.001 A 
ATOM     13  C13 NON d   1     -36.957  18.465  -4.035  0.00  0.00     0.000 A 
ATOM     14  C14 NON d   1     -37.790  18.165  -2.964  0.00  0.00     0.001 A 
ATOM     15  C15 NON d   1     -39.179  18.171  -3.136  0.00  0.00     0.014 A 
ENDBRANCH   7  10
ENDBRANCH   3   5
BRANCH   2  16
ATOM     16  C2  NON d   1     -46.595  16.239  -3.421  0.00  0.00     0.103 C 
BRANCH  16  17
ATOM     17  C3  NON d   1     -47.520  17.255  -2.726  0.00  0.00     0.009 C 
BRANCH  17  18
ATOM     18  C4  NON d   1     -48.989  17.096  -3.142  0.00  0.00     0.000 C 
BRANCH  18  19
ATOM     19  C5  NON d   1     -49.618  15.752  -2.755  0.00  0.00     0.001 C 
BRANCH  19  20
ATOM     20  C6  NON d   1     -49.148  14.530  -3.554  0.00  0.00     0.010 C 
BRANCH  20  21
ATOM     21  C7  NON d   1     -49.317  14.672  -5.063  0.00  0.00     0.070 C 
BRANCH  21  22
ATOM     22  S1  NON d   1     -47.815  15.380  -5.810  0.00  0.00    -0.182 SA
ATOM     23  H13 NON d   1     -47.908  16.592  -5.242  0.00  0.00     0.101 HD
ENDBRANCH  21  22
ENDBRANCH  20  21
ENDBRANCH  19  20
ENDBRANCH  18  19
ENDBRANCH  17  18
ENDBRANCH  16  17
ENDBRANCH   2  16
TORSDOF 9
ENDMDL
MODEL 4
REMARK VINA RESULT:   -15.547      1.542      2.260
REMARK INTER + INTRA:         -18.576
REMARK INTER:                 -18.232
REMARK INTRA:                  -0.344
REMARK CONF_INDEPENDENT:        2.685
REMARK UNBOUND:                -0.344
REMARK  9 active torsions:
REMARK  status: ('A' for Active; 'I' for Inactive)
REMARK    1  A    between atoms: C1_2  and  C2_3 
REMARK       I    between atoms: C1_2  and  N1_10 
REMARK    2  A    between atoms: C2_3  and  C3_4 
REMARK    3  A    between atoms: C3_4  and  C4_5 
REMARK    4  A    between atoms: C4_5  and  C5_6 
REMARK    5  A    between atoms: C5_6  and  C6_7 
REMARK    6  A    between atoms: C6_7  and  C7_8 
REMARK    7  A    between atoms: C7_8  and  S1_9 
REMARK    8  A    between atoms: N1_10  and  C8_11 
REMARK    9  A    between atoms: C9_13  and  C10_14 
ROOT
ATOM      1  O1  NON d   1     -49.662  14.339  -4.044  0.00  0.00    -0.273 OA
ATOM      2  C1  NON d   1     -49.760  15.368  -3.382  0.00  0.00     0.223 C 
ATOM      3  N1  NON d   1     -48.846  16.404  -3.324  0.00  0.00    -0.306 N 
ATOM      4  H14 NON d   1     -48.971  17.157  -2.661  0.00  0.00     0.171 HD
ENDROOT
BRANCH   3   5
ATOM      5  C8  NON d   1     -47.676  16.495  -4.049  0.00  0.00     0.173 A 
ATOM      6  N2  NON d   1     -46.599  17.100  -3.590  0.00  0.00    -0.223 NA
ATOM      7  C9  NON d   1     -45.573  17.041  -4.539  0.00  0.00     0.076 A 
ATOM      8  C16 NON d   1     -45.927  16.388  -5.704  0.00  0.00     0.085 A 
ATOM      9  S2  NON d   1     -47.545  15.860  -5.625  0.00  0.00    -0.061 SA
BRANCH   7  10
ATOM     10  C10 NON d   1     -44.236  17.603  -4.307  0.00  0.00    -0.007 A 
ATOM     11  C11 NON d   1     -43.783  18.698  -5.057  0.00  0.00     0.014 A 
ATOM     12  C12 NON d   1     -42.521  19.258  -4.821  0.00  0.00     0.001 A 
ATOM     13  C13 NON d   1     -41.689  18.731  -3.836  0.00  0.00     0.000 A 
ATOM     14  C14 NON d   1     -42.113  17.640  -3.088  0.00  0.00     0.001 A 
ATOM     15  C15 NON d   1     -43.374  17.079  -3.324  0.00  0.00     0.014 A 
ENDBRANCH   7  10
ENDBRANCH   3   5
BRANCH   2  16
ATOM     16  C2  NON d   1     -50.978  15.609  -2.494  0.00  0.00     0.103 C 
BRANCH  16  17
ATOM     17  C3  NON d   1     -51.409  17.086  -2.454  0.00  0.00     0.009 C 
BRANCH  17  18
ATOM     18  C4  NON d   1     -52.778  17.285  -1.789  0.00  0.00     0.000 C 
BRANCH  18  19
ATOM     19  C5  NON d   1     -53.919  16.485  -2.431  0.00  0.00     0.001 C 
BRANCH  19  20
ATOM     20  C6  NON d   1     -55.224  17.250  -2.682  0.00  0.00     0.010 C 
BRANCH  20  21
ATOM     21  C7  NON d   1     -55.308  18.589  -1.958  0.00  0.00     0.070 C 
BRANCH  21  22
ATOM     22  S1  NON d   1     -54.941  18.382  -0.187  0.00  0.00    -0.182 SA
ATOM     23  H13 NON d   1     -56.104  17.808   0.154  0.00  0.00     0.101 HD
ENDBRANCH  21  22
ENDBRANCH  20  21
ENDBRANCH  19  20
ENDBRANCH  18  19
ENDBRANCH  17  18
ENDBRANCH  16  17
ENDBRANCH   2  16
TORSDOF 9
ENDMDL
