MODEL 1
REMARK VINA RESULT:   -16.188      0.000      0.000
REMARK INTER + INTRA:         -18.474
REMARK INTER:                 -17.679
REMARK INTRA:                  -0.794
REMARK CONF_INDEPENDENT:        1.492
REMARK UNBOUND:                -0.794
REMARK  5 active torsions:
REMARK  status: ('A' for Active; 'I' for Inactive)
REMARK    1  A    between atoms: C2_2  and  N1_3 
REMARK    2  A    between atoms: C2_2  and  C10_17 
REMARK       I    between atoms: N1_3  and  C3_4 
REMARK    3  A    between atoms: C3_4  and  C4_6 
REMARK    4  A    between atoms: C7_9  and  C8_10 
REMARK    5  A    between atoms: C8_10  and  C9_12 
ROOT
ATOM      1  N1  NON d   1     -42.123  17.779  -5.374  0.00  0.00    -0.348 N 
ATOM      2  C3  NON d   1     -43.297  18.504  -5.174  0.00  0.00     0.259 C 
ATOM      3  O1  NON d   1     -43.363  19.722  -5.299  0.00  0.00    -0.267 OA
ATOM      4  H5  NON d   1     -42.195  16.786  -5.215  0.00  0.00     0.163 HD
ENDROOT
BRANCH   2   5
ATOM      5  C4  NON d   1     -44.409  17.708  -4.685  0.00  0.00     0.073 A 
ATOM      6  C5  NON d   1     -44.702  17.255  -3.418  0.00  0.00     0.026 A 
ATOM      7  C6  NON d   1     -45.938  16.528  -3.380  0.00  0.00     0.024 A 
ATOM      8  C7  NON d   1     -46.570  16.487  -4.611  0.00  0.00     0.061 A 
ATOM      9  S1  NON d   1     -45.618  17.257  -5.810  0.00  0.00    -0.081 SA
BRANCH   8  10
ATOM     10  C8  NON d   1     -47.856  15.901  -5.004  0.00  0.00     0.272 C 
ATOM     11  O2  NON d   1     -48.190  15.754  -6.185  0.00  0.00    -0.282 OA
BRANCH  10  12
ATOM     12  C9  NON d   1     -48.776  15.468  -3.865  0.00  0.00     0.456 C 
ATOM     13  F1  NON d   1     -48.293  14.380  -3.200  0.00  0.00    -0.163 F 
ATOM     14  F2  NON d   1     -48.936  16.443  -2.923  0.00  0.00    -0.163 F 
ATOM     15  F3  NON d   1     -50.030  15.137  -4.277  0.00  0.00    -0.163 F 
ENDBRANCH  10  12
ENDBRANCH   8  10
ENDBRANCH   2   5
BRANCH   1  16
ATOM     16  C2  NON d   1     -40.754  18.328  -4.962  0.00  0.00     0.114 C 
ATOM     17  C1  NON d   1     -40.795  19.609  -3.998  0.00  0.00     0.037 C 
BRANCH  16  18
ATOM     18  C10 NON d   1     -40.394  19.144  -6.218  0.00  0.00    -0.036 A 
ATOM     19  C11 NON d   1     -39.833  18.435  -7.303  0.00  0.00     0.009 A 
ATOM     20  C12 NON d   1     -39.487  19.080  -8.494  0.00  0.00     0.001 A 
ATOM     21  C13 NON d   1     -39.735  20.439  -8.648  0.00  0.00     0.000 A 
ATOM     22  C14 NON d   1     -40.307  21.159  -7.604  0.00  0.00     0.001 A 
ATOM     23  C15 NON d   1     -40.617  20.523  -6.398  0.00  0.00     0.009 A 
ENDBRANCH  16  18
ENDBRANCH   1  16
TORSDOF 5
ENDMDL
MODEL 2
REMARK VINA RESULT:   -15.325      1.591      2.622
REMARK INTER + INTRA:         -17.442
REMARK INTER:                 -16.816
REMARK INTRA:                  -0.626
REMARK CONF_INDEPENDENT:        1.492
REMARK UNBOUND:                -0.626
REMARK  5 active torsions:
REMARK  status: ('A' for Active; 'I' for Inactive)
REMARK    1  A    between atoms: C2_2  and  N1_3 
REMARK    2  A    between atoms: C2_2  and  C10_17 
REMARK       I    between atoms: N1_3  and  C3_4 
REMARK    3  A    between atoms: C3_4  and  C4_6 
REMARK    4  A    between atoms: C7_9  and  C8_10 
REMARK    5  A    between atoms: C8_10  and  C9_12 
ROOT
ATOM      1  N1  NON d   1     -42.172  18.561  -4.430  0.00  0.00    -0.348 N 
ATOM      2  C3  NON d   1     -43.342  18.684  -5.179  0.00  0.00     0.259 C 
ATOM      3  O1  NON d   1     -43.478  19.506  -6.080  0.00  0.00    -0.267 OA
ATOM      4  H5  NON d   1     -42.196  17.864  -3.702  0.00  0.00     0.163 HD
ENDROOT
BRANCH   2   5
ATOM      5  C4  NON d   1     -44.429  17.838  -4.723  0.00  0.00     0.073 A 
ATOM      6  C5  NON d   1     -44.642  17.222  -3.511  0.00  0.00     0.026 A 
ATOM      7  C6  NON d   1     -45.884  16.504  -3.482  0.00  0.00     0.024 A 
ATOM      8  C7  NON d   1     -46.600  16.631  -4.660  0.00  0.00     0.061 A 
ATOM      9  S1  NON d   1     -45.721  17.549  -5.810  0.00  0.00    -0.081 SA
BRANCH   8  10
ATOM     10  C8  NON d   1     -47.918  16.112  -5.035  0.00  0.00     0.272 C 
ATOM     11  O2  NON d   1     -48.191  15.748  -6.185  0.00  0.00    -0.282 OA
BRANCH  10  12
ATOM     12  C9  NON d   1     -48.955  16.033  -3.917  0.00  0.00     0.456 C 
ATOM     13  F1  NON d   1     -49.824  14.997  -4.094  0.00  0.00    -0.163 F 
ATOM     14  F2  NON d   1     -48.388  15.841  -2.690  0.00  0.00    -0.163 F 
ATOM     15  F3  NON d   1     -49.718  17.155  -3.804  0.00  0.00    -0.163 F 
ENDBRANCH  10  12
ENDBRANCH   8  10
ENDBRANCH   2   5
BRANCH   1  16
ATOM     16  C2  NON d   1     -41.338  19.782  -4.029  0.00  0.00     0.114 C 
ATOM     17  C1  NON d   1     -40.792  20.667  -5.249  0.00  0.00     0.037 C 
BRANCH  16  18
ATOM     18  C10 NON d   1     -39.978  19.110  -3.760  0.00  0.00    -0.036 A 
ATOM     19  C11 NON d   1     -38.950  19.348  -4.697  0.00  0.00     0.009 A 
ATOM     20  C12 NON d   1     -37.675  18.798  -4.536  0.00  0.00     0.001 A 
ATOM     21  C13 NON d   1     -37.382  18.035  -3.411  0.00  0.00     0.000 A 
ATOM     22  C14 NON d   1     -38.369  17.802  -2.459  0.00  0.00     0.001 A 
ATOM     23  C15 NON d   1     -39.657  18.318  -2.640  0.00  0.00     0.009 A 
ENDBRANCH  16  18
ENDBRANCH   1  16
TORSDOF 5
ENDMDL
MODEL 3
REMARK VINA RESULT:   -15.132      2.223      3.424
REMARK INTER + INTRA:         -17.262
REMARK INTER:                 -16.623
REMARK INTRA:                  -0.638
REMARK CONF_INDEPENDENT:        1.492
REMARK UNBOUND:                -0.638
REMARK  5 active torsions:
REMARK  status: ('A' for Active; 'I' for Inactive)
REMARK    1  A    between atoms: C2_2  and  N1_3 
REMARK    2  A    between atoms: C2_2  and  C10_17 
REMARK       I    between atoms: N1_3  and  C3_4 
REMARK    3  A    between atoms: C3_4  and  C4_6 
REMARK    4  A    between atoms: C7_9  and  C8_10 
REMARK    5  A    between atoms: C8_10  and  C9_12 
ROOT
ATOM      1  N1  NON d   1     -44.132  17.806  -4.959  0.00  0.00    -0.348 N 
ATOM      2  C3  NON d   1     -45.418  17.715  -5.493  0.00  0.00     0.259 C 
ATOM      3  O1  NON d   1     -45.788  18.367  -6.464  0.00  0.00    -0.267 OA
ATOM      4  H5  NON d   1     -43.961  17.237  -4.144  0.00  0.00     0.163 HD
ENDROOT
BRANCH   2   5
ATOM      5  C4  NON d   1     -46.319  16.874  -4.727  0.00  0.00     0.073 A 
ATOM      6  C5  NON d   1     -46.204  16.354  -3.457  0.00  0.00     0.026 A 
ATOM      7  C6  NON d   1     -47.364  15.600  -3.077  0.00  0.00     0.024 A 
ATOM      8  C7  NON d   1     -48.346  15.605  -4.053  0.00  0.00     0.061 A 
ATOM      9  S1  NON d   1     -47.816  16.453  -5.446  0.00  0.00    -0.081 SA
BRANCH   8  10
ATOM     10  C8  NON d   1     -49.687  15.013  -4.060  0.00  0.00     0.272 C 
ATOM     11  O2  NON d   1     -50.062  14.217  -4.929  0.00  0.00    -0.282 OA
BRANCH  10  12
ATOM     12  C9  NON d   1     -50.613  15.427  -2.918  0.00  0.00     0.456 C 
ATOM     13  F1  NON d   1     -50.972  16.740  -2.998  0.00  0.00    -0.163 F 
ATOM     14  F2  NON d   1     -51.779  14.718  -2.908  0.00  0.00    -0.163 F 
ATOM     15  F3  NON d   1     -50.062  15.257  -1.684  0.00  0.00    -0.163 F 
ENDBRANCH  10  12
ENDBRANCH   8  10
ENDBRANCH   2   5
BRANCH   1  16
ATOM     16  C2  NON d   1     -43.374  19.135  -4.900  0.00  0.00     0.114 C 
ATOM     17  C1  NON d   1     -42.481  19.470  -6.189  0.00  0.00     0.037 C 
BRANCH  16  18
ATOM     18  C10 NON d   1     -42.169  18.728  -4.031  0.00  0.00    -0.036 A 
ATOM     19  C11 NON d   1     -41.085  19.630  -3.977  0.00  0.00     0.009 A 
ATOM     20  C12 NON d   1     -39.951  19.361  -3.205  0.00  0.00     0.001 A 
ATOM     21  C13 NON d   1     -39.892  18.207  -2.432  0.00  0.00     0.000 A 
ATOM     22  C14 NON d   1     -40.955  17.310  -2.448  0.00  0.00     0.001 A 
ATOM     23  C15 NON d   1     -42.073  17.558  -3.252  0.00  0.00     0.009 A 
ENDBRANCH  16  18
ENDBRANCH   1  16
TORSDOF 5
ENDMDL
MODEL 4
REMARK VINA RESULT:   -14.953      1.653      2.913
REMARK INTER + INTRA:         -17.145
REMARK INTER:                 -16.445
REMARK INTRA:                  -0.700
REMARK CONF_INDEPENDENT:        1.492
REMARK UNBOUND:                -0.700
REMARK  5 active torsions:
REMARK  status: ('A' for Active; 'I' for Inactive)
REMARK    1  A    between atoms: C2_2  and  N1_3 
REMARK    2  A    between atoms: C2_2  and  C10_17 
REMARK       I    between atoms: N1_3  and  C3_4 
REMARK    3  A    between atoms: C3_4  and  C4_6 
REMARK    4  A    between atoms: C7_9  and  C8_10 
REMARK    5  A    between atoms: C8_10  and  C9_12 
ROOT
ATOM      1  N1  NON d   1     -42.514  18.374  -4.265  0.00  0.00    -0.348 N 
ATOM      2  C3  NON d   1     -43.110  17.259  -4.855  0.00  0.00     0.259 C 
ATOM      3  O1  NON d   1     -42.567  16.593  -5.729  0.00  0.00    -0.267 OA
ATOM      4  H5  NON d   1     -43.076  18.851  -3.576  0.00  0.00     0.163 HD
ENDROOT
BRANCH   2   5
ATOM      5  C4  NON d   1     -44.479  17.026  -4.433  0.00  0.00     0.073 A 
ATOM      6  C5  NON d   1     -45.100  17.256  -3.226  0.00  0.00     0.026 A 
ATOM      7  C6  NON d   1     -46.492  16.910  -3.262  0.00  0.00     0.024 A 
ATOM      8  C7  NON d   1     -46.898  16.467  -4.508  0.00  0.00     0.061 A 
ATOM      9  S1  NON d   1     -45.572  16.399  -5.592  0.00  0.00    -0.081 SA
BRANCH   8  10
ATOM     10  C8  NON d   1     -48.223  16.065  -4.992  0.00  0.00     0.272 C 
ATOM     11  O2  NON d   1     -48.547  16.129  -6.183  0.00  0.00    -0.282 OA
BRANCH  10  12
ATOM     12  C9  NON d   1     -49.197  15.546  -3.937  0.00  0.00     0.456 C 
ATOM     13  F1  NON d   1     -50.030  14.587  -4.434  0.00  0.00    -0.163 F 
ATOM     14  F2  NON d   1     -48.560  14.975  -2.873  0.00  0.00    -0.163 F 
ATOM     15  F3  NON d   1     -49.999  16.515  -3.416  0.00  0.00    -0.163 F 
ENDBRANCH  10  12
ENDBRANCH   8  10
ENDBRANCH   2   5
BRANCH   1  16
ATOM     16  C2  NON d   1     -41.645  19.345  -5.068  0.00  0.00     0.114 C 
ATOM     17  C1  NON d   1     -40.232  18.759  -5.549  0.00  0.00     0.037 C 
BRANCH  16  18
ATOM     18  C10 NON d   1     -41.038  20.182  -3.926  0.00  0.00    -0.036 A 
ATOM     19  C11 NON d   1     -40.505  19.474  -2.828  0.00  0.00     0.009 A 
ATOM     20  C12 NON d   1     -39.917  20.139  -1.747  0.00  0.00     0.001 A 
ATOM     21  C13 NON d   1     -39.805  21.525  -1.760  0.00  0.00     0.000 A 
ATOM     22  C14 NON d   1     -40.301  22.248  -2.840  0.00  0.00     0.001 A 
ATOM     23  C15 NON d   1     -40.926  21.586  -3.902  0.00  0.00     0.009 A 
ENDBRANCH  16  18
ENDBRANCH   1  16
TORSDOF 5
ENDMDL
MODEL 5
REMARK VINA RESULT:   -13.256      3.929      8.988
REMARK INTER + INTRA:         -15.412
REMARK INTER:                 -14.748
REMARK INTRA:                  -0.664
REMARK CONF_INDEPENDENT:        1.492
REMARK UNBOUND:                -0.664
REMARK  5 active torsions:
REMARK  status: ('A' for Active; 'I' for Inactive)
REMARK    1  A    between atoms: C2_2  and  N1_3 
REMARK    2  A    between atoms: C2_2  and  C10_17 
REMARK       I    between atoms: N1_3  and  C3_4 
REMARK    3  A    between atoms: C3_4  and  C4_6 
REMARK    4  A    between atoms: C7_9  and  C8_10 
REMARK    5  A    between atoms: C8_10  and  C9_12 
ROOT
ATOM      1  N1  NON d   1     -48.585  16.109  -3.764  0.00  0.00    -0.348 N 
ATOM      2  C3  NON d   1     -47.651  16.052  -4.800  0.00  0.00     0.259 C 
ATOM      3  O1  NON d   1     -47.815  15.380  -5.812  0.00  0.00    -0.267 OA
ATOM      4  H5  NON d   1     -48.320  16.678  -2.975  0.00  0.00     0.163 HD
ENDROOT
BRANCH   2   5
ATOM      5  C4  NON d   1     -46.415  16.761  -4.523  0.00  0.00     0.073 A 
ATOM      6  C5  NON d   1     -45.663  16.842  -3.373  0.00  0.00     0.026 A 
ATOM      7  C6  NON d   1     -44.479  17.630  -3.560  0.00  0.00     0.024 A 
ATOM      8  C7  NON d   1     -44.343  18.090  -4.858  0.00  0.00     0.061 A 
ATOM      9  S1  NON d   1     -45.693  17.629  -5.810  0.00  0.00    -0.081 SA
BRANCH   8  10
ATOM     10  C8  NON d   1     -43.276  18.875  -5.486  0.00  0.00     0.272 C 
ATOM     11  O2  NON d   1     -43.503  19.795  -6.281  0.00  0.00    -0.282 OA
BRANCH  10  12
ATOM     12  C9  NON d   1     -41.848  18.502  -5.099  0.00  0.00     0.456 C 
ATOM     13  F1  NON d   1     -41.291  19.411  -4.249  0.00  0.00    -0.163 F 
ATOM     14  F2  NON d   1     -41.776  17.297  -4.461  0.00  0.00    -0.163 F 
ATOM     15  F3  NON d   1     -41.004  18.410  -6.164  0.00  0.00    -0.163 F 
ENDBRANCH  10  12
ENDBRANCH   8  10
ENDBRANCH   2   5
BRANCH   1  16
ATOM     16  C2  NON d   1     -49.396  14.882  -3.340  0.00  0.00     0.114 C 
ATOM     17  C1  NON d   1     -50.135  14.106  -4.534  0.00  0.00     0.037 C 
BRANCH  16  18
ATOM     18  C10 NON d   1     -50.683  15.563  -2.836  0.00  0.00    -0.036 A 
ATOM     19  C11 NON d   1     -50.559  16.880  -2.344  0.00  0.00     0.009 A 
ATOM     20  C12 NON d   1     -51.669  17.591  -1.877  0.00  0.00     0.001 A 
ATOM     21  C13 NON d   1     -52.936  17.021  -1.935  0.00  0.00     0.000 A 
ATOM     22  C14 NON d   1     -53.091  15.732  -2.435  0.00  0.00     0.001 A 
ATOM     23  C15 NON d   1     -51.976  15.005  -2.864  0.00  0.00     0.009 A 
ENDBRANCH  16  18
ENDBRANCH   1  16
TORSDOF 5
ENDMDL
