MODEL 1
REMARK VINA RESULT:   -15.273      0.000      0.000
REMARK INTER + INTRA:         -19.545
REMARK INTER:                 -17.361
REMARK INTRA:                  -2.184
REMARK CONF_INDEPENDENT:        2.088
REMARK UNBOUND:                -2.184
REMARK  7 active torsions:
REMARK  status: ('A' for Active; 'I' for Inactive)
REMARK    1  A    between atoms: O1_2  and  P1_3 
REMARK    2  A    between atoms: P1_3  and  C2_5 
REMARK    3  A    between atoms: P1_3  and  C8_11 
REMARK    4  A    between atoms: C11_14  and  C12_15 
REMARK       I    between atoms: C12_15  and  N1_17 
REMARK    5  A    between atoms: N1_17  and  C13_18 
REMARK    6  A    between atoms: C15_20  and  C16_21 
REMARK    7  A    between atoms: C22_28  and  N2_29 
ROOT
ATOM      1  C12 NON d   1     -40.615  19.728  -6.528  0.00  0.00     0.256 C 
ATOM      2  O3  NON d   1     -39.676  19.032  -6.155  0.00  0.00    -0.267 OA
ATOM      3  N1  NON d   1     -41.934  19.520  -6.138  0.00  0.00    -0.321 N 
ATOM      4  H11 NON d   1     -42.662  19.939  -6.692  0.00  0.00     0.169 HD
ENDROOT
BRANCH   1   5
ATOM      5  C11 NON d   1     -40.276  20.830  -7.488  0.00  0.00     0.032 A 
ATOM      6  C10 NON d   1     -40.281  22.188  -7.219  0.00  0.00     0.018 A 
ATOM      7  C9  NON d   1     -39.958  23.117  -8.250  0.00  0.00     0.019 A 
ATOM      8  C8  NON d   1     -39.683  22.832  -9.639  0.00  0.00     0.034 A 
ATOM      9  C24 NON d   1     -39.668  21.415  -9.792  0.00  0.00     0.019 A 
ATOM     10  C23 NON d   1     -39.918  20.460  -8.781  0.00  0.00     0.018 A 
BRANCH   8  11
ATOM     11  P1  NON d   1     -39.479  23.866 -10.762  0.00  0.00     0.260 P 
ATOM     12  O2  NON d   1     -39.850  24.999  -9.786  0.00  0.00    -0.281 OA
BRANCH  11  13
ATOM     13  O1  NON d   1     -39.108  22.734 -11.738  0.00  0.00    -0.332 OA
ATOM     14  C1  NON d   1     -39.911  22.473 -12.888  0.00  0.00     0.211 C 
ENDBRANCH  11  13
BRANCH  11  15
ATOM     15  C2  NON d   1     -39.275  24.901 -11.885  0.00  0.00     0.034 A 
ATOM     16  C3  NON d   1     -38.025  25.168 -12.507  0.00  0.00     0.017 A 
ATOM     17  C4  NON d   1     -37.824  26.150 -13.490  0.00  0.00     0.001 A 
ATOM     18  C5  NON d   1     -38.897  26.881 -13.971  0.00  0.00     0.000 A 
ATOM     19  C6  NON d   1     -40.153  26.655 -13.435  0.00  0.00     0.001 A 
ATOM     20  C7  NON d   1     -40.316  25.724 -12.398  0.00  0.00     0.017 A 
ENDBRANCH  11  15
ENDBRANCH   8  11
ENDBRANCH   1   5
BRANCH   3  21
ATOM     21  C13 NON d   1     -42.377  18.606  -5.116  0.00  0.00     0.057 A 
ATOM     22  C14 NON d   1     -43.740  18.216  -5.146  0.00  0.00     0.044 A 
ATOM     23  C15 NON d   1     -44.302  17.323  -4.200  0.00  0.00    -0.017 A 
ATOM     24  C20 NON d   1     -43.456  16.859  -3.185  0.00  0.00     0.014 A 
ATOM     25  C21 NON d   1     -42.125  17.260  -3.112  0.00  0.00     0.026 A 
ATOM     26  C22 NON d   1     -41.558  18.101  -4.077  0.00  0.00     0.033 A 
BRANCH  23  27
ATOM     27  C16 NON d   1     -45.730  16.900  -4.258  0.00  0.00     0.015 A 
ATOM     28  C17 NON d   1     -46.685  16.842  -3.252  0.00  0.00     0.020 A 
ATOM     29  C18 NON d   1     -47.958  16.364  -3.695  0.00  0.00     0.008 A 
ATOM     30  C19 NON d   1     -47.957  16.067  -5.035  0.00  0.00     0.050 A 
ATOM     31  S1  NON d   1     -46.445  16.375  -5.748  0.00  0.00    -0.101 SA
ENDBRANCH  23  27
BRANCH  26  32
ATOM     32  N2  NON d   1     -40.272  18.602  -3.777  0.00  0.00    -0.301 NA
ATOM     33  H18 NON d   1     -40.197  19.570  -4.097  0.00  0.00     0.124 HD
ATOM     34  H19 NON d   1     -39.531  18.062  -4.204  0.00  0.00     0.124 HD
ENDBRANCH  26  32
ENDBRANCH   3  21
TORSDOF 7
ENDMDL
MODEL 2
REMARK VINA RESULT:   -14.742      1.141      1.460
REMARK INTER + INTRA:         -19.069
REMARK INTER:                 -16.830
REMARK INTRA:                  -2.239
REMARK CONF_INDEPENDENT:        2.088
REMARK UNBOUND:                -2.239
REMARK  7 active torsions:
REMARK  status: ('A' for Active; 'I' for Inactive)
REMARK    1  A    between atoms: O1_2  and  P1_3 
REMARK    2  A    between atoms: P1_3  and  C2_5 
REMARK    3  A    between atoms: P1_3  and  C8_11 
REMARK    4  A    between atoms: C11_14  and  C12_15 
REMARK       I    between atoms: C12_15  and  N1_17 
REMARK    5  A    between atoms: N1_17  and  C13_18 
REMARK    6  A    between atoms: C15_20  and  C16_21 
REMARK    7  A    between atoms: C22_28  and  N2_29 
ROOT
ATOM      1  C12 NON d   1     -40.687  20.392  -5.974  0.00  0.00     0.256 C 
ATOM      2  O3  NON d   1     -40.210  20.805  -4.922  0.00  0.00    -0.267 OA
ATOM      3  N1  NON d   1     -41.533  19.291  -6.061  0.00  0.00    -0.321 N 
ATOM      4  H11 NON d   1     -41.650  18.854  -6.960  0.00  0.00     0.169 HD
ENDROOT
BRANCH   1   5
ATOM      5  C11 NON d   1     -40.277  21.127  -7.216  0.00  0.00     0.032 A 
ATOM      6  C10 NON d   1     -39.938  22.467  -7.308  0.00  0.00     0.018 A 
ATOM      7  C9  NON d   1     -39.592  23.026  -8.572  0.00  0.00     0.019 A 
ATOM      8  C8  NON d   1     -39.618  22.376  -9.861  0.00  0.00     0.034 A 
ATOM      9  C24 NON d   1     -39.941  21.005  -9.644  0.00  0.00     0.019 A 
ATOM     10  C23 NON d   1     -40.225  20.398  -8.400  0.00  0.00     0.018 A 
BRANCH   8  11
ATOM     11  P1  NON d   1     -39.378  23.044 -11.228  0.00  0.00     0.260 P 
ATOM     12  O2  NON d   1     -40.232  24.249 -10.788  0.00  0.00    -0.281 OA
BRANCH  11  13
ATOM     13  O1  NON d   1     -38.524  21.840 -11.667  0.00  0.00    -0.332 OA
ATOM     14  C1  NON d   1     -37.228  21.626 -11.110  0.00  0.00     0.211 C 
ENDBRANCH  11  13
BRANCH  11  15
ATOM     15  C2  NON d   1     -39.138  23.713 -12.595  0.00  0.00     0.034 A 
ATOM     16  C3  NON d   1     -40.121  23.817 -13.617  0.00  0.00     0.017 A 
ATOM     17  C4  NON d   1     -39.890  24.373 -14.884  0.00  0.00     0.001 A 
ATOM     18  C5  NON d   1     -38.662  24.939 -15.180  0.00  0.00     0.000 A 
ATOM     19  C6  NON d   1     -37.662  24.906 -14.223  0.00  0.00     0.001 A 
ATOM     20  C7  NON d   1     -37.892  24.273 -12.991  0.00  0.00     0.017 A 
ENDBRANCH  11  15
ENDBRANCH   8  11
ENDBRANCH   1   5
BRANCH   3  21
ATOM     21  C13 NON d   1     -42.124  18.593  -4.948  0.00  0.00     0.057 A 
ATOM     22  C14 NON d   1     -43.485  18.215  -5.072  0.00  0.00     0.044 A 
ATOM     23  C15 NON d   1     -44.184  17.523  -4.051  0.00  0.00    -0.017 A 
ATOM     24  C20 NON d   1     -43.481  17.255  -2.871  0.00  0.00     0.014 A 
ATOM     25  C21 NON d   1     -42.156  17.652  -2.710  0.00  0.00     0.026 A 
ATOM     26  C22 NON d   1     -41.451  18.288  -3.739  0.00  0.00     0.033 A 
BRANCH  23  27
ATOM     27  C16 NON d   1     -45.608  17.108  -4.205  0.00  0.00     0.015 A 
ATOM     28  C17 NON d   1     -46.579  16.880  -3.240  0.00  0.00     0.020 A 
ATOM     29  C18 NON d   1     -47.840  16.475  -3.780  0.00  0.00     0.008 A 
ATOM     30  C19 NON d   1     -47.814  16.403  -5.150  0.00  0.00     0.050 A 
ATOM     31  S1  NON d   1     -46.292  16.833  -5.774  0.00  0.00    -0.101 SA
ENDBRANCH  23  27
BRANCH  26  32
ATOM     32  N2  NON d   1     -40.196  18.827  -3.382  0.00  0.00    -0.301 NA
ATOM     33  H18 NON d   1     -40.321  19.769  -3.004  0.00  0.00     0.124 HD
ATOM     34  H19 NON d   1     -39.554  18.875  -4.162  0.00  0.00     0.124 HD
ENDBRANCH  26  32
ENDBRANCH   3  21
TORSDOF 7
ENDMDL
MODEL 3
REMARK VINA RESULT:   -13.753      8.561     14.427
REMARK INTER + INTRA:         -17.807
REMARK INTER:                 -15.841
REMARK INTRA:                  -1.965
REMARK CONF_INDEPENDENT:        2.088
REMARK UNBOUND:                -1.965
REMARK  7 active torsions:
REMARK  status: ('A' for Active; 'I' for Inactive)
REMARK    1  A    between atoms: O1_2  and  P1_3 
REMARK    2  A    between atoms: P1_3  and  C2_5 
REMARK    3  A    between atoms: P1_3  and  C8_11 
REMARK    4  A    between atoms: C11_14  and  C12_15 
REMARK       I    between atoms: C12_15  and  N1_17 
REMARK    5  A    between atoms: N1_17  and  C13_18 
REMARK    6  A    between atoms: C15_20  and  C16_21 
REMARK    7  A    between atoms: C22_28  and  N2_29 
ROOT
ATOM      1  C12 NON d   1     -48.273  16.439  -3.099  0.00  0.00     0.256 C 
ATOM      2  O3  NON d   1     -48.425  15.484  -3.854  0.00  0.00    -0.267 OA
ATOM      3  N1  NON d   1     -47.071  17.122  -2.947  0.00  0.00    -0.321 N 
ATOM      4  H11 NON d   1     -46.950  17.691  -2.126  0.00  0.00     0.169 HD
ENDROOT
BRANCH   1   5
ATOM      5  C11 NON d   1     -49.471  16.831  -2.285  0.00  0.00     0.032 A 
ATOM      6  C10 NON d   1     -49.463  17.323  -0.991  0.00  0.00     0.018 A 
ATOM      7  C9  NON d   1     -50.694  17.628  -0.340  0.00  0.00     0.019 A 
ATOM      8  C8  NON d   1     -52.032  17.415  -0.841  0.00  0.00     0.034 A 
ATOM      9  C24 NON d   1     -51.920  16.946  -2.182  0.00  0.00     0.019 A 
ATOM     10  C23 NON d   1     -50.720  16.694  -2.884  0.00  0.00     0.018 A 
BRANCH   8  11
ATOM     11  P1  NON d   1     -53.344  17.620  -0.060  0.00  0.00     0.260 P 
ATOM     12  O2  NON d   1     -52.553  18.246   1.105  0.00  0.00    -0.281 OA
BRANCH  11  13
ATOM     13  O1  NON d   1     -54.135  16.994  -1.224  0.00  0.00    -0.332 OA
ATOM     14  C1  NON d   1     -54.933  17.809  -2.081  0.00  0.00     0.211 C 
ENDBRANCH  11  13
BRANCH  11  15
ATOM     15  C2  NON d   1     -54.655  17.825   0.721  0.00  0.00     0.034 A 
ATOM     16  C3  NON d   1     -55.513  18.948   0.562  0.00  0.00     0.017 A 
ATOM     17  C4  NON d   1     -56.679  19.167   1.313  0.00  0.00     0.001 A 
ATOM     18  C5  NON d   1     -57.103  18.220   2.228  0.00  0.00     0.000 A 
ATOM     19  C6  NON d   1     -56.337  17.082   2.417  0.00  0.00     0.001 A 
ATOM     20  C7  NON d   1     -55.133  16.923   1.712  0.00  0.00     0.017 A 
ENDBRANCH  11  15
ENDBRANCH   8  11
ENDBRANCH   1   5
BRANCH   3  21
ATOM     21  C13 NON d   1     -45.896  16.952  -3.765  0.00  0.00     0.057 A 
ATOM     22  C14 NON d   1     -44.666  17.414  -3.232  0.00  0.00     0.044 A 
ATOM     23  C15 NON d   1     -43.439  17.307  -3.933  0.00  0.00    -0.017 A 
ATOM     24  C20 NON d   1     -43.489  16.753  -5.218  0.00  0.00     0.014 A 
ATOM     25  C21 NON d   1     -44.691  16.329  -5.778  0.00  0.00     0.026 A 
ATOM     26  C22 NON d   1     -45.894  16.388  -5.064  0.00  0.00     0.033 A 
BRANCH  23  27
ATOM     27  C16 NON d   1     -42.148  17.773  -3.350  0.00  0.00     0.015 A 
ATOM     28  C17 NON d   1     -41.782  17.954  -2.023  0.00  0.00     0.020 A 
ATOM     29  C18 NON d   1     -40.445  18.434  -1.858  0.00  0.00     0.008 A 
ATOM     30  C19 NON d   1     -39.809  18.610  -3.061  0.00  0.00     0.050 A 
ATOM     31  S1  NON d   1     -40.808  18.187  -4.369  0.00  0.00    -0.101 SA
ENDBRANCH  23  27
BRANCH  26  32
ATOM     32  N2  NON d   1     -47.065  16.131  -5.810  0.00  0.00    -0.301 NA
ATOM     33  H18 NON d   1     -47.819  16.740  -5.487  0.00  0.00     0.124 HD
ATOM     34  H19 NON d   1     -47.372  15.170  -5.740  0.00  0.00     0.124 HD
ENDBRANCH  26  32
ENDBRANCH   3  21
TORSDOF 7
ENDMDL
