MODEL 1
REMARK VINA RESULT:   -16.708      0.000      0.000
REMARK INTER + INTRA:         -21.096
REMARK INTER:                 -19.392
REMARK INTRA:                  -1.703
REMARK CONF_INDEPENDENT:        2.685
REMARK UNBOUND:                -1.703
REMARK  9 active torsions:
REMARK  status: ('A' for Active; 'I' for Inactive)
REMARK    1  A    between atoms: C5_5  and  C6_6 
REMARK       I    between atoms: C6_6  and  N1_8 
REMARK    2  A    between atoms: N1_8  and  O2_9 
REMARK    3  A    between atoms: O2_9  and  C7_10 
REMARK    4  A    between atoms: C7_10  and  C8_11 
REMARK    5  A    between atoms: C8_11  and  C9_12 
REMARK    6  A    between atoms: C9_12  and  C10_13 
REMARK    7  A    between atoms: C10_13  and  C11_14 
REMARK    8  A    between atoms: C11_14  and  C12_15 
REMARK       I    between atoms: C12_15  and  N2_17 
REMARK    9  A    between atoms: N2_17  and  O4_18 
ROOT
ATOM      1  C6  NON d   1     -44.650  17.176  -4.480  0.00  0.00     0.275 C 
ATOM      2  O1  NON d   1     -45.180  16.774  -5.513  0.00  0.00    -0.265 OA
ATOM      3  N1  NON d   1     -45.191  17.017  -3.223  0.00  0.00    -0.231 N 
ATOM      4  H6  NON d   1     -44.756  17.285  -2.353  0.00  0.00     0.197 HD
ENDROOT
BRANCH   3   5
ATOM      5  O2  NON d   1     -46.506  16.496  -3.187  0.00  0.00    -0.277 OA
BRANCH   5   6
ATOM      6  C7  NON d   1     -47.386  17.337  -2.436  0.00  0.00     0.201 C 
BRANCH   6   7
ATOM      7  C8  NON d   1     -48.305  16.504  -1.539  0.00  0.00     0.029 C 
BRANCH   7   8
ATOM      8  C9  NON d   1     -49.690  16.292  -2.156  0.00  0.00     0.003 C 
BRANCH   8   9
ATOM      9  C10 NON d   1     -49.688  16.210  -3.687  0.00  0.00     0.009 C 
BRANCH   9  10
ATOM     10  C11 NON d   1     -48.708  15.195  -4.279  0.00  0.00     0.105 C 
BRANCH  10  11
ATOM     11  C12 NON d   1     -47.806  15.716  -5.384  0.00  0.00     0.240 C 
ATOM     12  O3  NON d   1     -47.119  15.006  -6.108  0.00  0.00    -0.271 OA
ATOM     13  N2  NON d   1     -47.799  17.097  -5.428  0.00  0.00    -0.237 N 
ATOM     14  H17 NON d   1     -48.528  17.660  -5.004  0.00  0.00     0.197 HD
BRANCH  13  15
ATOM     15  O4  NON d   1     -47.119  17.688  -6.513  0.00  0.00    -0.287 OA
ATOM     16  H18 NON d   1     -46.796  16.908  -7.005  0.00  0.00     0.244 HD
ENDBRANCH  13  15
ENDBRANCH  10  11
ENDBRANCH   9  10
ENDBRANCH   8   9
ENDBRANCH   7   8
ENDBRANCH   6   7
ENDBRANCH   5   6
ENDBRANCH   3   5
BRANCH   1  17
ATOM     17  C5  NON d   1     -43.343  17.907  -4.575  0.00  0.00     0.034 A 
ATOM     18  C4  NON d   1     -43.266  19.010  -5.432  0.00  0.00     0.017 A 
ATOM     19  C3  NON d   1     -42.108  19.791  -5.490  0.00  0.00     0.008 A 
ATOM     20  C2  NON d   1     -40.991  19.488  -4.698  0.00  0.00    -0.056 A 
ATOM     21  C1  NON d   1     -39.793  20.397  -4.748  0.00  0.00     0.049 C 
ATOM     22  C14 NON d   1     -41.025  18.344  -3.880  0.00  0.00    -0.055 A 
ATOM     23  C13 NON d   1     -42.220  17.586  -3.802  0.00  0.00     0.024 A 
ATOM     24  C15 NON d   1     -39.849  17.943  -2.970  0.00  0.00     0.049 C 
ENDBRANCH   1  17
TORSDOF 9
ENDMDL
MODEL 2
REMARK VINA RESULT:   -14.499      2.874      3.895
REMARK INTER + INTRA:         -18.548
REMARK INTER:                 -17.184
REMARK INTRA:                  -1.365
REMARK CONF_INDEPENDENT:        2.685
REMARK UNBOUND:                -1.365
REMARK  9 active torsions:
REMARK  status: ('A' for Active; 'I' for Inactive)
REMARK    1  A    between atoms: C5_5  and  C6_6 
REMARK       I    between atoms: C6_6  and  N1_8 
REMARK    2  A    between atoms: N1_8  and  O2_9 
REMARK    3  A    between atoms: O2_9  and  C7_10 
REMARK    4  A    between atoms: C7_10  and  C8_11 
REMARK    5  A    between atoms: C8_11  and  C9_12 
REMARK    6  A    between atoms: C9_12  and  C10_13 
REMARK    7  A    between atoms: C10_13  and  C11_14 
REMARK    8  A    between atoms: C11_14  and  C12_15 
REMARK       I    between atoms: C12_15  and  N2_17 
REMARK    9  A    between atoms: N2_17  and  O4_18 
ROOT
ATOM      1  C6  NON d   1     -45.815  17.211  -5.559  0.00  0.00     0.275 C 
ATOM      2  O1  NON d   1     -46.314  18.006  -6.352  0.00  0.00    -0.265 OA
ATOM      3  N1  NON d   1     -46.350  15.977  -5.263  0.00  0.00    -0.231 N 
ATOM      4  H6  NON d   1     -45.936  15.281  -4.661  0.00  0.00     0.197 HD
ENDROOT
BRANCH   3   5
ATOM      5  O2  NON d   1     -47.629  15.720  -5.810  0.00  0.00    -0.277 OA
BRANCH   5   6
ATOM      6  C7  NON d   1     -48.563  15.323  -4.803  0.00  0.00     0.201 C 
BRANCH   6   7
ATOM      7  C8  NON d   1     -47.952  15.462  -3.406  0.00  0.00     0.029 C 
BRANCH   7   8
ATOM      8  C9  NON d   1     -48.553  16.627  -2.617  0.00  0.00     0.003 C 
BRANCH   8   9
ATOM      9  C10 NON d   1     -49.867  16.288  -1.904  0.00  0.00     0.009 C 
BRANCH   9  10
ATOM     10  C11 NON d   1     -51.130  16.490  -2.743  0.00  0.00     0.105 C 
BRANCH  10  11
ATOM     11  C12 NON d   1     -52.279  17.199  -2.048  0.00  0.00     0.240 C 
ATOM     12  O3  NON d   1     -52.154  17.911  -1.059  0.00  0.00    -0.271 OA
ATOM     13  N2  NON d   1     -53.494  16.888  -2.625  0.00  0.00    -0.237 N 
ATOM     14  H17 NON d   1     -53.572  16.505  -3.560  0.00  0.00     0.197 HD
BRANCH  13  15
ATOM     15  O4  NON d   1     -54.613  17.610  -2.161  0.00  0.00    -0.287 OA
ATOM     16  H18 NON d   1     -54.271  18.020  -1.342  0.00  0.00     0.244 HD
ENDBRANCH  13  15
ENDBRANCH  10  11
ENDBRANCH   9  10
ENDBRANCH   8   9
ENDBRANCH   7   8
ENDBRANCH   6   7
ENDBRANCH   5   6
ENDBRANCH   3   5
BRANCH   1  17
ATOM     17  C5  NON d   1     -44.556  17.601  -4.840  0.00  0.00     0.034 A 
ATOM     18  C4  NON d   1     -44.091  16.759  -3.825  0.00  0.00     0.017 A 
ATOM     19  C3  NON d   1     -42.874  17.015  -3.185  0.00  0.00     0.008 A 
ATOM     20  C2  NON d   1     -42.091  18.125  -3.538  0.00  0.00    -0.056 A 
ATOM     21  C1  NON d   1     -40.759  18.321  -2.867  0.00  0.00     0.049 C 
ATOM     22  C14 NON d   1     -42.576  19.020  -4.509  0.00  0.00    -0.055 A 
ATOM     23  C13 NON d   1     -43.790  18.725  -5.176  0.00  0.00     0.024 A 
ATOM     24  C15 NON d   1     -41.778  20.257  -4.964  0.00  0.00     0.049 C 
ENDBRANCH   1  17
TORSDOF 9
ENDMDL
MODEL 3
REMARK VINA RESULT:   -14.276      1.403      2.038
REMARK INTER + INTRA:         -18.698
REMARK INTER:                 -16.961
REMARK INTRA:                  -1.737
REMARK CONF_INDEPENDENT:        2.685
REMARK UNBOUND:                -1.737
REMARK  9 active torsions:
REMARK  status: ('A' for Active; 'I' for Inactive)
REMARK    1  A    between atoms: C5_5  and  C6_6 
REMARK       I    between atoms: C6_6  and  N1_8 
REMARK    2  A    between atoms: N1_8  and  O2_9 
REMARK    3  A    between atoms: O2_9  and  C7_10 
REMARK    4  A    between atoms: C7_10  and  C8_11 
REMARK    5  A    between atoms: C8_11  and  C9_12 
REMARK    6  A    between atoms: C9_12  and  C10_13 
REMARK    7  A    between atoms: C10_13  and  C11_14 
REMARK    8  A    between atoms: C11_14  and  C12_15 
REMARK       I    between atoms: C12_15  and  N2_17 
REMARK    9  A    between atoms: N2_17  and  O4_18 
ROOT
ATOM      1  C6  NON d   1     -42.873  17.903  -4.413  0.00  0.00     0.275 C 
ATOM      2  O1  NON d   1     -42.509  16.965  -3.708  0.00  0.00    -0.265 OA
ATOM      3  N1  NON d   1     -44.106  17.974  -5.025  0.00  0.00    -0.231 N 
ATOM      4  H6  NON d   1     -44.455  18.753  -5.563  0.00  0.00     0.197 HD
ENDROOT
BRANCH   3   5
ATOM      5  O2  NON d   1     -44.900  16.807  -4.935  0.00  0.00    -0.277 OA
BRANCH   5   6
ATOM      6  C7  NON d   1     -45.241  16.505  -3.580  0.00  0.00     0.201 C 
BRANCH   6   7
ATOM      7  C8  NON d   1     -46.558  17.179  -3.185  0.00  0.00     0.029 C 
BRANCH   7   8
ATOM      8  C9  NON d   1     -47.583  16.184  -2.634  0.00  0.00     0.003 C 
BRANCH   8   9
ATOM      9  C10 NON d   1     -48.853  16.059  -3.483  0.00  0.00     0.009 C 
BRANCH   9  10
ATOM     10  C11 NON d   1     -48.659  15.382  -4.841  0.00  0.00     0.105 C 
BRANCH  10  11
ATOM     11  C12 NON d   1     -47.479  15.872  -5.661  0.00  0.00     0.240 C 
ATOM     12  O3  NON d   1     -46.643  15.140  -6.175  0.00  0.00    -0.271 OA
ATOM     13  N2  NON d   1     -47.422  17.252  -5.698  0.00  0.00    -0.237 N 
ATOM     14  H17 NON d   1     -48.222  17.837  -5.484  0.00  0.00     0.197 HD
BRANCH  13  15
ATOM     15  O4  NON d   1     -46.458  17.818  -6.558  0.00  0.00    -0.287 OA
ATOM     16  H18 NON d   1     -45.945  17.035  -6.839  0.00  0.00     0.244 HD
ENDBRANCH  13  15
ENDBRANCH  10  11
ENDBRANCH   9  10
ENDBRANCH   8   9
ENDBRANCH   7   8
ENDBRANCH   6   7
ENDBRANCH   5   6
ENDBRANCH   3   5
BRANCH   1  17
ATOM     17  C5  NON d   1     -41.923  19.039  -4.653  0.00  0.00     0.034 A 
ATOM     18  C4  NON d   1     -41.788  19.518  -5.960  0.00  0.00     0.017 A 
ATOM     19  C3  NON d   1     -40.994  20.637  -6.233  0.00  0.00     0.008 A 
ATOM     20  C2  NON d   1     -40.309  21.304  -5.208  0.00  0.00    -0.056 A 
ATOM     21  C1  NON d   1     -39.521  22.542  -5.542  0.00  0.00     0.049 C 
ATOM     22  C14 NON d   1     -40.378  20.797  -3.898  0.00  0.00    -0.055 A 
ATOM     23  C13 NON d   1     -41.219  19.687  -3.631  0.00  0.00     0.024 A 
ATOM     24  C15 NON d   1     -39.666  21.472  -2.711  0.00  0.00     0.049 C 
ENDBRANCH   1  17
TORSDOF 9
ENDMDL
MODEL 4
REMARK VINA RESULT:   -14.056      4.904      6.537
REMARK INTER + INTRA:         -17.906
REMARK INTER:                 -16.741
REMARK INTRA:                  -1.165
REMARK CONF_INDEPENDENT:        2.685
REMARK UNBOUND:                -1.165
REMARK  9 active torsions:
REMARK  status: ('A' for Active; 'I' for Inactive)
REMARK    1  A    between atoms: C5_5  and  C6_6 
REMARK       I    between atoms: C6_6  and  N1_8 
REMARK    2  A    between atoms: N1_8  and  O2_9 
REMARK    3  A    between atoms: O2_9  and  C7_10 
REMARK    4  A    between atoms: C7_10  and  C8_11 
REMARK    5  A    between atoms: C8_11  and  C9_12 
REMARK    6  A    between atoms: C9_12  and  C10_13 
REMARK    7  A    between atoms: C10_13  and  C11_14 
REMARK    8  A    between atoms: C11_14  and  C12_15 
REMARK       I    between atoms: C12_15  and  N2_17 
REMARK    9  A    between atoms: N2_17  and  O4_18 
ROOT
ATOM      1  C6  NON d   1     -40.251  21.536  -2.026  0.00  0.00     0.275 C 
ATOM      2  O1  NON d   1     -40.442  22.055  -3.123  0.00  0.00    -0.265 OA
ATOM      3  N1  NON d   1     -39.934  20.208  -1.845  0.00  0.00    -0.231 N 
ATOM      4  H6  NON d   1     -39.718  19.765  -0.965  0.00  0.00     0.197 HD
ENDROOT
BRANCH   3   5
ATOM      5  O2  NON d   1     -39.997  19.402  -3.007  0.00  0.00    -0.277 OA
BRANCH   5   6
ATOM      6  C7  NON d   1     -40.747  18.207  -2.779  0.00  0.00     0.201 C 
BRANCH   6   7
ATOM      7  C8  NON d   1     -41.325  17.666  -4.090  0.00  0.00     0.029 C 
BRANCH   7   8
ATOM      8  C9  NON d   1     -42.791  18.058  -4.290  0.00  0.00     0.003 C 
BRANCH   8   9
ATOM      9  C10 NON d   1     -43.774  16.888  -4.167  0.00  0.00     0.009 C 
BRANCH   9  10
ATOM     10  C11 NON d   1     -45.246  17.288  -4.057  0.00  0.00     0.105 C 
BRANCH  10  11
ATOM     11  C12 NON d   1     -46.120  16.924  -5.244  0.00  0.00     0.240 C 
ATOM     12  O3  NON d   1     -46.322  17.656  -6.204  0.00  0.00    -0.271 OA
ATOM     13  N2  NON d   1     -46.717  15.689  -5.078  0.00  0.00    -0.237 N 
ATOM     14  H17 NON d   1     -46.372  15.001  -4.419  0.00  0.00     0.197 HD
BRANCH  13  15
ATOM     15  O4  NON d   1     -47.426  15.179  -6.185  0.00  0.00    -0.287 OA
ATOM     16  H18 NON d   1     -47.081  15.723  -6.920  0.00  0.00     0.244 HD
ENDBRANCH  13  15
ENDBRANCH  10  11
ENDBRANCH   9  10
ENDBRANCH   8   9
ENDBRANCH   7   8
ENDBRANCH   6   7
ENDBRANCH   5   6
ENDBRANCH   3   5
BRANCH   1  17
ATOM     17  C5  NON d   1     -40.391  22.380  -0.792  0.00  0.00     0.034 A 
ATOM     18  C4  NON d   1     -39.877  21.880   0.408  0.00  0.00     0.017 A 
ATOM     19  C3  NON d   1     -39.888  22.658   1.570  0.00  0.00     0.008 A 
ATOM     20  C2  NON d   1     -40.419  23.957   1.566  0.00  0.00    -0.056 A 
ATOM     21  C1  NON d   1     -40.348  24.778   2.824  0.00  0.00     0.049 C 
ATOM     22  C14 NON d   1     -41.001  24.451   0.384  0.00  0.00    -0.055 A 
ATOM     23  C13 NON d   1     -40.946  23.666  -0.794  0.00  0.00     0.024 A 
ATOM     24  C15 NON d   1     -41.598  25.867   0.287  0.00  0.00     0.049 C 
ENDBRANCH   1  17
TORSDOF 9
ENDMDL
MODEL 5
REMARK VINA RESULT:   -13.888      4.446      6.031
REMARK INTER + INTRA:         -17.846
REMARK INTER:                 -16.573
REMARK INTRA:                  -1.274
REMARK CONF_INDEPENDENT:        2.685
REMARK UNBOUND:                -1.274
REMARK  9 active torsions:
REMARK  status: ('A' for Active; 'I' for Inactive)
REMARK    1  A    between atoms: C5_5  and  C6_6 
REMARK       I    between atoms: C6_6  and  N1_8 
REMARK    2  A    between atoms: N1_8  and  O2_9 
REMARK    3  A    between atoms: O2_9  and  C7_10 
REMARK    4  A    between atoms: C7_10  and  C8_11 
REMARK    5  A    between atoms: C8_11  and  C9_12 
REMARK    6  A    between atoms: C9_12  and  C10_13 
REMARK    7  A    between atoms: C10_13  and  C11_14 
REMARK    8  A    between atoms: C11_14  and  C12_15 
REMARK       I    between atoms: C12_15  and  N2_17 
REMARK    9  A    between atoms: N2_17  and  O4_18 
ROOT
ATOM      1  C6  NON d   1     -39.920  20.491  -2.200  0.00  0.00     0.275 C 
ATOM      2  O1  NON d   1     -40.708  20.815  -3.085  0.00  0.00    -0.265 OA
ATOM      3  N1  NON d   1     -39.278  19.273  -2.146  0.00  0.00    -0.231 N 
ATOM      4  H6  NON d   1     -38.586  18.998  -1.466  0.00  0.00     0.197 HD
ENDROOT
BRANCH   3   5
ATOM      5  O2  NON d   1     -39.703  18.317  -3.099  0.00  0.00    -0.277 OA
BRANCH   5   6
ATOM      6  C7  NON d   1     -40.672  17.420  -2.551  0.00  0.00     0.201 C 
BRANCH   6   7
ATOM      7  C8  NON d   1     -42.080  18.014  -2.643  0.00  0.00     0.029 C 
BRANCH   7   8
ATOM      8  C9  NON d   1     -42.630  17.998  -4.072  0.00  0.00     0.003 C 
BRANCH   8   9
ATOM      9  C10 NON d   1     -43.645  16.881  -4.339  0.00  0.00     0.009 C 
BRANCH   9  10
ATOM     10  C11 NON d   1     -45.108  17.271  -4.123  0.00  0.00     0.105 C 
BRANCH  10  11
ATOM     11  C12 NON d   1     -46.051  16.957  -5.271  0.00  0.00     0.240 C 
ATOM     12  O3  NON d   1     -46.284  17.718  -6.202  0.00  0.00    -0.271 OA
ATOM     13  N2  NON d   1     -46.671  15.734  -5.102  0.00  0.00    -0.237 N 
ATOM     14  H17 NON d   1     -46.310  15.022  -4.478  0.00  0.00     0.197 HD
BRANCH  13  15
ATOM     15  O4  NON d   1     -47.449  15.269  -6.182  0.00  0.00    -0.287 OA
ATOM     16  H18 NON d   1     -47.106  15.799  -6.928  0.00  0.00     0.244 HD
ENDBRANCH  13  15
ENDBRANCH  10  11
ENDBRANCH   9  10
ENDBRANCH   8   9
ENDBRANCH   7   8
ENDBRANCH   6   7
ENDBRANCH   5   6
ENDBRANCH   3   5
BRANCH   1  17
ATOM     17  C5  NON d   1     -39.644  21.459  -1.087  0.00  0.00     0.034 A 
ATOM     18  C4  NON d   1     -40.485  22.568  -0.956  0.00  0.00     0.017 A 
ATOM     19  C3  NON d   1     -40.341  23.453   0.117  0.00  0.00     0.008 A 
ATOM     20  C2  NON d   1     -39.346  23.257   1.087  0.00  0.00    -0.056 A 
ATOM     21  C1  NON d   1     -39.273  24.198   2.258  0.00  0.00     0.049 C 
ATOM     22  C14 NON d   1     -38.448  22.185   0.935  0.00  0.00    -0.055 A 
ATOM     23  C13 NON d   1     -38.633  21.275  -0.135  0.00  0.00     0.024 A 
ATOM     24  C15 NON d   1     -37.334  21.889   1.956  0.00  0.00     0.049 C 
ENDBRANCH   1  17
TORSDOF 9
ENDMDL
MODEL 6
REMARK VINA RESULT:   -13.798      4.353      6.308
REMARK INTER + INTRA:         -17.625
REMARK INTER:                 -16.483
REMARK INTRA:                  -1.142
REMARK CONF_INDEPENDENT:        2.685
REMARK UNBOUND:                -1.142
REMARK  9 active torsions:
REMARK  status: ('A' for Active; 'I' for Inactive)
REMARK    1  A    between atoms: C5_5  and  C6_6 
REMARK       I    between atoms: C6_6  and  N1_8 
REMARK    2  A    between atoms: N1_8  and  O2_9 
REMARK    3  A    between atoms: O2_9  and  C7_10 
REMARK    4  A    between atoms: C7_10  and  C8_11 
REMARK    5  A    between atoms: C8_11  and  C9_12 
REMARK    6  A    between atoms: C9_12  and  C10_13 
REMARK    7  A    between atoms: C10_13  and  C11_14 
REMARK    8  A    between atoms: C11_14  and  C12_15 
REMARK       I    between atoms: C12_15  and  N2_17 
REMARK    9  A    between atoms: N2_17  and  O4_18 
ROOT
ATOM      1  C6  NON d   1     -40.116  20.014  -7.888  0.00  0.00     0.275 C 
ATOM      2  O1  NON d   1     -40.237  19.000  -8.571  0.00  0.00    -0.265 OA
ATOM      3  N1  NON d   1     -40.183  20.029  -6.512  0.00  0.00    -0.231 N 
ATOM      4  H6  NON d   1     -40.033  20.832  -5.920  0.00  0.00     0.197 HD
ENDROOT
BRANCH   3   5
ATOM      5  O2  NON d   1     -40.570  18.810  -5.906  0.00  0.00    -0.277 OA
BRANCH   5   6
ATOM      6  C7  NON d   1     -40.489  18.880  -4.481  0.00  0.00     0.201 C 
BRANCH   6   7
ATOM      7  C8  NON d   1     -41.491  17.924  -3.829  0.00  0.00     0.029 C 
BRANCH   7   8
ATOM      8  C9  NON d   1     -42.784  17.791  -4.637  0.00  0.00     0.003 C 
BRANCH   8   9
ATOM      9  C10 NON d   1     -43.781  16.779  -4.060  0.00  0.00     0.009 C 
BRANCH   9  10
ATOM     10  C11 NON d   1     -45.233  17.258  -4.009  0.00  0.00     0.105 C 
BRANCH  10  11
ATOM     11  C12 NON d   1     -46.082  16.923  -5.223  0.00  0.00     0.240 C 
ATOM     12  O3  NON d   1     -46.206  17.649  -6.201  0.00  0.00    -0.271 OA
ATOM     13  N2  NON d   1     -46.755  15.728  -5.060  0.00  0.00    -0.237 N 
ATOM     14  H17 NON d   1     -46.474  15.032  -4.378  0.00  0.00     0.197 HD
BRANCH  13  15
ATOM     15  O4  NON d   1     -47.450  15.239  -6.185  0.00  0.00    -0.287 OA
ATOM     16  H18 NON d   1     -47.003  15.701  -6.922  0.00  0.00     0.244 HD
ENDBRANCH  13  15
ENDBRANCH  10  11
ENDBRANCH   9  10
ENDBRANCH   8   9
ENDBRANCH   7   8
ENDBRANCH   6   7
ENDBRANCH   5   6
ENDBRANCH   3   5
BRANCH   1  17
ATOM     17  C5  NON d   1     -39.906  21.330  -8.577  0.00  0.00     0.034 A 
ATOM     18  C4  NON d   1     -40.212  22.498  -7.871  0.00  0.00     0.017 A 
ATOM     19  C3  NON d   1     -39.946  23.756  -8.421  0.00  0.00     0.008 A 
ATOM     20  C2  NON d   1     -39.372  23.882  -9.694  0.00  0.00    -0.056 A 
ATOM     21  C1  NON d   1     -39.044  25.255 -10.215  0.00  0.00     0.049 C 
ATOM     22  C14 NON d   1     -39.120  22.720 -10.446  0.00  0.00    -0.055 A 
ATOM     23  C13 NON d   1     -39.357  21.452  -9.860  0.00  0.00     0.024 A 
ATOM     24  C15 NON d   1     -38.482  22.764 -11.848  0.00  0.00     0.049 C 
ENDBRANCH   1  17
TORSDOF 9
ENDMDL
MODEL 7
REMARK VINA RESULT:   -13.787      4.193      6.111
REMARK INTER + INTRA:         -17.673
REMARK INTER:                 -16.472
REMARK INTRA:                  -1.201
REMARK CONF_INDEPENDENT:        2.685
REMARK UNBOUND:                -1.201
REMARK  9 active torsions:
REMARK  status: ('A' for Active; 'I' for Inactive)
REMARK    1  A    between atoms: C5_5  and  C6_6 
REMARK       I    between atoms: C6_6  and  N1_8 
REMARK    2  A    between atoms: N1_8  and  O2_9 
REMARK    3  A    between atoms: O2_9  and  C7_10 
REMARK    4  A    between atoms: C7_10  and  C8_11 
REMARK    5  A    between atoms: C8_11  and  C9_12 
REMARK    6  A    between atoms: C9_12  and  C10_13 
REMARK    7  A    between atoms: C10_13  and  C11_14 
REMARK    8  A    between atoms: C11_14  and  C12_15 
REMARK       I    between atoms: C12_15  and  N2_17 
REMARK    9  A    between atoms: N2_17  and  O4_18 
ROOT
ATOM      1  C6  NON d   1     -40.018  20.024  -7.897  0.00  0.00     0.275 C 
ATOM      2  O1  NON d   1     -39.941  19.054  -8.648  0.00  0.00    -0.265 OA
ATOM      3  N1  NON d   1     -40.326  19.939  -6.557  0.00  0.00    -0.231 N 
ATOM      4  H6  NON d   1     -40.342  20.707  -5.903  0.00  0.00     0.197 HD
ENDROOT
BRANCH   3   5
ATOM      5  O2  NON d   1     -40.720  18.659  -6.102  0.00  0.00    -0.277 OA
BRANCH   5   6
ATOM      6  C7  NON d   1     -41.980  18.705  -5.426  0.00  0.00     0.201 C 
BRANCH   6   7
ATOM      7  C8  NON d   1     -41.800  18.496  -3.920  0.00  0.00     0.029 C 
BRANCH   7   8
ATOM      8  C9  NON d   1     -42.681  17.369  -3.375  0.00  0.00     0.003 C 
BRANCH   8   9
ATOM      9  C10 NON d   1     -43.701  16.829  -4.384  0.00  0.00     0.009 C 
BRANCH   9  10
ATOM     10  C11 NON d   1     -45.074  17.502  -4.339  0.00  0.00     0.105 C 
BRANCH  10  11
ATOM     11  C12 NON d   1     -46.044  17.095  -5.435  0.00  0.00     0.240 C 
ATOM     12  O3  NON d   1     -46.314  17.786  -6.409  0.00  0.00    -0.271 OA
ATOM     13  N2  NON d   1     -46.640  15.879  -5.163  0.00  0.00    -0.237 N 
ATOM     14  H17 NON d   1     -46.250  15.217  -4.502  0.00  0.00     0.197 HD
BRANCH  13  15
ATOM     15  O4  NON d   1     -47.441  15.329  -6.185  0.00  0.00    -0.287 OA
ATOM     16  H18 NON d   1     -47.192  15.873  -6.958  0.00  0.00     0.244 HD
ENDBRANCH  13  15
ENDBRANCH  10  11
ENDBRANCH   9  10
ENDBRANCH   8   9
ENDBRANCH   7   8
ENDBRANCH   6   7
ENDBRANCH   5   6
ENDBRANCH   3   5
BRANCH   1  17
ATOM     17  C5  NON d   1     -39.789  21.396  -8.461  0.00  0.00     0.034 A 
ATOM     18  C4  NON d   1     -39.564  21.513  -9.836  0.00  0.00     0.017 A 
ATOM     19  C3  NON d   1     -39.442  22.770 -10.436  0.00  0.00     0.008 A 
ATOM     20  C2  NON d   1     -39.535  23.946  -9.677  0.00  0.00    -0.056 A 
ATOM     21  C1  NON d   1     -39.463  25.275 -10.377  0.00  0.00     0.049 C 
ATOM     22  C14 NON d   1     -39.693  23.846  -8.282  0.00  0.00    -0.055 A 
ATOM     23  C13 NON d   1     -39.856  22.567  -7.695  0.00  0.00     0.024 A 
ATOM     24  C15 NON d   1     -39.815  25.084  -7.374  0.00  0.00     0.049 C 
ENDBRANCH   1  17
TORSDOF 9
ENDMDL
