MODEL 1
REMARK VINA RESULT:   -14.657      0.000      0.000
REMARK INTER + INTRA:         -19.001
REMARK INTER:                 -17.342
REMARK INTRA:                  -1.659
REMARK CONF_INDEPENDENT:        2.685
REMARK UNBOUND:                -1.659
REMARK  9 active torsions:
REMARK  status: ('A' for Active; 'I' for Inactive)
REMARK    1  A    between atoms: C1_2  and  C2_3 
REMARK       I    between atoms: C1_2  and  N2_19 
REMARK    2  A    between atoms: C2_3  and  C3_4 
REMARK    3  A    between atoms: C3_4  and  C4_5 
REMARK    4  A    between atoms: C4_5  and  C5_6 
REMARK    5  A    between atoms: C5_6  and  C6_7 
REMARK    6  A    between atoms: C6_7  and  C7_8 
REMARK    7  A    between atoms: C7_8  and  C8_9 
REMARK       I    between atoms: C8_9  and  N1_11 
REMARK    8  A    between atoms: N1_11  and  C9_12 
REMARK    9  A    between atoms: N2_19  and  O3_20 
ROOT
ATOM      1  C7  NON d   1     -46.091  16.200  -3.468  0.00  0.00     0.103 C 
ENDROOT
BRANCH   1   2
ATOM      2  C6  NON d   1     -46.794  17.346  -2.740  0.00  0.00     0.009 C 
BRANCH   2   3
ATOM      3  C5  NON d   1     -48.120  16.969  -2.070  0.00  0.00     0.000 C 
BRANCH   3   4
ATOM      4  C4  NON d   1     -49.208  16.442  -3.016  0.00  0.00     0.000 C 
BRANCH   4   5
ATOM      5  C3  NON d   1     -48.917  15.047  -3.574  0.00  0.00     0.009 C 
BRANCH   5   6
ATOM      6  C2  NON d   1     -48.905  15.011  -5.101  0.00  0.00     0.105 C 
BRANCH   6   7
ATOM      7  C1  NON d   1     -47.682  15.642  -5.745  0.00  0.00     0.240 C 
ATOM      8  O1  NON d   1     -46.733  15.005  -6.187  0.00  0.00    -0.271 OA
ATOM      9  N2  NON d   1     -47.815  17.020  -5.817  0.00  0.00    -0.237 N 
ATOM     10  H18 NON d   1     -48.406  17.498  -5.146  0.00  0.00     0.197 HD
BRANCH   9  11
ATOM     11  O3  NON d   1     -46.646  17.719  -6.185  0.00  0.00    -0.287 OA
ATOM     12  H19 NON d   1     -46.110  17.020  -6.605  0.00  0.00     0.244 HD
ENDBRANCH   9  11
ENDBRANCH   6   7
ENDBRANCH   5   6
ENDBRANCH   4   5
ENDBRANCH   3   4
ENDBRANCH   2   3
ENDBRANCH   1   2
BRANCH   1  13
ATOM     13  C8  NON d   1     -44.868  16.681  -4.241  0.00  0.00     0.222 C 
ATOM     14  O2  NON d   1     -44.739  16.482  -5.444  0.00  0.00    -0.273 OA
ATOM     15  N1  NON d   1     -43.980  17.360  -3.421  0.00  0.00    -0.327 N 
ATOM     16  H13 NON d   1     -44.236  17.440  -2.445  0.00  0.00     0.169 HD
BRANCH  15  17
ATOM     17  C9  NON d   1     -42.758  17.963  -3.795  0.00  0.00     0.034 A 
ATOM     18  C10 NON d   1     -42.541  18.585  -5.028  0.00  0.00     0.032 A 
ATOM     19  C11 NON d   1     -41.300  19.173  -5.317  0.00  0.00     0.044 A 
ATOM     20  C12 NON d   1     -40.285  19.136  -4.374  0.00  0.00     0.116 A 
ATOM     21  F1  NON d   1     -39.101  19.699  -4.651  0.00  0.00    -0.206 F 
ATOM     22  C13 NON d   1     -40.480  18.521  -3.144  0.00  0.00     0.044 A 
ATOM     23  C14 NON d   1     -41.717  17.936  -2.855  0.00  0.00     0.032 A 
ENDBRANCH  15  17
ENDBRANCH   1  13
TORSDOF 9
ENDMDL
MODEL 2
REMARK VINA RESULT:   -14.283      1.331      1.935
REMARK INTER + INTRA:         -18.684
REMARK INTER:                 -16.968
REMARK INTRA:                  -1.716
REMARK CONF_INDEPENDENT:        2.685
REMARK UNBOUND:                -1.716
REMARK  9 active torsions:
REMARK  status: ('A' for Active; 'I' for Inactive)
REMARK    1  A    between atoms: C1_2  and  C2_3 
REMARK       I    between atoms: C1_2  and  N2_19 
REMARK    2  A    between atoms: C2_3  and  C3_4 
REMARK    3  A    between atoms: C3_4  and  C4_5 
REMARK    4  A    between atoms: C4_5  and  C5_6 
REMARK    5  A    between atoms: C5_6  and  C6_7 
REMARK    6  A    between atoms: C6_7  and  C7_8 
REMARK    7  A    between atoms: C7_8  and  C8_9 
REMARK       I    between atoms: C8_9  and  N1_11 
REMARK    8  A    between atoms: N1_11  and  C9_12 
REMARK    9  A    between atoms: N2_19  and  O3_20 
ROOT
ATOM      1  C7  NON d   1     -44.672  17.241  -3.187  0.00  0.00     0.103 C 
ENDROOT
BRANCH   1   2
ATOM      2  C6  NON d   1     -46.121  16.964  -3.584  0.00  0.00     0.009 C 
BRANCH   2   3
ATOM      3  C5  NON d   1     -47.158  17.261  -2.494  0.00  0.00     0.000 C 
BRANCH   3   4
ATOM      4  C4  NON d   1     -48.509  16.553  -2.663  0.00  0.00     0.000 C 
BRANCH   4   5
ATOM      5  C3  NON d   1     -48.415  15.211  -3.394  0.00  0.00     0.009 C 
BRANCH   5   6
ATOM      6  C2  NON d   1     -48.700  15.332  -4.891  0.00  0.00     0.105 C 
BRANCH   6   7
ATOM      7  C1  NON d   1     -47.515  15.773  -5.733  0.00  0.00     0.240 C 
ATOM      8  O1  NON d   1     -46.691  15.004  -6.214  0.00  0.00    -0.271 OA
ATOM      9  N2  NON d   1     -47.529  17.146  -5.929  0.00  0.00    -0.237 N 
ATOM     10  H18 NON d   1     -47.984  17.740  -5.245  0.00  0.00     0.197 HD
BRANCH   9  11
ATOM     11  O3  NON d   1     -46.356  17.684  -6.499  0.00  0.00    -0.287 OA
ATOM     12  H19 NON d   1     -45.701  16.980  -6.329  0.00  0.00     0.244 HD
ENDBRANCH   9  11
ENDBRANCH   6   7
ENDBRANCH   5   6
ENDBRANCH   4   5
ENDBRANCH   3   4
ENDBRANCH   2   3
ENDBRANCH   1   2
BRANCH   1  13
ATOM     13  C8  NON d   1     -43.762  17.373  -4.403  0.00  0.00     0.222 C 
ATOM     14  O2  NON d   1     -43.934  16.709  -5.419  0.00  0.00    -0.273 OA
ATOM     15  N1  NON d   1     -42.773  18.323  -4.201  0.00  0.00    -0.327 N 
ATOM     16  H13 NON d   1     -42.769  18.788  -3.301  0.00  0.00     0.169 HD
BRANCH  15  17
ATOM     17  C9  NON d   1     -41.774  18.728  -5.113  0.00  0.00     0.034 A 
ATOM     18  C10 NON d   1     -40.432  18.347  -5.019  0.00  0.00     0.032 A 
ATOM     19  C11 NON d   1     -39.501  18.782  -5.975  0.00  0.00     0.044 A 
ATOM     20  C12 NON d   1     -39.916  19.594  -7.019  0.00  0.00     0.116 A 
ATOM     21  F1  NON d   1     -39.028  20.008  -7.932  0.00  0.00    -0.206 F 
ATOM     22  C13 NON d   1     -41.245  19.985  -7.129  0.00  0.00     0.044 A 
ATOM     23  C14 NON d   1     -42.173  19.551  -6.178  0.00  0.00     0.032 A 
ENDBRANCH  15  17
ENDBRANCH   1  13
TORSDOF 9
ENDMDL
MODEL 3
REMARK VINA RESULT:   -13.861      4.377      5.968
REMARK INTER + INTRA:         -17.649
REMARK INTER:                 -16.546
REMARK INTRA:                  -1.103
REMARK CONF_INDEPENDENT:        2.685
REMARK UNBOUND:                -1.103
REMARK  9 active torsions:
REMARK  status: ('A' for Active; 'I' for Inactive)
REMARK    1  A    between atoms: C1_2  and  C2_3 
REMARK       I    between atoms: C1_2  and  N2_19 
REMARK    2  A    between atoms: C2_3  and  C3_4 
REMARK    3  A    between atoms: C3_4  and  C4_5 
REMARK    4  A    between atoms: C4_5  and  C5_6 
REMARK    5  A    between atoms: C5_6  and  C6_7 
REMARK    6  A    between atoms: C6_7  and  C7_8 
REMARK    7  A    between atoms: C7_8  and  C8_9 
REMARK       I    between atoms: C8_9  and  N1_11 
REMARK    8  A    between atoms: N1_11  and  C9_12 
REMARK    9  A    between atoms: N2_19  and  O3_20 
ROOT
ATOM      1  C7  NON d   1     -39.541  18.900  -2.435  0.00  0.00     0.103 C 
ENDROOT
BRANCH   1   2
ATOM      2  C6  NON d   1     -40.283  18.199  -3.572  0.00  0.00     0.009 C 
BRANCH   2   3
ATOM      3  C5  NON d   1     -41.772  17.939  -3.310  0.00  0.00     0.000 C 
BRANCH   3   4
ATOM      4  C4  NON d   1     -42.671  17.962  -4.553  0.00  0.00     0.000 C 
BRANCH   4   5
ATOM      5  C3  NON d   1     -43.644  16.782  -4.633  0.00  0.00     0.009 C 
BRANCH   5   6
ATOM      6  C2  NON d   1     -45.069  17.162  -4.233  0.00  0.00     0.105 C 
BRANCH   6   7
ATOM      7  C1  NON d   1     -46.121  16.899  -5.296  0.00  0.00     0.240 C 
ATOM      8  O1  NON d   1     -46.402  17.685  -6.194  0.00  0.00    -0.271 OA
ATOM      9  N2  NON d   1     -46.673  15.636  -5.147  0.00  0.00    -0.237 N 
ATOM     10  H18 NON d   1     -46.679  15.202  -4.231  0.00  0.00     0.197 HD
BRANCH   9  11
ATOM     11  O3  NON d   1     -47.815  15.380  -5.935  0.00  0.00    -0.287 OA
ATOM     12  H19 NON d   1     -47.600  15.842  -6.767  0.00  0.00     0.244 HD
ENDBRANCH   9  11
ENDBRANCH   6   7
ENDBRANCH   5   6
ENDBRANCH   4   5
ENDBRANCH   3   4
ENDBRANCH   2   3
ENDBRANCH   1   2
BRANCH   1  13
ATOM     13  C8  NON d   1     -40.005  20.340  -2.255  0.00  0.00     0.222 C 
ATOM     14  O2  NON d   1     -40.394  21.021  -3.196  0.00  0.00    -0.273 OA
ATOM     15  N1  NON d   1     -39.939  20.736  -0.927  0.00  0.00    -0.327 N 
ATOM     16  H13 NON d   1     -39.594  20.050  -0.268  0.00  0.00     0.169 HD
BRANCH  15  17
ATOM     17  C9  NON d   1     -40.310  21.987  -0.387  0.00  0.00     0.034 A 
ATOM     18  C10 NON d   1     -40.693  23.088  -1.159  0.00  0.00     0.032 A 
ATOM     19  C11 NON d   1     -41.059  24.294  -0.543  0.00  0.00     0.044 A 
ATOM     20  C12 NON d   1     -41.041  24.394   0.840  0.00  0.00     0.116 A 
ATOM     21  F1  NON d   1     -41.392  25.546   1.427  0.00  0.00    -0.206 F 
ATOM     22  C13 NON d   1     -40.661  23.313   1.624  0.00  0.00     0.044 A 
ATOM     23  C14 NON d   1     -40.296  22.110   1.011  0.00  0.00     0.032 A 
ENDBRANCH  15  17
ENDBRANCH   1  13
TORSDOF 9
ENDMDL
MODEL 4
REMARK VINA RESULT:   -13.752      1.407      1.887
REMARK INTER + INTRA:         -17.744
REMARK INTER:                 -16.437
REMARK INTRA:                  -1.307
REMARK CONF_INDEPENDENT:        2.685
REMARK UNBOUND:                -1.307
REMARK  9 active torsions:
REMARK  status: ('A' for Active; 'I' for Inactive)
REMARK    1  A    between atoms: C1_2  and  C2_3 
REMARK       I    between atoms: C1_2  and  N2_19 
REMARK    2  A    between atoms: C2_3  and  C3_4 
REMARK    3  A    between atoms: C3_4  and  C4_5 
REMARK    4  A    between atoms: C4_5  and  C5_6 
REMARK    5  A    between atoms: C5_6  and  C6_7 
REMARK    6  A    between atoms: C6_7  and  C7_8 
REMARK    7  A    between atoms: C7_8  and  C8_9 
REMARK       I    between atoms: C8_9  and  N1_11 
REMARK    8  A    between atoms: N1_11  and  C9_12 
REMARK    9  A    between atoms: N2_19  and  O3_20 
ROOT
ATOM      1  C7  NON d   1     -44.604  17.990  -4.409  0.00  0.00     0.103 C 
ENDROOT
BRANCH   1   2
ATOM      2  C6  NON d   1     -45.227  16.853  -3.600  0.00  0.00     0.009 C 
BRANCH   2   3
ATOM      3  C5  NON d   1     -46.673  17.096  -3.150  0.00  0.00     0.000 C 
BRANCH   3   4
ATOM      4  C4  NON d   1     -47.477  15.834  -2.812  0.00  0.00     0.000 C 
BRANCH   4   5
ATOM      5  C3  NON d   1     -48.843  15.770  -3.499  0.00  0.00     0.009 C 
BRANCH   5   6
ATOM      6  C2  NON d   1     -48.762  15.234  -4.928  0.00  0.00     0.105 C 
BRANCH   6   7
ATOM      7  C1  NON d   1     -47.573  15.732  -5.730  0.00  0.00     0.240 C 
ATOM      8  O1  NON d   1     -46.697  15.005  -6.184  0.00  0.00    -0.271 OA
ATOM      9  N2  NON d   1     -47.646  17.103  -5.926  0.00  0.00    -0.237 N 
ATOM     10  H18 NON d   1     -48.151  17.675  -5.258  0.00  0.00     0.197 HD
BRANCH   9  11
ATOM     11  O3  NON d   1     -46.481  17.698  -6.457  0.00  0.00    -0.287 OA
ATOM     12  H19 NON d   1     -46.042  16.943  -6.891  0.00  0.00     0.244 HD
ENDBRANCH   9  11
ENDBRANCH   6   7
ENDBRANCH   5   6
ENDBRANCH   4   5
ENDBRANCH   3   4
ENDBRANCH   2   3
ENDBRANCH   1   2
BRANCH   1  13
ATOM     13  C8  NON d   1     -43.138  17.724  -4.730  0.00  0.00     0.222 C 
ATOM     14  O2  NON d   1     -42.709  16.592  -4.924  0.00  0.00    -0.273 OA
ATOM     15  N1  NON d   1     -42.405  18.900  -4.783  0.00  0.00    -0.327 N 
ATOM     16  H13 NON d   1     -42.911  19.757  -4.599  0.00  0.00     0.169 HD
BRANCH  15  17
ATOM     17  C9  NON d   1     -41.030  19.041  -5.077  0.00  0.00     0.034 A 
ATOM     18  C10 NON d   1     -40.536  19.436  -6.324  0.00  0.00     0.032 A 
ATOM     19  C11 NON d   1     -39.154  19.564  -6.531  0.00  0.00     0.044 A 
ATOM     20  C12 NON d   1     -38.275  19.298  -5.493  0.00  0.00     0.116 A 
ATOM     21  F1  NON d   1     -36.956  19.422  -5.692  0.00  0.00    -0.206 F 
ATOM     22  C13 NON d   1     -38.747  18.902  -4.248  0.00  0.00     0.044 A 
ATOM     23  C14 NON d   1     -40.123  18.775  -4.040  0.00  0.00     0.032 A 
ENDBRANCH  15  17
ENDBRANCH   1  13
TORSDOF 9
ENDMDL
MODEL 5
REMARK VINA RESULT:   -13.615      4.879      6.683
REMARK INTER + INTRA:         -17.438
REMARK INTER:                 -16.299
REMARK INTRA:                  -1.139
REMARK CONF_INDEPENDENT:        2.685
REMARK UNBOUND:                -1.139
REMARK  9 active torsions:
REMARK  status: ('A' for Active; 'I' for Inactive)
REMARK    1  A    between atoms: C1_2  and  C2_3 
REMARK       I    between atoms: C1_2  and  N2_19 
REMARK    2  A    between atoms: C2_3  and  C3_4 
REMARK    3  A    between atoms: C3_4  and  C4_5 
REMARK    4  A    between atoms: C4_5  and  C5_6 
REMARK    5  A    between atoms: C5_6  and  C6_7 
REMARK    6  A    between atoms: C6_7  and  C7_8 
REMARK    7  A    between atoms: C7_8  and  C8_9 
REMARK       I    between atoms: C8_9  and  N1_11 
REMARK    8  A    between atoms: N1_11  and  C9_12 
REMARK    9  A    between atoms: N2_19  and  O3_20 
ROOT
ATOM      1  C7  NON d   1     -40.618  20.389  -6.097  0.00  0.00     0.103 C 
ENDROOT
BRANCH   1   2
ATOM      2  C6  NON d   1     -41.166  18.983  -5.859  0.00  0.00     0.009 C 
BRANCH   2   3
ATOM      3  C5  NON d   1     -42.496  18.927  -5.096  0.00  0.00     0.000 C 
BRANCH   3   4
ATOM      4  C4  NON d   1     -42.581  17.855  -4.002  0.00  0.00     0.000 C 
BRANCH   4   5
ATOM      5  C3  NON d   1     -43.663  16.802  -4.253  0.00  0.00     0.009 C 
BRANCH   5   6
ATOM      6  C2  NON d   1     -45.077  17.369  -4.144  0.00  0.00     0.105 C 
BRANCH   6   7
ATOM      7  C1  NON d   1     -45.988  17.046  -5.316  0.00  0.00     0.240 C 
ATOM      8  O1  NON d   1     -46.276  17.842  -6.202  0.00  0.00    -0.271 OA
ATOM      9  N2  NON d   1     -46.395  15.721  -5.278  0.00  0.00    -0.237 N 
ATOM     10  H18 NON d   1     -46.434  15.239  -4.387  0.00  0.00     0.197 HD
BRANCH   9  11
ATOM     11  O3  NON d   1     -47.420  15.380  -6.185  0.00  0.00    -0.287 OA
ATOM     12  H19 NON d   1     -47.252  15.991  -6.927  0.00  0.00     0.244 HD
ENDBRANCH   9  11
ENDBRANCH   6   7
ENDBRANCH   5   6
ENDBRANCH   4   5
ENDBRANCH   3   4
ENDBRANCH   2   3
ENDBRANCH   1   2
BRANCH   1  13
ATOM     13  C8  NON d   1     -40.473  20.700  -7.582  0.00  0.00     0.222 C 
ATOM     14  O2  NON d   1     -40.721  19.869  -8.448  0.00  0.00    -0.273 OA
ATOM     15  N1  NON d   1     -40.057  22.006  -7.792  0.00  0.00    -0.327 N 
ATOM     16  H13 NON d   1     -39.896  22.568  -6.966  0.00  0.00     0.169 HD
BRANCH  15  17
ATOM     17  C9  NON d   1     -39.841  22.648  -9.032  0.00  0.00     0.034 A 
ATOM     18  C10 NON d   1     -40.014  24.019  -9.241  0.00  0.00     0.032 A 
ATOM     19  C11 NON d   1     -39.767  24.582 -10.502  0.00  0.00     0.044 A 
ATOM     20  C12 NON d   1     -39.347  23.773 -11.547  0.00  0.00     0.116 A 
ATOM     21  F1  NON d   1     -39.110  24.311 -12.750  0.00  0.00    -0.206 F 
ATOM     22  C13 NON d   1     -39.171  22.408 -11.360  0.00  0.00     0.044 A 
ATOM     23  C14 NON d   1     -39.417  21.846 -10.103  0.00  0.00     0.032 A 
ENDBRANCH  15  17
ENDBRANCH   1  13
TORSDOF 9
ENDMDL
MODEL 6
REMARK VINA RESULT:   -13.421      4.536      6.361
REMARK INTER + INTRA:         -17.307
REMARK INTER:                 -16.106
REMARK INTRA:                  -1.201
REMARK CONF_INDEPENDENT:        2.685
REMARK UNBOUND:                -1.201
REMARK  9 active torsions:
REMARK  status: ('A' for Active; 'I' for Inactive)
REMARK    1  A    between atoms: C1_2  and  C2_3 
REMARK       I    between atoms: C1_2  and  N2_19 
REMARK    2  A    between atoms: C2_3  and  C3_4 
REMARK    3  A    between atoms: C3_4  and  C4_5 
REMARK    4  A    between atoms: C4_5  and  C5_6 
REMARK    5  A    between atoms: C5_6  and  C6_7 
REMARK    6  A    between atoms: C6_7  and  C7_8 
REMARK    7  A    between atoms: C7_8  and  C8_9 
REMARK       I    between atoms: C8_9  and  N1_11 
REMARK    8  A    between atoms: N1_11  and  C9_12 
REMARK    9  A    between atoms: N2_19  and  O3_20 
ROOT
ATOM      1  C7  NON d   1     -41.406  19.680  -6.237  0.00  0.00     0.103 C 
ENDROOT
BRANCH   1   2
ATOM      2  C6  NON d   1     -40.519  18.891  -5.274  0.00  0.00     0.009 C 
BRANCH   2   3
ATOM      3  C5  NON d   1     -41.269  17.932  -4.342  0.00  0.00     0.000 C 
BRANCH   3   4
ATOM      4  C4  NON d   1     -42.784  18.159  -4.247  0.00  0.00     0.000 C 
BRANCH   4   5
ATOM      5  C3  NON d   1     -43.616  16.923  -4.601  0.00  0.00     0.009 C 
BRANCH   5   6
ATOM      6  C2  NON d   1     -45.084  17.066  -4.205  0.00  0.00     0.105 C 
BRANCH   6   7
ATOM      7  C1  NON d   1     -46.074  16.871  -5.341  0.00  0.00     0.240 C 
ATOM      8  O1  NON d   1     -46.321  17.720  -6.190  0.00  0.00    -0.271 OA
ATOM      9  N2  NON d   1     -46.610  15.593  -5.318  0.00  0.00    -0.237 N 
ATOM     10  H18 NON d   1     -46.658  15.089  -4.439  0.00  0.00     0.197 HD
BRANCH   9  11
ATOM     11  O3  NON d   1     -47.704  15.383  -6.184  0.00  0.00    -0.287 OA
ATOM     12  H19 NON d   1     -47.606  16.115  -6.822  0.00  0.00     0.244 HD
ENDBRANCH   9  11
ENDBRANCH   6   7
ENDBRANCH   5   6
ENDBRANCH   4   5
ENDBRANCH   3   4
ENDBRANCH   2   3
ENDBRANCH   1   2
BRANCH   1  13
ATOM     13  C8  NON d   1     -40.684  20.007  -7.539  0.00  0.00     0.222 C 
ATOM     14  O2  NON d   1     -40.314  19.134  -8.315  0.00  0.00    -0.273 OA
ATOM     15  N1  NON d   1     -40.535  21.375  -7.711  0.00  0.00    -0.327 N 
ATOM     16  H13 NON d   1     -40.900  21.966  -6.974  0.00  0.00     0.169 HD
BRANCH  15  17
ATOM     17  C9  NON d   1     -39.941  22.042  -8.805  0.00  0.00     0.034 A 
ATOM     18  C10 NON d   1     -39.076  21.428  -9.716  0.00  0.00     0.032 A 
ATOM     19  C11 NON d   1     -38.536  22.158 -10.785  0.00  0.00     0.044 A 
ATOM     20  C12 NON d   1     -38.862  23.497 -10.938  0.00  0.00     0.116 A 
ATOM     21  F1  NON d   1     -38.347  24.193 -11.961  0.00  0.00    -0.206 F 
ATOM     22  C13 NON d   1     -39.718  24.125 -10.043  0.00  0.00     0.044 A 
ATOM     23  C14 NON d   1     -40.258  23.398  -8.978  0.00  0.00     0.032 A 
ENDBRANCH  15  17
ENDBRANCH   1  13
TORSDOF 9
ENDMDL
MODEL 7
REMARK VINA RESULT:   -13.298      2.900      4.953
REMARK INTER + INTRA:         -17.514
REMARK INTER:                 -15.983
REMARK INTRA:                  -1.531
REMARK CONF_INDEPENDENT:        2.685
REMARK UNBOUND:                -1.531
REMARK  9 active torsions:
REMARK  status: ('A' for Active; 'I' for Inactive)
REMARK    1  A    between atoms: C1_2  and  C2_3 
REMARK       I    between atoms: C1_2  and  N2_19 
REMARK    2  A    between atoms: C2_3  and  C3_4 
REMARK    3  A    between atoms: C3_4  and  C4_5 
REMARK    4  A    between atoms: C4_5  and  C5_6 
REMARK    5  A    between atoms: C5_6  and  C6_7 
REMARK    6  A    between atoms: C6_7  and  C7_8 
REMARK    7  A    between atoms: C7_8  and  C8_9 
REMARK       I    between atoms: C8_9  and  N1_11 
REMARK    8  A    between atoms: N1_11  and  C9_12 
REMARK    9  A    between atoms: N2_19  and  O3_20 
ROOT
ATOM      1  C7  NON d   1     -39.598  18.378  -2.621  0.00  0.00     0.103 C 
ENDROOT
BRANCH   1   2
ATOM      2  C6  NON d   1     -40.666  17.286  -2.570  0.00  0.00     0.009 C 
BRANCH   2   3
ATOM      3  C5  NON d   1     -42.095  17.766  -2.854  0.00  0.00     0.000 C 
BRANCH   3   4
ATOM      4  C4  NON d   1     -42.615  17.480  -4.269  0.00  0.00     0.000 C 
BRANCH   4   5
ATOM      5  C3  NON d   1     -44.002  18.066  -4.547  0.00  0.00     0.009 C 
BRANCH   5   6
ATOM      6  C2  NON d   1     -45.133  17.100  -4.198  0.00  0.00     0.105 C 
BRANCH   6   7
ATOM      7  C1  NON d   1     -46.145  16.875  -5.307  0.00  0.00     0.240 C 
ATOM      8  O1  NON d   1     -46.392  17.690  -6.188  0.00  0.00    -0.271 OA
ATOM      9  N2  NON d   1     -46.702  15.608  -5.220  0.00  0.00    -0.237 N 
ATOM     10  H18 NON d   1     -46.743  15.144  -4.319  0.00  0.00     0.197 HD
BRANCH   9  11
ATOM     11  O3  NON d   1     -47.815  15.380  -6.057  0.00  0.00    -0.287 OA
ATOM     12  H19 NON d   1     -47.688  16.049  -6.756  0.00  0.00     0.244 HD
ENDBRANCH   9  11
ENDBRANCH   6   7
ENDBRANCH   5   6
ENDBRANCH   4   5
ENDBRANCH   3   4
ENDBRANCH   2   3
ENDBRANCH   1   2
BRANCH   1  13
ATOM     13  C8  NON d   1     -39.834  19.354  -3.768  0.00  0.00     0.222 C 
ATOM     14  O2  NON d   1     -40.114  20.531  -3.573  0.00  0.00    -0.273 OA
ATOM     15  N1  NON d   1     -39.673  18.741  -5.001  0.00  0.00    -0.327 N 
ATOM     16  H13 NON d   1     -39.439  17.756  -4.990  0.00  0.00     0.169 HD
BRANCH  15  17
ATOM     17  C9  NON d   1     -39.789  19.338  -6.277  0.00  0.00     0.034 A 
ATOM     18  C10 NON d   1     -40.842  20.177  -6.652  0.00  0.00     0.032 A 
ATOM     19  C11 NON d   1     -40.877  20.741  -7.936  0.00  0.00     0.044 A 
ATOM     20  C12 NON d   1     -39.861  20.464  -8.837  0.00  0.00     0.116 A 
ATOM     21  F1  NON d   1     -39.895  21.004 -10.063  0.00  0.00    -0.206 F 
ATOM     22  C13 NON d   1     -38.807  19.630  -8.484  0.00  0.00     0.044 A 
ATOM     23  C14 NON d   1     -38.771  19.069  -7.204  0.00  0.00     0.032 A 
ENDBRANCH  15  17
ENDBRANCH   1  13
TORSDOF 9
ENDMDL
MODEL 8
REMARK VINA RESULT:   -13.272      5.199      8.607
REMARK INTER + INTRA:         -17.049
REMARK INTER:                 -15.957
REMARK INTRA:                  -1.092
REMARK CONF_INDEPENDENT:        2.685
REMARK UNBOUND:                -1.092
REMARK  9 active torsions:
REMARK  status: ('A' for Active; 'I' for Inactive)
REMARK    1  A    between atoms: C1_2  and  C2_3 
REMARK       I    between atoms: C1_2  and  N2_19 
REMARK    2  A    between atoms: C2_3  and  C3_4 
REMARK    3  A    between atoms: C3_4  and  C4_5 
REMARK    4  A    between atoms: C4_5  and  C5_6 
REMARK    5  A    between atoms: C5_6  and  C6_7 
REMARK    6  A    between atoms: C6_7  and  C7_8 
REMARK    7  A    between atoms: C7_8  and  C8_9 
REMARK       I    between atoms: C8_9  and  N1_11 
REMARK    8  A    between atoms: N1_11  and  C9_12 
REMARK    9  A    between atoms: N2_19  and  O3_20 
ROOT
ATOM      1  C7  NON d   1     -49.976  15.369  -3.196  0.00  0.00     0.103 C 
ENDROOT
BRANCH   1   2
ATOM      2  C6  NON d   1     -48.726  15.932  -3.870  0.00  0.00     0.009 C 
BRANCH   2   3
ATOM      3  C5  NON d   1     -47.455  15.891  -3.012  0.00  0.00     0.000 C 
BRANCH   3   4
ATOM      4  C4  NON d   1     -46.744  17.238  -2.827  0.00  0.00     0.000 C 
BRANCH   4   5
ATOM      5  C3  NON d   1     -45.307  17.255  -3.355  0.00  0.00     0.009 C 
BRANCH   5   6
ATOM      6  C2  NON d   1     -45.225  17.626  -4.835  0.00  0.00     0.105 C 
BRANCH   6   7
ATOM      7  C1  NON d   1     -46.317  17.029  -5.705  0.00  0.00     0.240 C 
ATOM      8  O1  NON d   1     -47.062  17.687  -6.421  0.00  0.00    -0.271 OA
ATOM      9  N2  NON d   1     -46.315  15.645  -5.623  0.00  0.00    -0.237 N 
ATOM     10  H18 NON d   1     -45.955  15.197  -4.787  0.00  0.00     0.197 HD
BRANCH   9  11
ATOM     11  O3  NON d   1     -47.429  15.005  -6.207  0.00  0.00    -0.287 OA
ATOM     12  H19 NON d   1     -48.026  15.755  -6.390  0.00  0.00     0.244 HD
ENDBRANCH   9  11
ENDBRANCH   6   7
ENDBRANCH   5   6
ENDBRANCH   4   5
ENDBRANCH   3   4
ENDBRANCH   2   3
ENDBRANCH   1   2
BRANCH   1  13
ATOM     13  C8  NON d   1     -50.575  16.349  -2.194  0.00  0.00     0.222 C 
ATOM     14  O2  NON d   1     -49.897  16.888  -1.327  0.00  0.00    -0.273 OA
ATOM     15  N1  NON d   1     -51.930  16.543  -2.415  0.00  0.00    -0.327 N 
ATOM     16  H13 NON d   1     -52.343  16.021  -3.178  0.00  0.00     0.169 HD
BRANCH  15  17
ATOM     17  C9  NON d   1     -52.802  17.395  -1.703  0.00  0.00     0.034 A 
ATOM     18  C10 NON d   1     -54.178  17.475  -1.935  0.00  0.00     0.032 A 
ATOM     19  C11 NON d   1     -54.978  18.340  -1.174  0.00  0.00     0.044 A 
ATOM     20  C12 NON d   1     -54.400  19.120  -0.185  0.00  0.00     0.116 A 
ATOM     21  F1  NON d   1     -55.165  19.945   0.542  0.00  0.00    -0.206 F 
ATOM     22  C13 NON d   1     -53.034  19.057   0.060  0.00  0.00     0.044 A 
ATOM     23  C14 NON d   1     -52.236  18.195  -0.698  0.00  0.00     0.032 A 
ENDBRANCH  15  17
ENDBRANCH   1  13
TORSDOF 9
ENDMDL
MODEL 9
REMARK VINA RESULT:   -13.135      4.617      6.348
REMARK INTER + INTRA:         -17.019
REMARK INTER:                 -15.819
REMARK INTRA:                  -1.200
REMARK CONF_INDEPENDENT:        2.685
REMARK UNBOUND:                -1.200
REMARK  9 active torsions:
REMARK  status: ('A' for Active; 'I' for Inactive)
REMARK    1  A    between atoms: C1_2  and  C2_3 
REMARK       I    between atoms: C1_2  and  N2_19 
REMARK    2  A    between atoms: C2_3  and  C3_4 
REMARK    3  A    between atoms: C3_4  and  C4_5 
REMARK    4  A    between atoms: C4_5  and  C5_6 
REMARK    5  A    between atoms: C5_6  and  C6_7 
REMARK    6  A    between atoms: C6_7  and  C7_8 
REMARK    7  A    between atoms: C7_8  and  C8_9 
REMARK       I    between atoms: C8_9  and  N1_11 
REMARK    8  A    between atoms: N1_11  and  C9_12 
REMARK    9  A    between atoms: N2_19  and  O3_20 
ROOT
ATOM      1  C7  NON d   1     -39.849  18.788  -5.884  0.00  0.00     0.103 C 
ENDROOT
BRANCH   1   2
ATOM      2  C6  NON d   1     -41.283  18.371  -5.556  0.00  0.00     0.009 C 
BRANCH   2   3
ATOM      3  C5  NON d   1     -41.800  18.850  -4.194  0.00  0.00     0.000 C 
BRANCH   3   4
ATOM      4  C4  NON d   1     -42.850  17.946  -3.535  0.00  0.00     0.000 C 
BRANCH   4   5
ATOM      5  C3  NON d   1     -43.706  17.165  -4.536  0.00  0.00     0.009 C 
BRANCH   5   6
ATOM      6  C2  NON d   1     -45.186  17.140  -4.157  0.00  0.00     0.105 C 
BRANCH   6   7
ATOM      7  C1  NON d   1     -46.138  16.901  -5.316  0.00  0.00     0.240 C 
ATOM      8  O1  NON d   1     -46.385  17.730  -6.184  0.00  0.00    -0.271 OA
ATOM      9  N2  NON d   1     -46.639  15.609  -5.288  0.00  0.00    -0.237 N 
ATOM     10  H18 NON d   1     -46.697  15.117  -4.403  0.00  0.00     0.197 HD
BRANCH   9  11
ATOM     11  O3  NON d   1     -47.703  15.356  -6.180  0.00  0.00    -0.287 OA
ATOM     12  H19 NON d   1     -47.699  16.156  -6.738  0.00  0.00     0.244 HD
ENDBRANCH   9  11
ENDBRANCH   6   7
ENDBRANCH   5   6
ENDBRANCH   4   5
ENDBRANCH   3   4
ENDBRANCH   2   3
ENDBRANCH   1   2
BRANCH   1  13
ATOM     13  C8  NON d   1     -39.722  19.319  -7.307  0.00  0.00     0.222 C 
ATOM     14  O2  NON d   1     -40.682  19.384  -8.066  0.00  0.00    -0.273 OA
ATOM     15  N1  NON d   1     -38.423  19.716  -7.589  0.00  0.00    -0.327 N 
ATOM     16  H13 NON d   1     -37.743  19.598  -6.849  0.00  0.00     0.169 HD
BRANCH  15  17
ATOM     17  C9  NON d   1     -37.941  20.277  -8.793  0.00  0.00     0.034 A 
ATOM     18  C10 NON d   1     -38.461  21.436  -9.376  0.00  0.00     0.032 A 
ATOM     19  C11 NON d   1     -37.916  21.937 -10.568  0.00  0.00     0.044 A 
ATOM     20  C12 NON d   1     -36.858  21.276 -11.172  0.00  0.00     0.116 A 
ATOM     21  F1  NON d   1     -36.338  21.755 -12.310  0.00  0.00    -0.206 F 
ATOM     22  C13 NON d   1     -36.329  20.121 -10.609  0.00  0.00     0.044 A 
ATOM     23  C14 NON d   1     -36.870  19.622  -9.421  0.00  0.00     0.032 A 
ENDBRANCH  15  17
ENDBRANCH   1  13
TORSDOF 9
ENDMDL
