MODEL 1
REMARK VINA RESULT:   -13.797      0.000      0.000
REMARK INTER + INTRA:         -16.511
REMARK INTER:                 -15.886
REMARK INTRA:                  -0.625
REMARK CONF_INDEPENDENT:        2.088
REMARK UNBOUND:                -0.625
REMARK  7 active torsions:
REMARK  status: ('A' for Active; 'I' for Inactive)
REMARK    1  A    between atoms: N1_2  and  C3_4 
REMARK    2  A    between atoms: C6_7  and  C7_8 
REMARK    3  A    between atoms: C7_8  and  N2_9 
REMARK       I    between atoms: N2_9  and  C8_10 
REMARK       I    between atoms: C8_10  and  N3_12 
REMARK    4  A    between atoms: N3_12  and  C9_13 
REMARK    5  A    between atoms: C9_13  and  C10_14 
REMARK    6  A    between atoms: C10_14  and  C11_15 
REMARK       I    between atoms: C11_15  and  N4_17 
REMARK    7  A    between atoms: N4_17  and  O3_18 
ROOT
ATOM      1  N2  NON d   1     -44.306  16.840  -3.799  0.00  0.00    -0.339 N 
ATOM      2  C8  NON d   1     -45.612  17.162  -4.133  0.00  0.00     0.316 C 
ATOM      3  O1  NON d   1     -45.953  17.559  -5.241  0.00  0.00    -0.247 OA
ATOM      4  N3  NON d   1     -46.488  16.974  -3.085  0.00  0.00    -0.343 N 
ATOM      5  H11 NON d   1     -44.054  17.124  -2.865  0.00  0.00     0.164 HD
ATOM      6  H12 NON d   1     -46.232  16.182  -2.513  0.00  0.00     0.164 HD
ENDROOT
BRANCH   1   7
ATOM      7  C7  NON d   1     -43.309  17.067  -4.836  0.00  0.00     0.162 C 
BRANCH   7   8
ATOM      8  C6  NON d   1     -41.954  17.630  -4.453  0.00  0.00    -0.040 A 
ATOM      9  C5  NON d   1     -41.461  17.307  -3.176  0.00  0.00     0.011 A 
ATOM     10  C4  NON d   1     -40.192  17.729  -2.730  0.00  0.00     0.030 A 
ATOM     11  C3  NON d   1     -39.327  18.481  -3.534  0.00  0.00     0.029 A 
ATOM     12  C13 NON d   1     -39.847  18.824  -4.800  0.00  0.00     0.030 A 
ATOM     13  C12 NON d   1     -41.132  18.414  -5.258  0.00  0.00     0.011 A 
BRANCH  11  14
ATOM     14  N1  NON d   1     -38.039  18.834  -3.118  0.00  0.00    -0.390 N 
ATOM     15  C1  NON d   1     -37.581  20.288  -3.340  0.00  0.00     0.149 C 
ATOM     16  C2  NON d   1     -37.114  17.838  -2.393  0.00  0.00     0.149 C 
ENDBRANCH  11  14
ENDBRANCH   7   8
ENDBRANCH   1   7
BRANCH   4  17
ATOM     17  C9  NON d   1     -47.919  17.179  -3.330  0.00  0.00     0.134 C 
BRANCH  17  18
ATOM     18  C10 NON d   1     -48.532  16.076  -4.185  0.00  0.00     0.124 C 
BRANCH  18  19
ATOM     19  C11 NON d   1     -47.837  15.922  -5.531  0.00  0.00     0.242 C 
ATOM     20  O2  NON d   1     -48.190  16.505  -6.548  0.00  0.00    -0.271 OA
ATOM     21  N4  NON d   1     -46.796  15.010  -5.466  0.00  0.00    -0.237 N 
ATOM     22  H17 NON d   1     -46.323  14.850  -4.583  0.00  0.00     0.197 HD
BRANCH  21  23
ATOM     23  O3  NON d   1     -45.940  14.994  -6.595  0.00  0.00    -0.287 OA
ATOM     24  H18 NON d   1     -46.399  15.598  -7.212  0.00  0.00     0.244 HD
ENDBRANCH  21  23
ENDBRANCH  18  19
ENDBRANCH  17  18
ENDBRANCH   4  17
TORSDOF 7
ENDMDL
MODEL 2
REMARK VINA RESULT:   -13.481      0.963      1.700
REMARK INTER + INTRA:         -16.303
REMARK INTER:                 -15.569
REMARK INTRA:                  -0.734
REMARK CONF_INDEPENDENT:        2.088
REMARK UNBOUND:                -0.734
REMARK  7 active torsions:
REMARK  status: ('A' for Active; 'I' for Inactive)
REMARK    1  A    between atoms: N1_2  and  C3_4 
REMARK    2  A    between atoms: C6_7  and  C7_8 
REMARK    3  A    between atoms: C7_8  and  N2_9 
REMARK       I    between atoms: N2_9  and  C8_10 
REMARK       I    between atoms: C8_10  and  N3_12 
REMARK    4  A    between atoms: N3_12  and  C9_13 
REMARK    5  A    between atoms: C9_13  and  C10_14 
REMARK    6  A    between atoms: C10_14  and  C11_15 
REMARK       I    between atoms: C11_15  and  N4_17 
REMARK    7  A    between atoms: N4_17  and  O3_18 
ROOT
ATOM      1  N2  NON d   1     -44.502  16.584  -3.485  0.00  0.00    -0.339 N 
ATOM      2  C8  NON d   1     -45.752  17.011  -3.905  0.00  0.00     0.316 C 
ATOM      3  O1  NON d   1     -45.969  17.503  -5.006  0.00  0.00    -0.247 OA
ATOM      4  N3  NON d   1     -46.728  16.811  -2.951  0.00  0.00    -0.343 N 
ATOM      5  H11 NON d   1     -44.319  16.788  -2.515  0.00  0.00     0.164 HD
ATOM      6  H12 NON d   1     -46.570  15.967  -2.419  0.00  0.00     0.164 HD
ENDROOT
BRANCH   1   7
ATOM      7  C7  NON d   1     -43.405  16.816  -4.414  0.00  0.00     0.162 C 
BRANCH   7   8
ATOM      8  C6  NON d   1     -42.250  17.704  -3.993  0.00  0.00    -0.040 A 
ATOM      9  C5  NON d   1     -41.861  18.719  -4.887  0.00  0.00     0.011 A 
ATOM     10  C4  NON d   1     -40.837  19.637  -4.582  0.00  0.00     0.030 A 
ATOM     11  C3  NON d   1     -40.148  19.615  -3.363  0.00  0.00     0.029 A 
ATOM     12  C13 NON d   1     -40.527  18.573  -2.490  0.00  0.00     0.030 A 
ATOM     13  C12 NON d   1     -41.553  17.633  -2.791  0.00  0.00     0.011 A 
BRANCH  11  14
ATOM     14  N1  NON d   1     -39.185  20.574  -3.032  0.00  0.00    -0.390 N 
ATOM     15  C1  NON d   1     -37.924  20.102  -2.284  0.00  0.00     0.149 C 
ATOM     16  C2  NON d   1     -39.322  22.049  -3.456  0.00  0.00     0.149 C 
ENDBRANCH  11  14
ENDBRANCH   7   8
ENDBRANCH   1   7
BRANCH   4  17
ATOM     17  C9  NON d   1     -48.117  17.123  -3.302  0.00  0.00     0.134 C 
BRANCH  17  18
ATOM     18  C10 NON d   1     -48.724  16.104  -4.259  0.00  0.00     0.124 C 
BRANCH  18  19
ATOM     19  C11 NON d   1     -47.948  15.988  -5.563  0.00  0.00     0.242 C 
ATOM     20  O2  NON d   1     -48.189  16.657  -6.559  0.00  0.00    -0.271 OA
ATOM     21  N4  NON d   1     -46.973  15.005  -5.491  0.00  0.00    -0.237 N 
ATOM     22  H17 NON d   1     -46.575  14.758  -4.592  0.00  0.00     0.197 HD
BRANCH  21  23
ATOM     23  O3  NON d   1     -46.043  15.002  -6.560  0.00  0.00    -0.287 OA
ATOM     24  H18 NON d   1     -46.532  15.474  -7.262  0.00  0.00     0.244 HD
ENDBRANCH  21  23
ENDBRANCH  18  19
ENDBRANCH  17  18
ENDBRANCH   4  17
TORSDOF 7
ENDMDL
MODEL 3
REMARK VINA RESULT:   -12.748      3.910      4.918
REMARK INTER + INTRA:         -16.436
REMARK INTER:                 -14.836
REMARK INTRA:                  -1.600
REMARK CONF_INDEPENDENT:        2.088
REMARK UNBOUND:                -1.600
REMARK  7 active torsions:
REMARK  status: ('A' for Active; 'I' for Inactive)
REMARK    1  A    between atoms: N1_2  and  C3_4 
REMARK    2  A    between atoms: C6_7  and  C7_8 
REMARK    3  A    between atoms: C7_8  and  N2_9 
REMARK       I    between atoms: N2_9  and  C8_10 
REMARK       I    between atoms: C8_10  and  N3_12 
REMARK    4  A    between atoms: N3_12  and  C9_13 
REMARK    5  A    between atoms: C9_13  and  C10_14 
REMARK    6  A    between atoms: C10_14  and  C11_15 
REMARK       I    between atoms: C11_15  and  N4_17 
REMARK    7  A    between atoms: N4_17  and  O3_18 
ROOT
ATOM      1  N2  NON d   1     -41.628  18.101  -5.837  0.00  0.00    -0.339 N 
ATOM      2  C8  NON d   1     -42.220  17.832  -4.614  0.00  0.00     0.316 C 
ATOM      3  O1  NON d   1     -41.739  18.162  -3.537  0.00  0.00    -0.247 OA
ATOM      4  N3  NON d   1     -43.418  17.161  -4.743  0.00  0.00    -0.343 N 
ATOM      5  H11 NON d   1     -41.722  17.347  -6.500  0.00  0.00     0.164 HD
ATOM      6  H12 NON d   1     -43.929  17.451  -5.565  0.00  0.00     0.164 HD
ENDROOT
BRANCH   1   7
ATOM      7  C7  NON d   1     -40.328  18.756  -5.785  0.00  0.00     0.162 C 
BRANCH   7   8
ATOM      8  C6  NON d   1     -39.842  19.541  -6.988  0.00  0.00    -0.040 A 
ATOM      9  C5  NON d   1     -38.558  19.238  -7.477  0.00  0.00     0.011 A 
ATOM     10  C4  NON d   1     -38.021  19.864  -8.620  0.00  0.00     0.030 A 
ATOM     11  C3  NON d   1     -38.735  20.816  -9.358  0.00  0.00     0.029 A 
ATOM     12  C13 NON d   1     -40.008  21.132  -8.838  0.00  0.00     0.030 A 
ATOM     13  C12 NON d   1     -40.557  20.515  -7.679  0.00  0.00     0.011 A 
BRANCH  11  14
ATOM     14  N1  NON d   1     -38.231  21.380 -10.535  0.00  0.00    -0.390 N 
ATOM     15  C1  NON d   1     -38.982  22.581 -11.140  0.00  0.00     0.149 C 
ATOM     16  C2  NON d   1     -36.926  20.881 -11.185  0.00  0.00     0.149 C 
ENDBRANCH  11  14
ENDBRANCH   7   8
ENDBRANCH   1   7
BRANCH   4  17
ATOM     17  C9  NON d   1     -44.204  16.902  -3.532  0.00  0.00     0.134 C 
BRANCH  17  18
ATOM     18  C10 NON d   1     -45.681  17.234  -3.707  0.00  0.00     0.124 C 
BRANCH  18  19
ATOM     19  C11 NON d   1     -46.225  16.793  -5.059  0.00  0.00     0.242 C 
ATOM     20  O2  NON d   1     -46.062  17.424  -6.095  0.00  0.00    -0.271 OA
ATOM     21  N4  NON d   1     -46.960  15.622  -4.956  0.00  0.00    -0.237 N 
ATOM     22  H17 NON d   1     -46.763  14.970  -4.205  0.00  0.00     0.197 HD
BRANCH  21  23
ATOM     23  O3  NON d   1     -47.286  15.008  -6.190  0.00  0.00    -0.287 OA
ATOM     24  H18 NON d   1     -47.031  15.695  -6.838  0.00  0.00     0.244 HD
ENDBRANCH  21  23
ENDBRANCH  18  19
ENDBRANCH  17  18
ENDBRANCH   4  17
TORSDOF 7
ENDMDL
MODEL 4
REMARK VINA RESULT:   -12.735      3.878      4.885
REMARK INTER + INTRA:         -16.424
REMARK INTER:                 -14.823
REMARK INTRA:                  -1.601
REMARK CONF_INDEPENDENT:        2.088
REMARK UNBOUND:                -1.601
REMARK  7 active torsions:
REMARK  status: ('A' for Active; 'I' for Inactive)
REMARK    1  A    between atoms: N1_2  and  C3_4 
REMARK    2  A    between atoms: C6_7  and  C7_8 
REMARK    3  A    between atoms: C7_8  and  N2_9 
REMARK       I    between atoms: N2_9  and  C8_10 
REMARK       I    between atoms: C8_10  and  N3_12 
REMARK    4  A    between atoms: N3_12  and  C9_13 
REMARK    5  A    between atoms: C9_13  and  C10_14 
REMARK    6  A    between atoms: C10_14  and  C11_15 
REMARK       I    between atoms: C11_15  and  N4_17 
REMARK    7  A    between atoms: N4_17  and  O3_18 
ROOT
ATOM      1  N2  NON d   1     -41.754  18.212  -5.807  0.00  0.00    -0.339 N 
ATOM      2  C8  NON d   1     -42.308  17.879  -4.582  0.00  0.00     0.316 C 
ATOM      3  O1  NON d   1     -41.734  18.030  -3.510  0.00  0.00    -0.247 OA
ATOM      4  N3  NON d   1     -43.585  17.369  -4.701  0.00  0.00    -0.343 N 
ATOM      5  H11 NON d   1     -41.975  17.551  -6.536  0.00  0.00     0.164 HD
ATOM      6  H12 NON d   1     -44.099  17.805  -5.452  0.00  0.00     0.164 HD
ENDROOT
BRANCH   1   7
ATOM      7  C7  NON d   1     -40.383  18.703  -5.774  0.00  0.00     0.162 C 
BRANCH   7   8
ATOM      8  C6  NON d   1     -39.770  19.282  -7.034  0.00  0.00    -0.040 A 
ATOM      9  C5  NON d   1     -40.409  20.396  -7.607  0.00  0.00     0.011 A 
ATOM     10  C4  NON d   1     -39.901  21.051  -8.747  0.00  0.00     0.030 A 
ATOM     11  C3  NON d   1     -38.717  20.649  -9.377  0.00  0.00     0.029 A 
ATOM     12  C13 NON d   1     -38.104  19.512  -8.810  0.00  0.00     0.030 A 
ATOM     13  C12 NON d   1     -38.612  18.835  -7.666  0.00  0.00     0.011 A 
BRANCH  11  14
ATOM     14  N1  NON d   1     -38.175  21.346 -10.462  0.00  0.00    -0.390 N 
ATOM     15  C1  NON d   1     -39.127  22.198 -11.322  0.00  0.00     0.149 C 
ATOM     16  C2  NON d   1     -36.665  21.336 -10.766  0.00  0.00     0.149 C 
ENDBRANCH  11  14
ENDBRANCH   7   8
ENDBRANCH   1   7
BRANCH   4  17
ATOM     17  C9  NON d   1     -44.330  17.070  -3.473  0.00  0.00     0.134 C 
BRANCH  17  18
ATOM     18  C10 NON d   1     -45.835  17.237  -3.644  0.00  0.00     0.124 C 
BRANCH  18  19
ATOM     19  C11 NON d   1     -46.323  16.795  -5.016  0.00  0.00     0.242 C 
ATOM     20  O2  NON d   1     -46.121  17.427  -6.044  0.00  0.00    -0.271 OA
ATOM     21  N4  NON d   1     -47.056  15.621  -4.943  0.00  0.00    -0.237 N 
ATOM     22  H17 NON d   1     -46.886  14.969  -4.185  0.00  0.00     0.197 HD
BRANCH  21  23
ATOM     23  O3  NON d   1     -47.329  15.005  -6.189  0.00  0.00    -0.287 OA
ATOM     24  H18 NON d   1     -46.807  15.551  -6.810  0.00  0.00     0.244 HD
ENDBRANCH  21  23
ENDBRANCH  18  19
ENDBRANCH  17  18
ENDBRANCH   4  17
TORSDOF 7
ENDMDL
MODEL 5
REMARK VINA RESULT:   -12.601      3.856      4.922
REMARK INTER + INTRA:         -16.324
REMARK INTER:                 -14.689
REMARK INTRA:                  -1.635
REMARK CONF_INDEPENDENT:        2.088
REMARK UNBOUND:                -1.635
REMARK  7 active torsions:
REMARK  status: ('A' for Active; 'I' for Inactive)
REMARK    1  A    between atoms: N1_2  and  C3_4 
REMARK    2  A    between atoms: C6_7  and  C7_8 
REMARK    3  A    between atoms: C7_8  and  N2_9 
REMARK       I    between atoms: N2_9  and  C8_10 
REMARK       I    between atoms: C8_10  and  N3_12 
REMARK    4  A    between atoms: N3_12  and  C9_13 
REMARK    5  A    between atoms: C9_13  and  C10_14 
REMARK    6  A    between atoms: C10_14  and  C11_15 
REMARK       I    between atoms: C11_15  and  N4_17 
REMARK    7  A    between atoms: N4_17  and  O3_18 
ROOT
ATOM      1  N2  NON d   1     -41.640  17.997  -5.762  0.00  0.00    -0.339 N 
ATOM      2  C8  NON d   1     -42.268  17.826  -4.539  0.00  0.00     0.316 C 
ATOM      3  O1  NON d   1     -41.832  18.265  -3.481  0.00  0.00    -0.247 OA
ATOM      4  N3  NON d   1     -43.447  17.118  -4.644  0.00  0.00    -0.343 N 
ATOM      5  H11 NON d   1     -41.696  17.183  -6.354  0.00  0.00     0.164 HD
ATOM      6  H12 NON d   1     -43.935  17.319  -5.506  0.00  0.00     0.164 HD
ENDROOT
BRANCH   1   7
ATOM      7  C7  NON d   1     -40.357  18.686  -5.728  0.00  0.00     0.162 C 
BRANCH   7   8
ATOM      8  C6  NON d   1     -40.089  19.807  -6.713  0.00  0.00    -0.040 A 
ATOM      9  C5  NON d   1     -39.789  19.441  -8.038  0.00  0.00     0.011 A 
ATOM     10  C4  NON d   1     -39.574  20.396  -9.052  0.00  0.00     0.030 A 
ATOM     11  C3  NON d   1     -39.661  21.773  -8.815  0.00  0.00     0.029 A 
ATOM     12  C13 NON d   1     -39.931  22.126  -7.476  0.00  0.00     0.030 A 
ATOM     13  C12 NON d   1     -40.140  21.171  -6.440  0.00  0.00     0.011 A 
BRANCH  11  14
ATOM     14  N1  NON d   1     -39.522  22.717  -9.839  0.00  0.00    -0.390 N 
ATOM     15  C1  NON d   1     -39.909  24.176  -9.533  0.00  0.00     0.149 C 
ATOM     16  C2  NON d   1     -38.933  22.348 -11.214  0.00  0.00     0.149 C 
ENDBRANCH  11  14
ENDBRANCH   7   8
ENDBRANCH   1   7
BRANCH   4  17
ATOM     17  C9  NON d   1     -44.268  16.952  -3.441  0.00  0.00     0.134 C 
BRANCH  17  18
ATOM     18  C10 NON d   1     -45.743  17.245  -3.690  0.00  0.00     0.124 C 
BRANCH  18  19
ATOM     19  C11 NON d   1     -46.205  16.797  -5.070  0.00  0.00     0.242 C 
ATOM     20  O2  NON d   1     -45.982  17.425  -6.097  0.00  0.00    -0.271 OA
ATOM     21  N4  NON d   1     -46.942  15.625  -5.006  0.00  0.00    -0.237 N 
ATOM     22  H17 NON d   1     -46.787  14.976  -4.242  0.00  0.00     0.197 HD
BRANCH  21  23
ATOM     23  O3  NON d   1     -47.192  15.005  -6.255  0.00  0.00    -0.287 OA
ATOM     24  H18 NON d   1     -47.114  15.754  -6.878  0.00  0.00     0.244 HD
ENDBRANCH  21  23
ENDBRANCH  18  19
ENDBRANCH  17  18
ENDBRANCH   4  17
TORSDOF 7
ENDMDL
MODEL 6
REMARK VINA RESULT:   -12.570      3.646      4.616
REMARK INTER + INTRA:         -15.766
REMARK INTER:                 -14.658
REMARK INTRA:                  -1.108
REMARK CONF_INDEPENDENT:        2.088
REMARK UNBOUND:                -1.108
REMARK  7 active torsions:
REMARK  status: ('A' for Active; 'I' for Inactive)
REMARK    1  A    between atoms: N1_2  and  C3_4 
REMARK    2  A    between atoms: C6_7  and  C7_8 
REMARK    3  A    between atoms: C7_8  and  N2_9 
REMARK       I    between atoms: N2_9  and  C8_10 
REMARK       I    between atoms: C8_10  and  N3_12 
REMARK    4  A    between atoms: N3_12  and  C9_13 
REMARK    5  A    between atoms: C9_13  and  C10_14 
REMARK    6  A    between atoms: C10_14  and  C11_15 
REMARK       I    between atoms: C11_15  and  N4_17 
REMARK    7  A    between atoms: N4_17  and  O3_18 
ROOT
ATOM      1  N2  NON d   1     -41.334  19.504  -4.704  0.00  0.00    -0.339 N 
ATOM      2  C8  NON d   1     -41.922  18.398  -4.112  0.00  0.00     0.316 C 
ATOM      3  O1  NON d   1     -41.481  17.846  -3.111  0.00  0.00    -0.247 OA
ATOM      4  N3  NON d   1     -43.066  17.992  -4.768  0.00  0.00    -0.343 N 
ATOM      5  H11 NON d   1     -41.365  19.479  -5.711  0.00  0.00     0.164 HD
ATOM      6  H12 NON d   1     -43.586  18.774  -5.142  0.00  0.00     0.164 HD
ENDROOT
BRANCH   1   7
ATOM      7  C7  NON d   1     -40.087  19.959  -4.106  0.00  0.00     0.162 C 
BRANCH   7   8
ATOM      8  C6  NON d   1     -40.132  20.902  -2.918  0.00  0.00    -0.040 A 
ATOM      9  C5  NON d   1     -40.355  22.264  -3.187  0.00  0.00     0.011 A 
ATOM     10  C4  NON d   1     -40.469  23.225  -2.163  0.00  0.00     0.030 A 
ATOM     11  C3  NON d   1     -40.388  22.887  -0.806  0.00  0.00     0.029 A 
ATOM     12  C13 NON d   1     -40.133  21.523  -0.552  0.00  0.00     0.030 A 
ATOM     13  C12 NON d   1     -40.005  20.545  -1.579  0.00  0.00     0.011 A 
BRANCH  11  14
ATOM     14  N1  NON d   1     -40.577  23.829   0.211  0.00  0.00    -0.390 N 
ATOM     15  C1  NON d   1     -41.067  25.234  -0.188  0.00  0.00     0.149 C 
ATOM     16  C2  NON d   1     -40.377  23.477   1.697  0.00  0.00     0.149 C 
ENDBRANCH  11  14
ENDBRANCH   7   8
ENDBRANCH   1   7
BRANCH   4  17
ATOM     17  C9  NON d   1     -43.847  16.895  -4.188  0.00  0.00     0.134 C 
BRANCH  17  18
ATOM     18  C10 NON d   1     -45.315  17.255  -3.993  0.00  0.00     0.124 C 
BRANCH  18  19
ATOM     19  C11 NON d   1     -46.171  16.900  -5.200  0.00  0.00     0.242 C 
ATOM     20  O2  NON d   1     -46.288  17.618  -6.185  0.00  0.00    -0.271 OA
ATOM     21  N4  NON d   1     -46.831  15.695  -5.021  0.00  0.00    -0.237 N 
ATOM     22  H17 NON d   1     -46.437  14.994  -4.403  0.00  0.00     0.197 HD
BRANCH  21  23
ATOM     23  O3  NON d   1     -47.443  15.166  -6.184  0.00  0.00    -0.287 OA
ATOM     24  H18 NON d   1     -47.097  15.753  -6.886  0.00  0.00     0.244 HD
ENDBRANCH  21  23
ENDBRANCH  18  19
ENDBRANCH  17  18
ENDBRANCH   4  17
TORSDOF 7
ENDMDL
MODEL 7
REMARK VINA RESULT:   -12.188      3.323      4.261
REMARK INTER + INTRA:         -15.950
REMARK INTER:                 -14.276
REMARK INTRA:                  -1.674
REMARK CONF_INDEPENDENT:        2.088
REMARK UNBOUND:                -1.674
REMARK  7 active torsions:
REMARK  status: ('A' for Active; 'I' for Inactive)
REMARK    1  A    between atoms: N1_2  and  C3_4 
REMARK    2  A    between atoms: C6_7  and  C7_8 
REMARK    3  A    between atoms: C7_8  and  N2_9 
REMARK       I    between atoms: N2_9  and  C8_10 
REMARK       I    between atoms: C8_10  and  N3_12 
REMARK    4  A    between atoms: N3_12  and  C9_13 
REMARK    5  A    between atoms: C9_13  and  C10_14 
REMARK    6  A    between atoms: C10_14  and  C11_15 
REMARK       I    between atoms: C11_15  and  N4_17 
REMARK    7  A    between atoms: N4_17  and  O3_18 
ROOT
ATOM      1  N2  NON d   1     -41.808  18.929  -5.460  0.00  0.00    -0.339 N 
ATOM      2  C8  NON d   1     -42.309  18.246  -4.364  0.00  0.00     0.316 C 
ATOM      3  O1  NON d   1     -41.787  18.260  -3.255  0.00  0.00    -0.247 OA
ATOM      4  N3  NON d   1     -43.468  17.556  -4.655  0.00  0.00    -0.343 N 
ATOM      5  H11 NON d   1     -41.894  18.414  -6.323  0.00  0.00     0.164 HD
ATOM      6  H12 NON d   1     -44.043  18.047  -5.324  0.00  0.00     0.164 HD
ENDROOT
BRANCH   1   7
ATOM      7  C7  NON d   1     -40.553  19.636  -5.251  0.00  0.00     0.162 C 
BRANCH   7   8
ATOM      8  C6  NON d   1     -40.475  20.715  -4.187  0.00  0.00    -0.040 A 
ATOM      9  C5  NON d   1     -41.064  21.956  -4.486  0.00  0.00     0.011 A 
ATOM     10  C4  NON d   1     -41.100  23.015  -3.557  0.00  0.00     0.030 A 
ATOM     11  C3  NON d   1     -40.569  22.899  -2.267  0.00  0.00     0.029 A 
ATOM     12  C13 NON d   1     -39.953  21.660  -1.992  0.00  0.00     0.030 A 
ATOM     13  C12 NON d   1     -39.900  20.586  -2.925  0.00  0.00     0.011 A 
BRANCH  11  14
ATOM     14  N1  NON d   1     -40.672  23.925  -1.321  0.00  0.00    -0.390 N 
ATOM     15  C1  NON d   1     -41.018  23.538   0.129  0.00  0.00     0.149 C 
ATOM     16  C2  NON d   1     -40.383  25.395  -1.678  0.00  0.00     0.149 C 
ENDBRANCH  11  14
ENDBRANCH   7   8
ENDBRANCH   1   7
BRANCH   4  17
ATOM     17  C9  NON d   1     -44.162  16.871  -3.560  0.00  0.00     0.134 C 
BRANCH  17  18
ATOM     18  C10 NON d   1     -45.676  17.032  -3.631  0.00  0.00     0.124 C 
BRANCH  18  19
ATOM     19  C11 NON d   1     -46.240  16.672  -4.998  0.00  0.00     0.242 C 
ATOM     20  O2  NON d   1     -46.016  17.314  -6.016  0.00  0.00    -0.271 OA
ATOM     21  N4  NON d   1     -47.068  15.562  -4.932  0.00  0.00    -0.237 N 
ATOM     22  H17 NON d   1     -46.931  14.877  -4.197  0.00  0.00     0.197 HD
BRANCH  21  23
ATOM     23  O3  NON d   1     -47.430  15.008  -6.185  0.00  0.00    -0.287 OA
ATOM     24  H18 NON d   1     -46.846  15.491  -6.802  0.00  0.00     0.244 HD
ENDBRANCH  21  23
ENDBRANCH  18  19
ENDBRANCH  17  18
ENDBRANCH   4  17
TORSDOF 7
ENDMDL
MODEL 8
REMARK VINA RESULT:   -11.916      4.724     10.106
REMARK INTER + INTRA:         -15.517
REMARK INTER:                 -14.005
REMARK INTRA:                  -1.512
REMARK CONF_INDEPENDENT:        2.088
REMARK UNBOUND:                -1.512
REMARK  7 active torsions:
REMARK  status: ('A' for Active; 'I' for Inactive)
REMARK    1  A    between atoms: N1_2  and  C3_4 
REMARK    2  A    between atoms: C6_7  and  C7_8 
REMARK    3  A    between atoms: C7_8  and  N2_9 
REMARK       I    between atoms: N2_9  and  C8_10 
REMARK       I    between atoms: C8_10  and  N3_12 
REMARK    4  A    between atoms: N3_12  and  C9_13 
REMARK    5  A    between atoms: C9_13  and  C10_14 
REMARK    6  A    between atoms: C10_14  and  C11_15 
REMARK       I    between atoms: C11_15  and  N4_17 
REMARK    7  A    between atoms: N4_17  and  O3_18 
ROOT
ATOM      1  N2  NON d   1     -49.684  15.339  -2.721  0.00  0.00    -0.339 N 
ATOM      2  C8  NON d   1     -48.860  16.390  -3.088  0.00  0.00     0.316 C 
ATOM      3  O1  NON d   1     -49.248  17.380  -3.698  0.00  0.00    -0.247 OA
ATOM      4  N3  NON d   1     -47.555  16.207  -2.679  0.00  0.00    -0.343 N 
ATOM      5  H11 NON d   1     -49.242  14.437  -2.812  0.00  0.00     0.164 HD
ATOM      6  H12 NON d   1     -47.499  15.730  -1.791  0.00  0.00     0.164 HD
ENDROOT
BRANCH   1   7
ATOM      7  C7  NON d   1     -51.068  15.429  -3.167  0.00  0.00     0.162 C 
BRANCH   7   8
ATOM      8  C6  NON d   1     -52.041  16.304  -2.401  0.00  0.00    -0.040 A 
ATOM      9  C5  NON d   1     -51.494  17.256  -1.521  0.00  0.00     0.011 A 
ATOM     10  C4  NON d   1     -52.297  18.159  -0.796  0.00  0.00     0.030 A 
ATOM     11  C3  NON d   1     -53.692  18.184  -0.915  0.00  0.00     0.029 A 
ATOM     12  C13 NON d   1     -54.228  17.203  -1.777  0.00  0.00     0.030 A 
ATOM     13  C12 NON d   1     -53.429  16.278  -2.506  0.00  0.00     0.011 A 
BRANCH  11  14
ATOM     14  N1  NON d   1     -54.481  19.130  -0.253  0.00  0.00    -0.390 N 
ATOM     15  C1  NON d   1     -55.684  18.622   0.564  0.00  0.00     0.149 C 
ATOM     16  C2  NON d   1     -54.136  20.631  -0.264  0.00  0.00     0.149 C 
ENDBRANCH  11  14
ENDBRANCH   7   8
ENDBRANCH   1   7
BRANCH   4  17
ATOM     17  C9  NON d   1     -46.596  17.291  -2.911  0.00  0.00     0.134 C 
BRANCH  17  18
ATOM     18  C10 NON d   1     -45.558  16.942  -3.971  0.00  0.00     0.124 C 
BRANCH  18  19
ATOM     19  C11 NON d   1     -46.186  16.497  -5.284  0.00  0.00     0.242 C 
ATOM     20  O2  NON d   1     -45.636  15.748  -6.081  0.00  0.00    -0.271 OA
ATOM     21  N4  NON d   1     -47.429  17.080  -5.479  0.00  0.00    -0.237 N 
ATOM     22  H17 NON d   1     -47.979  17.368  -4.677  0.00  0.00     0.197 HD
BRANCH  21  23
ATOM     23  O3  NON d   1     -48.190  16.530  -6.540  0.00  0.00    -0.287 OA
ATOM     24  H18 NON d   1     -47.498  16.151  -7.117  0.00  0.00     0.244 HD
ENDBRANCH  21  23
ENDBRANCH  18  19
ENDBRANCH  17  18
ENDBRANCH   4  17
TORSDOF 7
ENDMDL
MODEL 9
REMARK VINA RESULT:   -11.728      3.886      4.898
REMARK INTER + INTRA:         -15.430
REMARK INTER:                 -13.816
REMARK INTRA:                  -1.614
REMARK CONF_INDEPENDENT:        2.088
REMARK UNBOUND:                -1.614
REMARK  7 active torsions:
REMARK  status: ('A' for Active; 'I' for Inactive)
REMARK    1  A    between atoms: N1_2  and  C3_4 
REMARK    2  A    between atoms: C6_7  and  C7_8 
REMARK    3  A    between atoms: C7_8  and  N2_9 
REMARK       I    between atoms: N2_9  and  C8_10 
REMARK       I    between atoms: C8_10  and  N3_12 
REMARK    4  A    between atoms: N3_12  and  C9_13 
REMARK    5  A    between atoms: C9_13  and  C10_14 
REMARK    6  A    between atoms: C10_14  and  C11_15 
REMARK       I    between atoms: C11_15  and  N4_17 
REMARK    7  A    between atoms: N4_17  and  O3_18 
ROOT
ATOM      1  N2  NON d   1     -41.962  19.338  -5.670  0.00  0.00    -0.339 N 
ATOM      2  C8  NON d   1     -42.256  18.479  -4.624  0.00  0.00     0.316 C 
ATOM      3  O1  NON d   1     -41.527  18.314  -3.652  0.00  0.00    -0.247 OA
ATOM      4  N3  NON d   1     -43.467  17.838  -4.789  0.00  0.00    -0.343 N 
ATOM      5  H11 NON d   1     -42.228  18.972  -6.571  0.00  0.00     0.164 HD
ATOM      6  H12 NON d   1     -44.149  18.429  -5.242  0.00  0.00     0.164 HD
ENDROOT
BRANCH   1   7
ATOM      7  C7  NON d   1     -40.672  20.009  -5.600  0.00  0.00     0.162 C 
BRANCH   7   8
ATOM      8  C6  NON d   1     -40.603  21.436  -5.091  0.00  0.00    -0.040 A 
ATOM      9  C5  NON d   1     -40.116  22.413  -5.978  0.00  0.00     0.011 A 
ATOM     10  C4  NON d   1     -40.056  23.779  -5.636  0.00  0.00     0.030 A 
ATOM     11  C3  NON d   1     -40.493  24.260  -4.396  0.00  0.00     0.029 A 
ATOM     12  C13 NON d   1     -40.950  23.266  -3.505  0.00  0.00     0.030 A 
ATOM     13  C12 NON d   1     -41.005  21.882  -3.835  0.00  0.00     0.011 A 
BRANCH  11  14
ATOM     14  N1  NON d   1     -40.503  25.624  -4.086  0.00  0.00    -0.390 N 
ATOM     15  C1  NON d   1     -39.147  26.339  -3.930  0.00  0.00     0.149 C 
ATOM     16  C2  NON d   1     -41.813  26.425  -3.970  0.00  0.00     0.149 C 
ENDBRANCH  11  14
ENDBRANCH   7   8
ENDBRANCH   1   7
BRANCH   4  17
ATOM     17  C9  NON d   1     -43.950  16.977  -3.705  0.00  0.00     0.134 C 
BRANCH  17  18
ATOM     18  C10 NON d   1     -45.472  16.933  -3.624  0.00  0.00     0.124 C 
BRANCH  18  19
ATOM     19  C11 NON d   1     -46.124  16.662  -4.972  0.00  0.00     0.242 C 
ATOM     20  O2  NON d   1     -45.958  17.364  -5.960  0.00  0.00    -0.271 OA
ATOM     21  N4  NON d   1     -46.959  15.556  -4.922  0.00  0.00    -0.237 N 
ATOM     22  H17 NON d   1     -46.783  14.826  -4.240  0.00  0.00     0.197 HD
BRANCH  21  23
ATOM     23  O3  NON d   1     -47.404  15.083  -6.180  0.00  0.00    -0.287 OA
ATOM     24  H18 NON d   1     -46.997  15.722  -6.798  0.00  0.00     0.244 HD
ENDBRANCH  21  23
ENDBRANCH  18  19
ENDBRANCH  17  18
ENDBRANCH   4  17
TORSDOF 7
ENDMDL
