MODEL 1
REMARK VINA RESULT:   -14.954      0.000      0.000
REMARK INTER + INTRA:         -18.339
REMARK INTER:                 -17.043
REMARK INTRA:                  -1.297
REMARK CONF_INDEPENDENT:        2.088
REMARK UNBOUND:                -1.297
REMARK  7 active torsions:
REMARK  status: ('A' for Active; 'I' for Inactive)
REMARK    1  A    between atoms: O1_2  and  C2_3 
REMARK    2  A    between atoms: C5_6  and  S1_7 
REMARK    3  A    between atoms: S1_7  and  N1_10 
REMARK    4  A    between atoms: C10_15  and  C11_16 
REMARK    5  A    between atoms: C12_17  and  C13_18 
REMARK       I    between atoms: C13_18  and  N2_20 
REMARK    6  A    between atoms: N2_20  and  O5_21 
REMARK    7  A    between atoms: C18_26  and  O6_27 
ROOT
ATOM      1  N1  NON d   1     -40.301  20.691  -2.698  0.00  0.00    -0.246 N 
ATOM      2  C6  NON d   1     -39.978  20.009  -1.549  0.00  0.00     0.111 C 
ATOM      3  C7  NON d   1     -40.675  18.820  -1.569  0.00  0.00     0.032 C 
ATOM      4  C8  NON d   1     -41.393  18.758  -2.799  0.00  0.00    -0.006 A 
ATOM      5  C9  NON d   1     -42.330  17.844  -3.338  0.00  0.00     0.025 A 
ATOM      6  C10 NON d   1     -42.887  18.060  -4.613  0.00  0.00    -0.035 A 
ATOM      7  C14 NON d   1     -42.458  19.166  -5.350  0.00  0.00     0.014 A 
ATOM      8  C15 NON d   1     -41.540  20.090  -4.840  0.00  0.00     0.032 A 
ATOM      9  C16 NON d   1     -41.056  19.900  -3.540  0.00  0.00     0.060 A 
ENDROOT
BRANCH   1  10
ATOM     10  S1  NON d   1     -40.145  22.386  -2.829  0.00  0.00     0.269 S 
ATOM     11  O2  NON d   1     -38.844  22.657  -3.413  0.00  0.00    -0.200 OA
ATOM     12  O3  NON d   1     -41.359  22.824  -3.494  0.00  0.00    -0.200 OA
BRANCH  10  13
ATOM     13  C5  NON d   1     -40.147  23.085  -1.191  0.00  0.00     0.083 C 
ATOM     14  C4  NON d   1     -39.617  22.323  -0.147  0.00  0.00     0.028 C 
ATOM     15  C3  NON d   1     -40.001  22.606   1.163  0.00  0.00     0.041 C 
ATOM     16  C2  NON d   1     -40.930  23.623   1.429  0.00  0.00     0.101 C 
ATOM     17  C18 NON d   1     -41.357  24.478   0.411  0.00  0.00     0.102 C 
ATOM     18  C17 NON d   1     -40.968  24.189  -0.910  0.00  0.00     0.065 C 
BRANCH  16  19
ATOM     19  O1  NON d   1     -41.416  23.695   2.709  0.00  0.00    -0.353 OA
ATOM     20  C1  NON d   1     -40.916  24.887   3.334  0.00  0.00     0.210 C 
ENDBRANCH  16  19
BRANCH  17  21
ATOM     21  O6  NON d   1     -42.163  25.580   0.523  0.00  0.00    -0.353 OA
ATOM     22  C19 NON d   1     -41.440  26.934   0.640  0.00  0.00     0.210 C 
ENDBRANCH  17  21
ENDBRANCH  10  13
ENDBRANCH   1  10
BRANCH   6  23
ATOM     23  C11 NON d   1     -43.952  17.152  -5.089  0.00  0.00     0.017 C 
ATOM     24  C12 NON d   1     -45.207  17.527  -5.385  0.00  0.00     0.077 C 
BRANCH  24  25
ATOM     25  C13 NON d   1     -46.217  16.526  -5.806  0.00  0.00     0.264 C 
ATOM     26  O4  NON d   1     -45.940  15.380  -6.139  0.00  0.00    -0.266 OA
ATOM     27  N2  NON d   1     -47.498  17.012  -5.781  0.00  0.00    -0.234 N 
ATOM     28  H11 NON d   1     -47.781  17.939  -5.489  0.00  0.00     0.197 HD
BRANCH  27  29
ATOM     29  O5  NON d   1     -48.524  16.127  -6.179  0.00  0.00    -0.287 OA
ATOM     30  H12 NON d   1     -48.024  15.424  -6.645  0.00  0.00     0.244 HD
ENDBRANCH  27  29
ENDBRANCH  24  25
ENDBRANCH   6  23
TORSDOF 7
ENDMDL
MODEL 2
REMARK VINA RESULT:   -14.529      1.192      1.817
REMARK INTER + INTRA:         -18.417
REMARK INTER:                 -16.617
REMARK INTRA:                  -1.800
REMARK CONF_INDEPENDENT:        2.088
REMARK UNBOUND:                -1.800
REMARK  7 active torsions:
REMARK  status: ('A' for Active; 'I' for Inactive)
REMARK    1  A    between atoms: O1_2  and  C2_3 
REMARK    2  A    between atoms: C5_6  and  S1_7 
REMARK    3  A    between atoms: S1_7  and  N1_10 
REMARK    4  A    between atoms: C10_15  and  C11_16 
REMARK    5  A    between atoms: C12_17  and  C13_18 
REMARK       I    between atoms: C13_18  and  N2_20 
REMARK    6  A    between atoms: N2_20  and  O5_21 
REMARK    7  A    between atoms: C18_26  and  O6_27 
ROOT
ATOM      1  N1  NON d   1     -39.682  20.362  -2.917  0.00  0.00    -0.246 N 
ATOM      2  C6  NON d   1     -39.154  19.431  -2.053  0.00  0.00     0.111 C 
ATOM      3  C7  NON d   1     -39.920  18.291  -2.162  0.00  0.00     0.032 C 
ATOM      4  C8  NON d   1     -40.903  18.522  -3.169  0.00  0.00    -0.006 A 
ATOM      5  C9  NON d   1     -42.001  17.770  -3.653  0.00  0.00     0.025 A 
ATOM      6  C10 NON d   1     -42.817  18.279  -4.680  0.00  0.00    -0.035 A 
ATOM      7  C14 NON d   1     -42.491  19.516  -5.242  0.00  0.00     0.014 A 
ATOM      8  C15 NON d   1     -41.417  20.284  -4.778  0.00  0.00     0.032 A 
ATOM      9  C16 NON d   1     -40.663  19.795  -3.704  0.00  0.00     0.060 A 
ENDROOT
BRANCH   1  10
ATOM     10  S1  NON d   1     -39.441  22.039  -2.711  0.00  0.00     0.269 S 
ATOM     11  O2  NON d   1     -38.007  22.266  -2.653  0.00  0.00    -0.200 OA
ATOM     12  O3  NON d   1     -40.246  22.664  -3.745  0.00  0.00    -0.200 OA
BRANCH  10  13
ATOM     13  C5  NON d   1     -40.118  22.522  -1.136  0.00  0.00     0.083 C 
ATOM     14  C4  NON d   1     -41.304  23.260  -1.125  0.00  0.00     0.028 C 
ATOM     15  C3  NON d   1     -41.613  24.032  -0.007  0.00  0.00     0.041 C 
ATOM     16  C2  NON d   1     -40.732  24.090   1.083  0.00  0.00     0.101 C 
ATOM     17  C18 NON d   1     -39.617  23.252   1.141  0.00  0.00     0.102 C 
ATOM     18  C17 NON d   1     -39.308  22.475   0.009  0.00  0.00     0.065 C 
BRANCH  16  19
ATOM     19  O1  NON d   1     -41.001  25.032   2.043  0.00  0.00    -0.353 OA
ATOM     20  C1  NON d   1     -41.147  24.378   3.314  0.00  0.00     0.210 C 
ENDBRANCH  16  19
BRANCH  17  21
ATOM     21  O6  NON d   1     -38.730  23.105   2.174  0.00  0.00    -0.353 OA
ATOM     22  C19 NON d   1     -37.722  24.253   2.364  0.00  0.00     0.210 C 
ENDBRANCH  17  21
ENDBRANCH  10  13
ENDBRANCH   1  10
BRANCH   6  23
ATOM     23  C11 NON d   1     -44.025  17.523  -5.073  0.00  0.00     0.017 C 
ATOM     24  C12 NON d   1     -45.195  18.074  -5.435  0.00  0.00     0.077 C 
BRANCH  24  25
ATOM     25  C13 NON d   1     -46.364  17.222  -5.760  0.00  0.00     0.264 C 
ATOM     26  O4  NON d   1     -47.426  17.660  -6.185  0.00  0.00    -0.266 OA
ATOM     27  N2  NON d   1     -46.136  15.889  -5.539  0.00  0.00    -0.234 N 
ATOM     28  H11 NON d   1     -45.270  15.476  -5.215  0.00  0.00     0.197 HD
BRANCH  27  29
ATOM     29  O5  NON d   1     -47.203  15.005  -5.810  0.00  0.00    -0.287 OA
ATOM     30  H12 NON d   1     -47.729  15.509  -6.466  0.00  0.00     0.244 HD
ENDBRANCH  27  29
ENDBRANCH  24  25
ENDBRANCH   6  23
TORSDOF 7
ENDMDL
MODEL 3
REMARK VINA RESULT:   -14.417      1.451      2.212
REMARK INTER + INTRA:         -18.378
REMARK INTER:                 -16.506
REMARK INTRA:                  -1.872
REMARK CONF_INDEPENDENT:        2.088
REMARK UNBOUND:                -1.872
REMARK  7 active torsions:
REMARK  status: ('A' for Active; 'I' for Inactive)
REMARK    1  A    between atoms: O1_2  and  C2_3 
REMARK    2  A    between atoms: C5_6  and  S1_7 
REMARK    3  A    between atoms: S1_7  and  N1_10 
REMARK    4  A    between atoms: C10_15  and  C11_16 
REMARK    5  A    between atoms: C12_17  and  C13_18 
REMARK       I    between atoms: C13_18  and  N2_20 
REMARK    6  A    between atoms: N2_20  and  O5_21 
REMARK    7  A    between atoms: C18_26  and  O6_27 
ROOT
ATOM      1  N1  NON d   1     -39.134  19.414  -2.612  0.00  0.00    -0.246 N 
ATOM      2  C6  NON d   1     -38.850  18.183  -2.069  0.00  0.00     0.111 C 
ATOM      3  C7  NON d   1     -39.882  17.337  -2.414  0.00  0.00     0.032 C 
ATOM      4  C8  NON d   1     -40.784  18.066  -3.242  0.00  0.00    -0.006 A 
ATOM      5  C9  NON d   1     -42.042  17.765  -3.819  0.00  0.00     0.025 A 
ATOM      6  C10 NON d   1     -42.713  18.719  -4.607  0.00  0.00    -0.035 A 
ATOM      7  C14 NON d   1     -42.088  19.946  -4.847  0.00  0.00     0.014 A 
ATOM      8  C15 NON d   1     -40.850  20.273  -4.284  0.00  0.00     0.032 A 
ATOM      9  C16 NON d   1     -40.235  19.341  -3.440  0.00  0.00     0.060 A 
ENDROOT
BRANCH   1  10
ATOM     10  S1  NON d   1     -38.471  20.860  -1.992  0.00  0.00     0.269 S 
ATOM     11  O2  NON d   1     -37.700  20.512  -0.812  0.00  0.00    -0.200 OA
ATOM     12  O3  NON d   1     -37.834  21.499  -3.129  0.00  0.00    -0.200 OA
BRANCH  10  13
ATOM     13  C5  NON d   1     -39.806  21.914  -1.462  0.00  0.00     0.083 C 
ATOM     14  C4  NON d   1     -40.168  22.985  -2.281  0.00  0.00     0.028 C 
ATOM     15  C3  NON d   1     -40.849  24.066  -1.725  0.00  0.00     0.041 C 
ATOM     16  C2  NON d   1     -41.144  24.092  -0.353  0.00  0.00     0.101 C 
ATOM     17  C18 NON d   1     -40.911  22.970   0.444  0.00  0.00     0.102 C 
ATOM     18  C17 NON d   1     -40.222  21.882  -0.121  0.00  0.00     0.065 C 
BRANCH  16  19
ATOM     19  O1  NON d   1     -41.619  25.275   0.153  0.00  0.00    -0.353 OA
ATOM     20  C1  NON d   1     -40.581  26.266   0.079  0.00  0.00     0.210 C 
ENDBRANCH  16  19
BRANCH  17  21
ATOM     21  O6  NON d   1     -41.244  22.793   1.761  0.00  0.00    -0.353 OA
ATOM     22  C19 NON d   1     -41.013  24.005   2.682  0.00  0.00     0.210 C 
ENDBRANCH  17  21
ENDBRANCH  10  13
ENDBRANCH   1  10
BRANCH   6  23
ATOM     23  C11 NON d   1     -44.077  18.415  -5.088  0.00  0.00     0.017 C 
ATOM     24  C12 NON d   1     -44.675  17.215  -4.999  0.00  0.00     0.077 C 
BRANCH  24  25
ATOM     25  C13 NON d   1     -46.030  17.002  -5.563  0.00  0.00     0.264 C 
ATOM     26  O4  NON d   1     -46.649  17.856  -6.186  0.00  0.00    -0.266 OA
ATOM     27  N2  NON d   1     -46.522  15.747  -5.319  0.00  0.00    -0.234 N 
ATOM     28  H11 NON d   1     -46.041  14.999  -4.834  0.00  0.00     0.197 HD
BRANCH  27  29
ATOM     29  O5  NON d   1     -47.815  15.461  -5.810  0.00  0.00    -0.287 OA
ATOM     30  H12 NON d   1     -47.852  16.001  -6.627  0.00  0.00     0.244 HD
ENDBRANCH  27  29
ENDBRANCH  24  25
ENDBRANCH   6  23
TORSDOF 7
ENDMDL
MODEL 4
REMARK VINA RESULT:   -14.129      2.662      3.624
REMARK INTER + INTRA:         -18.085
REMARK INTER:                 -16.217
REMARK INTRA:                  -1.868
REMARK CONF_INDEPENDENT:        2.088
REMARK UNBOUND:                -1.868
REMARK  7 active torsions:
REMARK  status: ('A' for Active; 'I' for Inactive)
REMARK    1  A    between atoms: O1_2  and  C2_3 
REMARK    2  A    between atoms: C5_6  and  S1_7 
REMARK    3  A    between atoms: S1_7  and  N1_10 
REMARK    4  A    between atoms: C10_15  and  C11_16 
REMARK    5  A    between atoms: C12_17  and  C13_18 
REMARK       I    between atoms: C13_18  and  N2_20 
REMARK    6  A    between atoms: N2_20  and  O5_21 
REMARK    7  A    between atoms: C18_26  and  O6_27 
ROOT
ATOM      1  N1  NON d   1     -39.006  19.189  -3.753  0.00  0.00    -0.246 N 
ATOM      2  C6  NON d   1     -38.733  19.944  -4.869  0.00  0.00     0.111 C 
ATOM      3  C7  NON d   1     -39.828  19.854  -5.701  0.00  0.00     0.032 C 
ATOM      4  C8  NON d   1     -40.815  19.068  -5.037  0.00  0.00    -0.006 A 
ATOM      5  C9  NON d   1     -42.085  18.569  -5.417  0.00  0.00     0.025 A 
ATOM      6  C10 NON d   1     -42.846  17.797  -4.521  0.00  0.00    -0.035 A 
ATOM      7  C14 NON d   1     -42.344  17.577  -3.235  0.00  0.00     0.014 A 
ATOM      8  C15 NON d   1     -41.090  18.051  -2.835  0.00  0.00     0.032 A 
ATOM      9  C16 NON d   1     -40.315  18.752  -3.767  0.00  0.00     0.060 A 
ENDROOT
BRANCH   1  10
ATOM     10  S1  NON d   1     -37.774  18.553  -2.756  0.00  0.00     0.269 S 
ATOM     11  O2  NON d   1     -38.328  17.406  -2.061  0.00  0.00    -0.200 OA
ATOM     12  O3  NON d   1     -36.625  18.402  -3.631  0.00  0.00    -0.200 OA
BRANCH  10  13
ATOM     13  C5  NON d   1     -37.356  19.769  -1.524  0.00  0.00     0.083 C 
ATOM     14  C4  NON d   1     -36.363  19.454  -0.595  0.00  0.00     0.028 C 
ATOM     15  C3  NON d   1     -36.325  20.139   0.619  0.00  0.00     0.041 C 
ATOM     16  C2  NON d   1     -37.290  21.114   0.915  0.00  0.00     0.101 C 
ATOM     17  C18 NON d   1     -38.199  21.533  -0.058  0.00  0.00     0.102 C 
ATOM     18  C17 NON d   1     -38.233  20.838  -1.281  0.00  0.00     0.065 C 
BRANCH  16  19
ATOM     19  O1  NON d   1     -37.315  21.584   2.204  0.00  0.00    -0.353 OA
ATOM     20  C1  NON d   1     -37.088  23.002   2.190  0.00  0.00     0.210 C 
ENDBRANCH  16  19
BRANCH  17  21
ATOM     21  O6  NON d   1     -39.120  22.543   0.033  0.00  0.00    -0.353 OA
ATOM     22  C19 NON d   1     -40.304  22.290   0.984  0.00  0.00     0.210 C 
ENDBRANCH  17  21
ENDBRANCH  10  13
ENDBRANCH   1  10
BRANCH   6  23
ATOM     23  C11 NON d   1     -44.108  17.190  -4.995  0.00  0.00     0.017 C 
ATOM     24  C12 NON d   1     -45.215  17.874  -5.326  0.00  0.00     0.077 C 
BRANCH  24  25
ATOM     25  C13 NON d   1     -46.449  17.164  -5.740  0.00  0.00     0.264 C 
ATOM     26  O4  NON d   1     -47.440  17.728  -6.187  0.00  0.00    -0.266 OA
ATOM     27  N2  NON d   1     -46.368  15.806  -5.573  0.00  0.00    -0.234 N 
ATOM     28  H11 NON d   1     -45.565  15.291  -5.234  0.00  0.00     0.197 HD
BRANCH  27  29
ATOM     29  O5  NON d   1     -47.506  15.050  -5.931  0.00  0.00    -0.287 OA
ATOM     30  H12 NON d   1     -48.142  15.745  -6.200  0.00  0.00     0.244 HD
ENDBRANCH  27  29
ENDBRANCH  24  25
ENDBRANCH   6  23
TORSDOF 7
ENDMDL
MODEL 5
REMARK VINA RESULT:   -13.990      1.203      1.338
REMARK INTER + INTRA:         -17.793
REMARK INTER:                 -16.078
REMARK INTRA:                  -1.715
REMARK CONF_INDEPENDENT:        2.088
REMARK UNBOUND:                -1.715
REMARK  7 active torsions:
REMARK  status: ('A' for Active; 'I' for Inactive)
REMARK    1  A    between atoms: O1_2  and  C2_3 
REMARK    2  A    between atoms: C5_6  and  S1_7 
REMARK    3  A    between atoms: S1_7  and  N1_10 
REMARK    4  A    between atoms: C10_15  and  C11_16 
REMARK    5  A    between atoms: C12_17  and  C13_18 
REMARK       I    between atoms: C13_18  and  N2_20 
REMARK    6  A    between atoms: N2_20  and  O5_21 
REMARK    7  A    between atoms: C18_26  and  O6_27 
ROOT
ATOM      1  N1  NON d   1     -39.418  19.700  -3.091  0.00  0.00    -0.246 N 
ATOM      2  C6  NON d   1     -39.076  18.835  -2.078  0.00  0.00     0.111 C 
ATOM      3  C7  NON d   1     -40.010  17.822  -2.073  0.00  0.00     0.032 C 
ATOM      4  C8  NON d   1     -40.907  18.053  -3.156  0.00  0.00    -0.006 A 
ATOM      5  C9  NON d   1     -42.094  17.416  -3.595  0.00  0.00     0.025 A 
ATOM      6  C10 NON d   1     -42.782  17.890  -4.727  0.00  0.00    -0.035 A 
ATOM      7  C14 NON d   1     -42.243  18.967  -5.434  0.00  0.00     0.014 A 
ATOM      8  C15 NON d   1     -41.077  19.620  -5.020  0.00  0.00     0.032 A 
ATOM      9  C16 NON d   1     -40.449  19.183  -3.848  0.00  0.00     0.060 A 
ENDROOT
BRANCH   1  10
ATOM     10  S1  NON d   1     -38.918  21.333  -3.106  0.00  0.00     0.269 S 
ATOM     11  O2  NON d   1     -37.476  21.342  -3.275  0.00  0.00    -0.200 OA
ATOM     12  O3  NON d   1     -39.780  21.980  -4.077  0.00  0.00    -0.200 OA
BRANCH  10  13
ATOM     13  C5  NON d   1     -39.269  22.048  -1.513  0.00  0.00     0.083 C 
ATOM     14  C4  NON d   1     -39.078  21.259  -0.377  0.00  0.00     0.028 C 
ATOM     15  C3  NON d   1     -39.750  21.587   0.799  0.00  0.00     0.041 C 
ATOM     16  C2  NON d   1     -40.630  22.679   0.835  0.00  0.00     0.101 C 
ATOM     17  C18 NON d   1     -40.722  23.553  -0.250  0.00  0.00     0.102 C 
ATOM     18  C17 NON d   1     -40.042  23.218  -1.435  0.00  0.00     0.065 C 
BRANCH  16  19
ATOM     19  O1  NON d   1     -41.411  22.804   1.955  0.00  0.00    -0.353 OA
ATOM     20  C1  NON d   1     -41.060  24.018   2.638  0.00  0.00     0.210 C 
ENDBRANCH  16  19
BRANCH  17  21
ATOM     21  O6  NON d   1     -41.439  24.717  -0.331  0.00  0.00    -0.353 OA
ATOM     22  C19 NON d   1     -40.637  25.977  -0.705  0.00  0.00     0.210 C 
ENDBRANCH  17  21
ENDBRANCH  10  13
ENDBRANCH   1  10
BRANCH   6  23
ATOM     23  C11 NON d   1     -44.081  17.279  -5.080  0.00  0.00     0.017 C 
ATOM     24  C12 NON d   1     -45.154  17.953  -5.526  0.00  0.00     0.077 C 
BRANCH  24  25
ATOM     25  C13 NON d   1     -46.429  17.249  -5.801  0.00  0.00     0.264 C 
ATOM     26  O4  NON d   1     -47.447  17.813  -6.185  0.00  0.00    -0.266 OA
ATOM     27  N2  NON d   1     -46.355  15.898  -5.586  0.00  0.00    -0.234 N 
ATOM     28  H11 NON d   1     -45.533  15.382  -5.296  0.00  0.00     0.197 HD
BRANCH  27  29
ATOM     29  O5  NON d   1     -47.531  15.149  -5.812  0.00  0.00    -0.287 OA
ATOM     30  H12 NON d   1     -48.062  15.758  -6.367  0.00  0.00     0.244 HD
ENDBRANCH  27  29
ENDBRANCH  24  25
ENDBRANCH   6  23
TORSDOF 7
ENDMDL
MODEL 6
REMARK VINA RESULT:   -13.924      3.478      6.295
REMARK INTER + INTRA:         -17.982
REMARK INTER:                 -16.012
REMARK INTRA:                  -1.970
REMARK CONF_INDEPENDENT:        2.088
REMARK UNBOUND:                -1.970
REMARK  7 active torsions:
REMARK  status: ('A' for Active; 'I' for Inactive)
REMARK    1  A    between atoms: O1_2  and  C2_3 
REMARK    2  A    between atoms: C5_6  and  S1_7 
REMARK    3  A    between atoms: S1_7  and  N1_10 
REMARK    4  A    between atoms: C10_15  and  C11_16 
REMARK    5  A    between atoms: C12_17  and  C13_18 
REMARK       I    between atoms: C13_18  and  N2_20 
REMARK    6  A    between atoms: N2_20  and  O5_21 
REMARK    7  A    between atoms: C18_26  and  O6_27 
ROOT
ATOM      1  N1  NON d   1     -39.349  19.817  -3.041  0.00  0.00    -0.246 N 
ATOM      2  C6  NON d   1     -39.607  19.849  -1.690  0.00  0.00     0.111 C 
ATOM      3  C7  NON d   1     -40.816  19.217  -1.490  0.00  0.00     0.032 C 
ATOM      4  C8  NON d   1     -41.270  18.737  -2.753  0.00  0.00    -0.006 A 
ATOM      5  C9  NON d   1     -42.458  18.101  -3.187  0.00  0.00     0.025 A 
ATOM      6  C10 NON d   1     -42.624  17.741  -4.537  0.00  0.00    -0.035 A 
ATOM      7  C14 NON d   1     -41.573  17.980  -5.426  0.00  0.00     0.014 A 
ATOM      8  C15 NON d   1     -40.391  18.614  -5.028  0.00  0.00     0.032 A 
ATOM      9  C16 NON d   1     -40.276  19.034  -3.697  0.00  0.00     0.060 A 
ENDROOT
BRANCH   1  10
ATOM     10  S1  NON d   1     -38.304  20.935  -3.797  0.00  0.00     0.269 S 
ATOM     11  O2  NON d   1     -38.703  22.262  -3.365  0.00  0.00    -0.200 OA
ATOM     12  O3  NON d   1     -36.966  20.441  -3.525  0.00  0.00    -0.200 OA
BRANCH  10  13
ATOM     13  C5  NON d   1     -38.560  20.851  -5.558  0.00  0.00     0.083 C 
ATOM     14  C4  NON d   1     -39.601  21.600  -6.110  0.00  0.00     0.028 C 
ATOM     15  C3  NON d   1     -40.124  21.228  -7.348  0.00  0.00     0.041 C 
ATOM     16  C2  NON d   1     -39.629  20.099  -8.018  0.00  0.00     0.101 C 
ATOM     17  C18 NON d   1     -38.500  19.429  -7.543  0.00  0.00     0.102 C 
ATOM     18  C17 NON d   1     -37.977  19.807  -6.294  0.00  0.00     0.065 C 
BRANCH  16  19
ATOM     19  O1  NON d   1     -40.335  19.676  -9.116  0.00  0.00    -0.353 OA
ATOM     20  C1  NON d   1     -41.648  20.256  -9.080  0.00  0.00     0.210 C 
ENDBRANCH  16  19
BRANCH  17  21
ATOM     21  O6  NON d   1     -37.830  18.391  -8.135  0.00  0.00    -0.353 OA
ATOM     22  C19 NON d   1     -36.552  18.768  -8.906  0.00  0.00     0.210 C 
ENDBRANCH  17  21
ENDBRANCH  10  13
ENDBRANCH   1  10
BRANCH   6  23
ATOM     23  C11 NON d   1     -43.925  17.193  -4.975  0.00  0.00     0.017 C 
ATOM     24  C12 NON d   1     -44.984  17.930  -5.350  0.00  0.00     0.077 C 
BRANCH  24  25
ATOM     25  C13 NON d   1     -46.264  17.280  -5.721  0.00  0.00     0.264 C 
ATOM     26  O4  NON d   1     -47.223  17.885  -6.185  0.00  0.00    -0.266 OA
ATOM     27  N2  NON d   1     -46.266  15.929  -5.496  0.00  0.00    -0.234 N 
ATOM     28  H11 NON d   1     -45.493  15.380  -5.141  0.00  0.00     0.197 HD
BRANCH  27  29
ATOM     29  O5  NON d   1     -47.453  15.231  -5.810  0.00  0.00    -0.287 OA
ATOM     30  H12 NON d   1     -47.909  15.855  -6.412  0.00  0.00     0.244 HD
ENDBRANCH  27  29
ENDBRANCH  24  25
ENDBRANCH   6  23
TORSDOF 7
ENDMDL
MODEL 7
REMARK VINA RESULT:   -13.769      1.804      2.438
REMARK INTER + INTRA:         -17.861
REMARK INTER:                 -15.857
REMARK INTRA:                  -2.004
REMARK CONF_INDEPENDENT:        2.088
REMARK UNBOUND:                -2.004
REMARK  7 active torsions:
REMARK  status: ('A' for Active; 'I' for Inactive)
REMARK    1  A    between atoms: O1_2  and  C2_3 
REMARK    2  A    between atoms: C5_6  and  S1_7 
REMARK    3  A    between atoms: S1_7  and  N1_10 
REMARK    4  A    between atoms: C10_15  and  C11_16 
REMARK    5  A    between atoms: C12_17  and  C13_18 
REMARK       I    between atoms: C13_18  and  N2_20 
REMARK    6  A    between atoms: N2_20  and  O5_21 
REMARK    7  A    between atoms: C18_26  and  O6_27 
ROOT
ATOM      1  N1  NON d   1     -38.888  18.781  -3.049  0.00  0.00    -0.246 N 
ATOM      2  C6  NON d   1     -38.877  17.826  -2.060  0.00  0.00     0.111 C 
ATOM      3  C7  NON d   1     -40.106  17.203  -2.080  0.00  0.00     0.032 C 
ATOM      4  C8  NON d   1     -40.858  17.760  -3.156  0.00  0.00    -0.006 A 
ATOM      5  C9  NON d   1     -42.188  17.588  -3.609  0.00  0.00     0.025 A 
ATOM      6  C10 NON d   1     -42.659  18.301  -4.727  0.00  0.00    -0.035 A 
ATOM      7  C14 NON d   1     -41.772  19.141  -5.407  0.00  0.00     0.014 A 
ATOM      8  C15 NON d   1     -40.455  19.335  -4.977  0.00  0.00     0.032 A 
ATOM      9  C16 NON d   1     -40.028  18.676  -3.817  0.00  0.00     0.060 A 
ENDROOT
BRANCH   1  10
ATOM     10  S1  NON d   1     -37.850  20.137  -3.021  0.00  0.00     0.269 S 
ATOM     11  O2  NON d   1     -36.642  19.743  -2.316  0.00  0.00    -0.200 OA
ATOM     12  O3  NON d   1     -37.786  20.590  -4.398  0.00  0.00    -0.200 OA
BRANCH  10  13
ATOM     13  C5  NON d   1     -38.624  21.425  -2.065  0.00  0.00     0.083 C 
ATOM     14  C4  NON d   1     -38.519  21.370  -0.674  0.00  0.00     0.028 C 
ATOM     15  C3  NON d   1     -39.454  22.050   0.105  0.00  0.00     0.041 C 
ATOM     16  C2  NON d   1     -40.503  22.759  -0.499  0.00  0.00     0.101 C 
ATOM     17  C18 NON d   1     -40.536  22.935  -1.884  0.00  0.00     0.102 C 
ATOM     18  C17 NON d   1     -39.591  22.247  -2.666  0.00  0.00     0.065 C 
BRANCH  16  19
ATOM     19  O1  NON d   1     -41.496  23.215   0.330  0.00  0.00    -0.353 OA
ATOM     20  C1  NON d   1     -41.040  23.144   1.690  0.00  0.00     0.210 C 
ENDBRANCH  16  19
BRANCH  17  21
ATOM     21  O6  NON d   1     -41.418  23.688  -2.613  0.00  0.00    -0.353 OA
ATOM     22  C19 NON d   1     -41.083  23.858  -4.106  0.00  0.00     0.210 C 
ENDBRANCH  17  21
ENDBRANCH  10  13
ENDBRANCH   1  10
BRANCH   6  23
ATOM     23  C11 NON d   1     -44.087  18.191  -5.095  0.00  0.00     0.017 C 
ATOM     24  C12 NON d   1     -44.754  17.036  -5.255  0.00  0.00     0.077 C 
BRANCH  24  25
ATOM     25  C13 NON d   1     -46.175  17.036  -5.679  0.00  0.00     0.264 C 
ATOM     26  O4  NON d   1     -46.733  18.001  -6.185  0.00  0.00    -0.266 OA
ATOM     27  N2  NON d   1     -46.803  15.840  -5.448  0.00  0.00    -0.234 N 
ATOM     28  H11 NON d   1     -46.380  15.007  -5.059  0.00  0.00     0.197 HD
BRANCH  27  29
ATOM     29  O5  NON d   1     -48.166  15.755  -5.810  0.00  0.00    -0.287 OA
ATOM     30  H12 NON d   1     -48.203  16.314  -6.614  0.00  0.00     0.244 HD
ENDBRANCH  27  29
ENDBRANCH  24  25
ENDBRANCH   6  23
TORSDOF 7
ENDMDL
MODEL 8
REMARK VINA RESULT:   -13.643      1.713      2.699
REMARK INTER + INTRA:         -17.670
REMARK INTER:                 -15.731
REMARK INTRA:                  -1.940
REMARK CONF_INDEPENDENT:        2.088
REMARK UNBOUND:                -1.940
REMARK  7 active torsions:
REMARK  status: ('A' for Active; 'I' for Inactive)
REMARK    1  A    between atoms: O1_2  and  C2_3 
REMARK    2  A    between atoms: C5_6  and  S1_7 
REMARK    3  A    between atoms: S1_7  and  N1_10 
REMARK    4  A    between atoms: C10_15  and  C11_16 
REMARK    5  A    between atoms: C12_17  and  C13_18 
REMARK       I    between atoms: C13_18  and  N2_20 
REMARK    6  A    between atoms: N2_20  and  O5_21 
REMARK    7  A    between atoms: C18_26  and  O6_27 
ROOT
ATOM      1  N1  NON d   1     -39.231  19.445  -2.782  0.00  0.00    -0.246 N 
ATOM      2  C6  NON d   1     -38.979  18.260  -2.132  0.00  0.00     0.111 C 
ATOM      3  C7  NON d   1     -40.031  17.413  -2.404  0.00  0.00     0.032 C 
ATOM      4  C8  NON d   1     -40.914  18.089  -3.296  0.00  0.00    -0.006 A 
ATOM      5  C9  NON d   1     -42.179  17.769  -3.848  0.00  0.00     0.025 A 
ATOM      6  C10 NON d   1     -42.825  18.666  -4.718  0.00  0.00    -0.035 A 
ATOM      7  C14 NON d   1     -42.171  19.852  -5.064  0.00  0.00     0.014 A 
ATOM      8  C15 NON d   1     -40.925  20.196  -4.528  0.00  0.00     0.032 A 
ATOM      9  C16 NON d   1     -40.333  19.327  -3.604  0.00  0.00     0.060 A 
ENDROOT
BRANCH   1  10
ATOM     10  S1  NON d   1     -38.534  20.924  -2.290  0.00  0.00     0.269 S 
ATOM     11  O2  NON d   1     -38.153  20.779  -0.896  0.00  0.00    -0.200 OA
ATOM     12  O3  NON d   1     -37.536  21.224  -3.301  0.00  0.00    -0.200 OA
BRANCH  10  13
ATOM     13  C5  NON d   1     -39.780  22.194  -2.369  0.00  0.00     0.083 C 
ATOM     14  C4  NON d   1     -39.766  23.065  -3.461  0.00  0.00     0.028 C 
ATOM     15  C3  NON d   1     -40.389  24.307  -3.346  0.00  0.00     0.041 C 
ATOM     16  C2  NON d   1     -40.997  24.690  -2.141  0.00  0.00     0.101 C 
ATOM     17  C18 NON d   1     -41.137  23.776  -1.095  0.00  0.00     0.102 C 
ATOM     18  C17 NON d   1     -40.506  22.524  -1.214  0.00  0.00     0.065 C 
BRANCH  16  19
ATOM     19  O1  NON d   1     -41.393  25.999  -2.039  0.00  0.00    -0.353 OA
ATOM     20  C1  NON d   1     -41.446  26.576  -3.354  0.00  0.00     0.210 C 
ENDBRANCH  16  19
BRANCH  17  21
ATOM     21  O6  NON d   1     -41.799  23.953   0.091  0.00  0.00    -0.353 OA
ATOM     22  C19 NON d   1     -40.921  23.979   1.355  0.00  0.00     0.210 C 
ENDBRANCH  17  21
ENDBRANCH  10  13
ENDBRANCH   1  10
BRANCH   6  23
ATOM     23  C11 NON d   1     -44.197  18.355  -5.175  0.00  0.00     0.017 C 
ATOM     24  C12 NON d   1     -44.801  17.164  -5.039  0.00  0.00     0.077 C 
BRANCH  24  25
ATOM     25  C13 NON d   1     -46.163  16.940  -5.581  0.00  0.00     0.264 C 
ATOM     26  O4  NON d   1     -46.802  17.793  -6.185  0.00  0.00    -0.266 OA
ATOM     27  N2  NON d   1     -46.637  15.677  -5.340  0.00  0.00    -0.234 N 
ATOM     28  H11 NON d   1     -46.139  14.930  -4.871  0.00  0.00     0.197 HD
BRANCH  27  29
ATOM     29  O5  NON d   1     -47.935  15.381  -5.811  0.00  0.00    -0.287 OA
ATOM     30  H12 NON d   1     -48.163  16.190  -6.316  0.00  0.00     0.244 HD
ENDBRANCH  27  29
ENDBRANCH  24  25
ENDBRANCH   6  23
TORSDOF 7
ENDMDL
MODEL 9
REMARK VINA RESULT:   -13.223      2.947      5.380
REMARK INTER + INTRA:         -17.308
REMARK INTER:                 -15.311
REMARK INTRA:                  -1.996
REMARK CONF_INDEPENDENT:        2.088
REMARK UNBOUND:                -1.996
REMARK  7 active torsions:
REMARK  status: ('A' for Active; 'I' for Inactive)
REMARK    1  A    between atoms: O1_2  and  C2_3 
REMARK    2  A    between atoms: C5_6  and  S1_7 
REMARK    3  A    between atoms: S1_7  and  N1_10 
REMARK    4  A    between atoms: C10_15  and  C11_16 
REMARK    5  A    between atoms: C12_17  and  C13_18 
REMARK       I    between atoms: C13_18  and  N2_20 
REMARK    6  A    between atoms: N2_20  and  O5_21 
REMARK    7  A    between atoms: C18_26  and  O6_27 
ROOT
ATOM      1  N1  NON d   1     -40.247  20.766  -2.853  0.00  0.00    -0.246 N 
ATOM      2  C6  NON d   1     -39.876  20.103  -1.707  0.00  0.00     0.111 C 
ATOM      3  C7  NON d   1     -40.563  18.909  -1.685  0.00  0.00     0.032 C 
ATOM      4  C8  NON d   1     -41.325  18.823  -2.887  0.00  0.00    -0.006 A 
ATOM      5  C9  NON d   1     -42.273  17.893  -3.379  0.00  0.00     0.025 A 
ATOM      6  C10 NON d   1     -42.877  18.086  -4.635  0.00  0.00    -0.035 A 
ATOM      7  C14 NON d   1     -42.485  19.186  -5.404  0.00  0.00     0.014 A 
ATOM      8  C15 NON d   1     -41.557  20.125  -4.940  0.00  0.00     0.032 A 
ATOM      9  C16 NON d   1     -41.024  19.957  -3.656  0.00  0.00     0.060 A 
ENDROOT
BRANCH   1  10
ATOM     10  S1  NON d   1     -40.111  22.461  -3.013  0.00  0.00     0.269 S 
ATOM     11  O2  NON d   1     -41.449  23.014  -2.900  0.00  0.00    -0.200 OA
ATOM     12  O3  NON d   1     -39.072  22.844  -2.076  0.00  0.00    -0.200 OA
BRANCH  10  13
ATOM     13  C5  NON d   1     -39.521  22.831  -4.652  0.00  0.00     0.083 C 
ATOM     14  C4  NON d   1     -39.883  24.052  -5.225  0.00  0.00     0.028 C 
ATOM     15  C3  NON d   1     -39.848  24.189  -6.612  0.00  0.00     0.041 C 
ATOM     16  C2  NON d   1     -39.481  23.106  -7.425  0.00  0.00     0.101 C 
ATOM     17  C18 NON d   1     -38.986  21.929  -6.859  0.00  0.00     0.102 C 
ATOM     18  C17 NON d   1     -39.023  21.795  -5.459  0.00  0.00     0.065 C 
BRANCH  16  19
ATOM     19  O1  NON d   1     -39.680  23.253  -8.774  0.00  0.00    -0.353 OA
ATOM     20  C1  NON d   1     -40.301  24.524  -9.020  0.00  0.00     0.210 C 
ENDBRANCH  16  19
BRANCH  17  21
ATOM     21  O6  NON d   1     -38.482  20.833  -7.509  0.00  0.00    -0.353 OA
ATOM     22  C19 NON d   1     -39.471  19.678  -7.745  0.00  0.00     0.210 C 
ENDBRANCH  17  21
ENDBRANCH  10  13
ENDBRANCH   1  10
BRANCH   6  23
ATOM     23  C11 NON d   1     -43.950  17.164  -5.060  0.00  0.00     0.017 C 
ATOM     24  C12 NON d   1     -45.188  17.538  -5.423  0.00  0.00     0.077 C 
BRANCH  24  25
ATOM     25  C13 NON d   1     -46.210  16.525  -5.782  0.00  0.00     0.264 C 
ATOM     26  O4  NON d   1     -45.940  15.383  -6.136  0.00  0.00    -0.266 OA
ATOM     27  N2  NON d   1     -47.493  16.995  -5.675  0.00  0.00    -0.234 N 
ATOM     28  H11 NON d   1     -47.768  17.918  -5.362  0.00  0.00     0.197 HD
BRANCH  27  29
ATOM     29  O5  NON d   1     -48.531  16.098  -6.011  0.00  0.00    -0.287 OA
ATOM     30  H12 NON d   1     -48.104  15.526  -6.681  0.00  0.00     0.244 HD
ENDBRANCH  27  29
ENDBRANCH  24  25
ENDBRANCH   6  23
TORSDOF 7
ENDMDL
