MODEL 1
REMARK VINA RESULT:   -23.138      0.000      0.000
REMARK INTER + INTRA:         -26.867
REMARK INTER:                 -26.121
REMARK INTRA:                  -0.746
REMARK CONF_INDEPENDENT:        2.983
REMARK UNBOUND:                -0.746
REMARK  10 active torsions:
REMARK  status: ('A' for Active; 'I' for Inactive)
REMARK    1  A    between atoms: C2_2  and  S1_3 
REMARK    2  A    between atoms: S1_3  and  C3_4 
REMARK    3  A    between atoms: C3_4  and  S3_6 
REMARK    4  A    between atoms: S3_6  and  C4_7 
REMARK    5  A    between atoms: C4_7  and  C5_8 
REMARK    6  A    between atoms: C5_8  and  C6_10 
REMARK    7  A    between atoms: C9_13  and  C10_14 
REMARK    8  A    between atoms: C10_14  and  C11_15 
REMARK       I    between atoms: C11_15  and  N1_17 
REMARK    9  A    between atoms: N1_17  and  C12_18 
REMARK   10  A    between atoms: C15_21  and  O3_22 
ROOT
ATOM      1  C6  NON d   1     -42.298  18.031  -3.906  0.00  0.00     0.052 C 
ATOM      2  C7  NON d   1     -41.855  17.827  -2.612  0.00  0.00     0.024 C 
ATOM      3  C8  NON d   1     -40.773  18.689  -2.260  0.00  0.00     0.016 C 
ATOM      4  C9  NON d   1     -40.403  19.529  -3.296  0.00  0.00    -0.008 C 
ATOM      5  S4  NON d   1     -41.298  19.171  -4.709  0.00  0.00    -0.091 SA
ENDROOT
BRANCH   4   6
ATOM      6  C10 NON d   1     -39.305  20.562  -3.256  0.00  0.00     0.149 C 
BRANCH   6   7
ATOM      7  C11 NON d   1     -39.197  21.347  -1.952  0.00  0.00     0.226 C 
ATOM      8  O2  NON d   1     -38.312  21.159  -1.121  0.00  0.00    -0.273 OA
ATOM      9  N1  NON d   1     -40.163  22.345  -1.863  0.00  0.00    -0.327 N 
ATOM     10  H12 NON d   1     -40.566  22.683  -2.727  0.00  0.00     0.169 HD
BRANCH   9  11
ATOM     11  C12 NON d   1     -40.513  23.042  -0.690  0.00  0.00     0.034 A 
ATOM     12  C13 NON d   1     -40.391  22.381   0.535  0.00  0.00     0.032 A 
ATOM     13  C14 NON d   1     -40.700  23.037   1.736  0.00  0.00     0.039 A 
ATOM     14  C15 NON d   1     -41.110  24.369   1.720  0.00  0.00     0.068 A 
ATOM     15  C17 NON d   1     -41.193  25.040   0.498  0.00  0.00     0.039 A 
ATOM     16  C18 NON d   1     -40.909  24.380  -0.700  0.00  0.00     0.032 A 
BRANCH  14  17
ATOM     17  O3  NON d   1     -41.438  25.125   2.809  0.00  0.00    -0.356 OA
ATOM     18  C16 NON d   1     -40.761  24.826   4.023  0.00  0.00     0.210 C 
ENDBRANCH  14  17
ENDBRANCH   9  11
ENDBRANCH   6   7
ENDBRANCH   4   6
BRANCH   1  19
ATOM     19  C5  NON d   1     -43.428  17.431  -4.622  0.00  0.00     0.175 C 
ATOM     20  O1  NON d   1     -43.410  16.286  -5.077  0.00  0.00    -0.291 OA
BRANCH  19  21
ATOM     21  C4  NON d   1     -44.663  18.321  -4.763  0.00  0.00     0.165 C 
BRANCH  21  22
ATOM     22  S3  NON d   1     -45.960  17.629  -5.813  0.00  0.00    -0.104 SA
BRANCH  22  23
ATOM     23  C3  NON d   1     -46.884  16.525  -4.778  0.00  0.00     0.104 C 
ATOM     24  S2  NON d   1     -47.070  16.674  -3.120  0.00  0.00    -0.065 SA
BRANCH  23  25
ATOM     25  S1  NON d   1     -47.763  15.382  -5.810  0.00  0.00    -0.112 SA
BRANCH  25  26
ATOM     26  C2  NON d   1     -49.307  15.005  -4.948  0.00  0.00     0.076 C 
ATOM     27  C1  NON d   1     -49.079  14.624  -3.496  0.00  0.00     0.016 C 
ENDBRANCH  25  26
ENDBRANCH  23  25
ENDBRANCH  22  23
ENDBRANCH  21  22
ENDBRANCH  19  21
ENDBRANCH   1  19
TORSDOF 10
ENDMDL
MODEL 2
REMARK VINA RESULT:   -23.134      1.189      1.630
REMARK INTER + INTRA:         -27.099
REMARK INTER:                 -26.117
REMARK INTRA:                  -0.981
REMARK CONF_INDEPENDENT:        2.983
REMARK UNBOUND:                -0.981
REMARK  10 active torsions:
REMARK  status: ('A' for Active; 'I' for Inactive)
REMARK    1  A    between atoms: C2_2  and  S1_3 
REMARK    2  A    between atoms: S1_3  and  C3_4 
REMARK    3  A    between atoms: C3_4  and  S3_6 
REMARK    4  A    between atoms: S3_6  and  C4_7 
REMARK    5  A    between atoms: C4_7  and  C5_8 
REMARK    6  A    between atoms: C5_8  and  C6_10 
REMARK    7  A    between atoms: C9_13  and  C10_14 
REMARK    8  A    between atoms: C10_14  and  C11_15 
REMARK       I    between atoms: C11_15  and  N1_17 
REMARK    9  A    between atoms: N1_17  and  C12_18 
REMARK   10  A    between atoms: C15_21  and  O3_22 
ROOT
ATOM      1  C6  NON d   1     -42.244  17.724  -3.948  0.00  0.00     0.052 C 
ATOM      2  C7  NON d   1     -41.641  17.220  -2.810  0.00  0.00     0.024 C 
ATOM      3  C8  NON d   1     -40.610  18.072  -2.312  0.00  0.00     0.016 C 
ATOM      4  C9  NON d   1     -40.436  19.206  -3.085  0.00  0.00    -0.008 C 
ATOM      5  S4  NON d   1     -41.448  19.154  -4.464  0.00  0.00    -0.091 SA
ENDROOT
BRANCH   4   6
ATOM      6  C10 NON d   1     -39.439  20.311  -2.836  0.00  0.00     0.149 C 
BRANCH   6   7
ATOM      7  C11 NON d   1     -39.939  21.451  -1.954  0.00  0.00     0.226 C 
ATOM      8  O2  NON d   1     -40.551  22.423  -2.387  0.00  0.00    -0.273 OA
ATOM      9  N1  NON d   1     -39.690  21.212  -0.605  0.00  0.00    -0.327 N 
ATOM     10  H12 NON d   1     -39.561  20.251  -0.317  0.00  0.00     0.169 HD
BRANCH   9  11
ATOM     11  C12 NON d   1     -39.763  22.173   0.422  0.00  0.00     0.034 A 
ATOM     12  C13 NON d   1     -38.576  22.770   0.857  0.00  0.00     0.032 A 
ATOM     13  C14 NON d   1     -38.594  23.752   1.858  0.00  0.00     0.039 A 
ATOM     14  C15 NON d   1     -39.806  24.163   2.413  0.00  0.00     0.068 A 
ATOM     15  C17 NON d   1     -40.993  23.595   1.949  0.00  0.00     0.039 A 
ATOM     16  C18 NON d   1     -40.974  22.598   0.969  0.00  0.00     0.032 A 
BRANCH  14  17
ATOM     17  O3  NON d   1     -39.967  25.106   3.387  0.00  0.00    -0.356 OA
ATOM     18  C16 NON d   1     -41.254  25.196   3.985  0.00  0.00     0.210 C 
ENDBRANCH  14  17
ENDBRANCH   9  11
ENDBRANCH   6   7
ENDBRANCH   4   6
BRANCH   1  19
ATOM     19  C5  NON d   1     -43.387  17.217  -4.713  0.00  0.00     0.175 C 
ATOM     20  O1  NON d   1     -43.336  16.207  -5.418  0.00  0.00    -0.291 OA
BRANCH  19  21
ATOM     21  C4  NON d   1     -44.679  18.023  -4.573  0.00  0.00     0.165 C 
BRANCH  21  22
ATOM     22  S3  NON d   1     -45.936  17.630  -5.810  0.00  0.00    -0.104 SA
BRANCH  22  23
ATOM     23  C3  NON d   1     -47.054  16.502  -5.023  0.00  0.00     0.104 C 
ATOM     24  S2  NON d   1     -48.021  15.383  -5.810  0.00  0.00    -0.065 SA
BRANCH  23  25
ATOM     25  S1  NON d   1     -46.810  16.592  -3.269  0.00  0.00    -0.112 SA
BRANCH  25  26
ATOM     26  C2  NON d   1     -48.459  16.645  -2.529  0.00  0.00     0.076 C 
ATOM     27  C1  NON d   1     -49.269  15.398  -2.837  0.00  0.00     0.016 C 
ENDBRANCH  25  26
ENDBRANCH  23  25
ENDBRANCH  22  23
ENDBRANCH  21  22
ENDBRANCH  19  21
ENDBRANCH   1  19
TORSDOF 10
ENDMDL
MODEL 3
REMARK VINA RESULT:   -22.794      1.513      2.061
REMARK INTER + INTRA:         -26.717
REMARK INTER:                 -25.777
REMARK INTRA:                  -0.940
REMARK CONF_INDEPENDENT:        2.983
REMARK UNBOUND:                -0.940
REMARK  10 active torsions:
REMARK  status: ('A' for Active; 'I' for Inactive)
REMARK    1  A    between atoms: C2_2  and  S1_3 
REMARK    2  A    between atoms: S1_3  and  C3_4 
REMARK    3  A    between atoms: C3_4  and  S3_6 
REMARK    4  A    between atoms: S3_6  and  C4_7 
REMARK    5  A    between atoms: C4_7  and  C5_8 
REMARK    6  A    between atoms: C5_8  and  C6_10 
REMARK    7  A    between atoms: C9_13  and  C10_14 
REMARK    8  A    between atoms: C10_14  and  C11_15 
REMARK       I    between atoms: C11_15  and  N1_17 
REMARK    9  A    between atoms: N1_17  and  C12_18 
REMARK   10  A    between atoms: C15_21  and  O3_22 
ROOT
ATOM      1  C6  NON d   1     -42.126  18.014  -4.573  0.00  0.00     0.052 C 
ATOM      2  C7  NON d   1     -41.241  18.647  -5.427  0.00  0.00     0.024 C 
ATOM      3  C8  NON d   1     -40.134  19.227  -4.738  0.00  0.00     0.016 C 
ATOM      4  C9  NON d   1     -40.199  19.036  -3.369  0.00  0.00    -0.008 C 
ATOM      5  S4  NON d   1     -41.663  18.259  -2.940  0.00  0.00    -0.091 SA
ENDROOT
BRANCH   4   6
ATOM      6  C10 NON d   1     -39.191  19.513  -2.353  0.00  0.00     0.149 C 
BRANCH   6   7
ATOM      7  C11 NON d   1     -39.472  20.888  -1.755  0.00  0.00     0.226 C 
ATOM      8  O2  NON d   1     -39.758  21.873  -2.430  0.00  0.00    -0.273 OA
ATOM      9  N1  NON d   1     -39.447  20.865  -0.363  0.00  0.00    -0.327 N 
ATOM     10  H12 NON d   1     -39.606  19.976   0.093  0.00  0.00     0.169 HD
BRANCH   9  11
ATOM     11  C12 NON d   1     -39.381  21.998   0.472  0.00  0.00     0.034 A 
ATOM     12  C13 NON d   1     -40.567  22.678   0.761  0.00  0.00     0.032 A 
ATOM     13  C14 NON d   1     -40.561  23.796   1.609  0.00  0.00     0.039 A 
ATOM     14  C15 NON d   1     -39.370  24.226   2.193  0.00  0.00     0.068 A 
ATOM     15  C17 NON d   1     -38.193  23.521   1.933  0.00  0.00     0.039 A 
ATOM     16  C18 NON d   1     -38.194  22.422   1.070  0.00  0.00     0.032 A 
BRANCH  14  17
ATOM     17  O3  NON d   1     -39.224  25.292   3.033  0.00  0.00    -0.356 OA
ATOM     18  C16 NON d   1     -39.599  25.094   4.390  0.00  0.00     0.210 C 
ENDBRANCH  14  17
ENDBRANCH   9  11
ENDBRANCH   6   7
ENDBRANCH   4   6
BRANCH   1  19
ATOM     19  C5  NON d   1     -43.327  17.227  -4.874  0.00  0.00     0.175 C 
ATOM     20  O1  NON d   1     -43.290  16.083  -5.328  0.00  0.00    -0.291 OA
BRANCH  19  21
ATOM     21  C4  NON d   1     -44.657  17.918  -4.572  0.00  0.00     0.165 C 
BRANCH  21  22
ATOM     22  S3  NON d   1     -45.940  17.630  -5.810  0.00  0.00    -0.104 SA
BRANCH  22  23
ATOM     23  C3  NON d   1     -47.130  16.568  -5.036  0.00  0.00     0.104 C 
ATOM     24  S2  NON d   1     -48.022  15.380  -5.810  0.00  0.00    -0.065 SA
BRANCH  23  25
ATOM     25  S1  NON d   1     -47.050  16.810  -3.281  0.00  0.00    -0.112 SA
BRANCH  25  26
ATOM     26  C2  NON d   1     -48.591  16.148  -2.606  0.00  0.00     0.076 C 
ATOM     27  C1  NON d   1     -48.986  16.820  -1.303  0.00  0.00     0.016 C 
ENDBRANCH  25  26
ENDBRANCH  23  25
ENDBRANCH  22  23
ENDBRANCH  21  22
ENDBRANCH  19  21
ENDBRANCH   1  19
TORSDOF 10
ENDMDL
MODEL 4
REMARK VINA RESULT:   -22.601      5.083      7.392
REMARK INTER + INTRA:         -26.317
REMARK INTER:                 -25.584
REMARK INTRA:                  -0.733
REMARK CONF_INDEPENDENT:        2.983
REMARK UNBOUND:                -0.733
REMARK  10 active torsions:
REMARK  status: ('A' for Active; 'I' for Inactive)
REMARK    1  A    between atoms: C2_2  and  S1_3 
REMARK    2  A    between atoms: S1_3  and  C3_4 
REMARK    3  A    between atoms: C3_4  and  S3_6 
REMARK    4  A    between atoms: S3_6  and  C4_7 
REMARK    5  A    between atoms: C4_7  and  C5_8 
REMARK    6  A    between atoms: C5_8  and  C6_10 
REMARK    7  A    between atoms: C9_13  and  C10_14 
REMARK    8  A    between atoms: C10_14  and  C11_15 
REMARK       I    between atoms: C11_15  and  N1_17 
REMARK    9  A    between atoms: N1_17  and  C12_18 
REMARK   10  A    between atoms: C15_21  and  O3_22 
ROOT
ATOM      1  C6  NON d   1     -42.415  17.762  -4.367  0.00  0.00     0.052 C 
ATOM      2  C7  NON d   1     -41.525  17.972  -3.329  0.00  0.00     0.024 C 
ATOM      3  C8  NON d   1     -40.502  18.909  -3.664  0.00  0.00     0.016 C 
ATOM      4  C9  NON d   1     -40.623  19.391  -4.955  0.00  0.00    -0.008 C 
ATOM      5  S4  NON d   1     -41.906  18.606  -5.772  0.00  0.00    -0.091 SA
ENDROOT
BRANCH   4   6
ATOM      6  C10 NON d   1     -39.715  20.395  -5.621  0.00  0.00     0.149 C 
BRANCH   6   7
ATOM      7  C11 NON d   1     -39.951  20.596  -7.114  0.00  0.00     0.226 C 
ATOM      8  O2  NON d   1     -40.276  19.689  -7.876  0.00  0.00    -0.273 OA
ATOM      9  N1  NON d   1     -39.839  21.934  -7.483  0.00  0.00    -0.327 N 
ATOM     10  H12 NON d   1     -39.972  22.631  -6.762  0.00  0.00     0.169 HD
BRANCH   9  11
ATOM     11  C12 NON d   1     -39.716  22.410  -8.804  0.00  0.00     0.034 A 
ATOM     12  C13 NON d   1     -39.341  21.506  -9.802  0.00  0.00     0.032 A 
ATOM     13  C14 NON d   1     -39.230  21.921 -11.137  0.00  0.00     0.039 A 
ATOM     14  C15 NON d   1     -39.519  23.239 -11.487  0.00  0.00     0.068 A 
ATOM     15  C17 NON d   1     -39.931  24.131 -10.494  0.00  0.00     0.039 A 
ATOM     16  C18 NON d   1     -40.018  23.724  -9.160  0.00  0.00     0.032 A 
BRANCH  14  17
ATOM     17  O3  NON d   1     -39.454  23.773 -12.742  0.00  0.00    -0.356 OA
ATOM     18  C16 NON d   1     -40.690  24.111 -13.359  0.00  0.00     0.210 C 
ENDBRANCH  14  17
ENDBRANCH   9  11
ENDBRANCH   6   7
ENDBRANCH   4   6
BRANCH   1  19
ATOM     19  C5  NON d   1     -43.642  16.960  -4.411  0.00  0.00     0.175 C 
ATOM     20  O1  NON d   1     -43.877  16.130  -5.291  0.00  0.00    -0.291 OA
BRANCH  19  21
ATOM     21  C4  NON d   1     -44.629  17.209  -3.271  0.00  0.00     0.165 C 
BRANCH  21  22
ATOM     22  S3  NON d   1     -46.266  16.495  -3.538  0.00  0.00    -0.104 SA
BRANCH  22  23
ATOM     23  C3  NON d   1     -46.680  16.849  -5.225  0.00  0.00     0.104 C 
ATOM     24  S2  NON d   1     -45.940  18.005  -6.185  0.00  0.00    -0.065 SA
BRANCH  23  25
ATOM     25  S1  NON d   1     -47.835  15.629  -5.794  0.00  0.00    -0.112 SA
BRANCH  25  26
ATOM     26  C2  NON d   1     -48.681  15.005  -4.323  0.00  0.00     0.076 C 
ATOM     27  C1  NON d   1     -49.434  16.098  -3.585  0.00  0.00     0.016 C 
ENDBRANCH  25  26
ENDBRANCH  23  25
ENDBRANCH  22  23
ENDBRANCH  21  22
ENDBRANCH  19  21
ENDBRANCH   1  19
TORSDOF 10
ENDMDL
MODEL 5
REMARK VINA RESULT:   -21.879      5.242      7.911
REMARK INTER + INTRA:         -25.653
REMARK INTER:                 -24.862
REMARK INTRA:                  -0.792
REMARK CONF_INDEPENDENT:        2.983
REMARK UNBOUND:                -0.792
REMARK  10 active torsions:
REMARK  status: ('A' for Active; 'I' for Inactive)
REMARK    1  A    between atoms: C2_2  and  S1_3 
REMARK    2  A    between atoms: S1_3  and  C3_4 
REMARK    3  A    between atoms: C3_4  and  S3_6 
REMARK    4  A    between atoms: S3_6  and  C4_7 
REMARK    5  A    between atoms: C4_7  and  C5_8 
REMARK    6  A    between atoms: C5_8  and  C6_10 
REMARK    7  A    between atoms: C9_13  and  C10_14 
REMARK    8  A    between atoms: C10_14  and  C11_15 
REMARK       I    between atoms: C11_15  and  N1_17 
REMARK    9  A    between atoms: N1_17  and  C12_18 
REMARK   10  A    between atoms: C15_21  and  O3_22 
ROOT
ATOM      1  C6  NON d   1     -42.347  17.733  -4.466  0.00  0.00     0.052 C 
ATOM      2  C7  NON d   1     -41.810  18.564  -3.500  0.00  0.00     0.024 C 
ATOM      3  C8  NON d   1     -40.629  19.232  -3.945  0.00  0.00     0.016 C 
ATOM      4  C9  NON d   1     -40.280  18.891  -5.239  0.00  0.00    -0.008 C 
ATOM      5  S4  NON d   1     -41.326  17.679  -5.844  0.00  0.00    -0.091 SA
ENDROOT
BRANCH   4   6
ATOM      6  C10 NON d   1     -39.097  19.418  -6.012  0.00  0.00     0.149 C 
BRANCH   6   7
ATOM      7  C11 NON d   1     -39.403  19.891  -7.430  0.00  0.00     0.226 C 
ATOM      8  O2  NON d   1     -40.378  19.512  -8.072  0.00  0.00    -0.273 OA
ATOM      9  N1  NON d   1     -38.499  20.856  -7.863  0.00  0.00    -0.327 N 
ATOM     10  H12 NON d   1     -38.003  21.383  -7.156  0.00  0.00     0.169 HD
BRANCH   9  11
ATOM     11  C12 NON d   1     -38.331  21.278  -9.197  0.00  0.00     0.034 A 
ATOM     12  C13 NON d   1     -39.028  22.411  -9.627  0.00  0.00     0.032 A 
ATOM     13  C14 NON d   1     -38.877  22.889 -10.936  0.00  0.00     0.039 A 
ATOM     14  C15 NON d   1     -38.005  22.252 -11.818  0.00  0.00     0.068 A 
ATOM     15  C17 NON d   1     -37.280  21.144 -11.375  0.00  0.00     0.039 A 
ATOM     16  C18 NON d   1     -37.449  20.652 -10.078  0.00  0.00     0.032 A 
BRANCH  14  17
ATOM     17  O3  NON d   1     -37.762  22.612 -13.112  0.00  0.00    -0.356 OA
ATOM     18  C16 NON d   1     -37.016  21.696 -13.903  0.00  0.00     0.210 C 
ENDBRANCH  14  17
ENDBRANCH   9  11
ENDBRANCH   6   7
ENDBRANCH   4   6
BRANCH   1  19
ATOM     19  C5  NON d   1     -43.585  16.947  -4.452  0.00  0.00     0.175 C 
ATOM     20  O1  NON d   1     -43.871  16.120  -5.320  0.00  0.00    -0.291 OA
BRANCH  19  21
ATOM     21  C4  NON d   1     -44.514  17.208  -3.267  0.00  0.00     0.165 C 
BRANCH  21  22
ATOM     22  S3  NON d   1     -46.191  16.573  -3.486  0.00  0.00    -0.104 SA
BRANCH  22  23
ATOM     23  C3  NON d   1     -46.575  16.801  -5.201  0.00  0.00     0.104 C 
ATOM     24  S2  NON d   1     -45.951  18.004  -6.186  0.00  0.00    -0.065 SA
BRANCH  23  25
ATOM     25  S1  NON d   1     -47.538  15.419  -5.756  0.00  0.00    -0.112 SA
BRANCH  25  26
ATOM     26  C2  NON d   1     -48.658  15.002  -4.399  0.00  0.00     0.076 C 
ATOM     27  C1  NON d   1     -49.280  16.234  -3.767  0.00  0.00     0.016 C 
ENDBRANCH  25  26
ENDBRANCH  23  25
ENDBRANCH  22  23
ENDBRANCH  21  22
ENDBRANCH  19  21
ENDBRANCH   1  19
TORSDOF 10
ENDMDL
MODEL 6
REMARK VINA RESULT:   -21.748      3.658      6.358
REMARK INTER + INTRA:         -25.683
REMARK INTER:                 -24.731
REMARK INTRA:                  -0.952
REMARK CONF_INDEPENDENT:        2.983
REMARK UNBOUND:                -0.952
REMARK  10 active torsions:
REMARK  status: ('A' for Active; 'I' for Inactive)
REMARK    1  A    between atoms: C2_2  and  S1_3 
REMARK    2  A    between atoms: S1_3  and  C3_4 
REMARK    3  A    between atoms: C3_4  and  S3_6 
REMARK    4  A    between atoms: S3_6  and  C4_7 
REMARK    5  A    between atoms: C4_7  and  C5_8 
REMARK    6  A    between atoms: C5_8  and  C6_10 
REMARK    7  A    between atoms: C9_13  and  C10_14 
REMARK    8  A    between atoms: C10_14  and  C11_15 
REMARK       I    between atoms: C11_15  and  N1_17 
REMARK    9  A    between atoms: N1_17  and  C12_18 
REMARK   10  A    between atoms: C15_21  and  O3_22 
ROOT
ATOM      1  C6  NON d   1     -42.309  17.910  -3.851  0.00  0.00     0.052 C 
ATOM      2  C7  NON d   1     -41.523  17.453  -2.809  0.00  0.00     0.024 C 
ATOM      3  C8  NON d   1     -40.498  18.379  -2.448  0.00  0.00     0.016 C 
ATOM      4  C9  NON d   1     -40.513  19.521  -3.228  0.00  0.00    -0.008 C 
ATOM      5  S4  NON d   1     -41.696  19.393  -4.458  0.00  0.00    -0.091 SA
ENDROOT
BRANCH   4   6
ATOM      6  C10 NON d   1     -39.574  20.696  -3.107  0.00  0.00     0.149 C 
BRANCH   6   7
ATOM      7  C11 NON d   1     -39.078  21.271  -4.430  0.00  0.00     0.226 C 
ATOM      8  O2  NON d   1     -38.689  22.429  -4.560  0.00  0.00    -0.273 OA
ATOM      9  N1  NON d   1     -39.043  20.309  -5.436  0.00  0.00    -0.327 N 
ATOM     10  H12 NON d   1     -38.989  19.339  -5.153  0.00  0.00     0.169 HD
BRANCH   9  11
ATOM     11  C12 NON d   1     -38.913  20.572  -6.814  0.00  0.00     0.034 A 
ATOM     12  C13 NON d   1     -40.070  20.842  -7.549  0.00  0.00     0.032 A 
ATOM     13  C14 NON d   1     -39.994  21.137  -8.919  0.00  0.00     0.039 A 
ATOM     14  C15 NON d   1     -38.755  21.188  -9.556  0.00  0.00     0.068 A 
ATOM     15  C17 NON d   1     -37.597  20.956  -8.811  0.00  0.00     0.039 A 
ATOM     16  C18 NON d   1     -37.674  20.639  -7.452  0.00  0.00     0.032 A 
BRANCH  14  17
ATOM     17  O3  NON d   1     -38.538  21.463 -10.876  0.00  0.00    -0.356 OA
ATOM     18  C16 NON d   1     -38.332  22.827 -11.220  0.00  0.00     0.210 C 
ENDBRANCH  14  17
ENDBRANCH   9  11
ENDBRANCH   6   7
ENDBRANCH   4   6
BRANCH   1  19
ATOM     19  C5  NON d   1     -43.506  17.320  -4.459  0.00  0.00     0.175 C 
ATOM     20  O1  NON d   1     -43.613  16.120  -4.717  0.00  0.00    -0.291 OA
BRANCH  19  21
ATOM     21  C4  NON d   1     -44.644  18.298  -4.749  0.00  0.00     0.165 C 
BRANCH  21  22
ATOM     22  S3  NON d   1     -45.945  17.630  -5.810  0.00  0.00    -0.104 SA
BRANCH  22  23
ATOM     23  C3  NON d   1     -46.908  16.558  -4.779  0.00  0.00     0.104 C 
ATOM     24  S2  NON d   1     -47.143  16.747  -3.131  0.00  0.00    -0.065 SA
BRANCH  23  25
ATOM     25  S1  NON d   1     -47.766  15.398  -5.810  0.00  0.00    -0.112 SA
BRANCH  25  26
ATOM     26  C2  NON d   1     -49.302  14.991  -4.948  0.00  0.00     0.076 C 
ATOM     27  C1  NON d   1     -49.069  14.631  -3.492  0.00  0.00     0.016 C 
ENDBRANCH  25  26
ENDBRANCH  23  25
ENDBRANCH  22  23
ENDBRANCH  21  22
ENDBRANCH  19  21
ENDBRANCH   1  19
TORSDOF 10
ENDMDL
MODEL 7
REMARK VINA RESULT:   -21.419      4.152      6.654
REMARK INTER + INTRA:         -25.672
REMARK INTER:                 -24.402
REMARK INTRA:                  -1.269
REMARK CONF_INDEPENDENT:        2.983
REMARK UNBOUND:                -1.269
REMARK  10 active torsions:
REMARK  status: ('A' for Active; 'I' for Inactive)
REMARK    1  A    between atoms: C2_2  and  S1_3 
REMARK    2  A    between atoms: S1_3  and  C3_4 
REMARK    3  A    between atoms: C3_4  and  S3_6 
REMARK    4  A    between atoms: S3_6  and  C4_7 
REMARK    5  A    between atoms: C4_7  and  C5_8 
REMARK    6  A    between atoms: C5_8  and  C6_10 
REMARK    7  A    between atoms: C9_13  and  C10_14 
REMARK    8  A    between atoms: C10_14  and  C11_15 
REMARK       I    between atoms: C11_15  and  N1_17 
REMARK    9  A    between atoms: N1_17  and  C12_18 
REMARK   10  A    between atoms: C15_21  and  O3_22 
ROOT
ATOM      1  C6  NON d   1     -42.358  17.712  -4.022  0.00  0.00     0.052 C 
ATOM      2  C7  NON d   1     -42.263  17.940  -2.661  0.00  0.00     0.024 C 
ATOM      3  C8  NON d   1     -40.987  18.455  -2.279  0.00  0.00     0.016 C 
ATOM      4  C9  NON d   1     -40.128  18.600  -3.353  0.00  0.00    -0.008 C 
ATOM      5  S4  NON d   1     -40.849  17.998  -4.785  0.00  0.00    -0.091 SA
ENDROOT
BRANCH   4   6
ATOM      6  C10 NON d   1     -38.714  19.122  -3.300  0.00  0.00     0.149 C 
BRANCH   6   7
ATOM      7  C11 NON d   1     -38.283  19.958  -4.501  0.00  0.00     0.226 C 
ATOM      8  O2  NON d   1     -37.893  21.119  -4.412  0.00  0.00    -0.273 OA
ATOM      9  N1  NON d   1     -38.304  19.221  -5.682  0.00  0.00    -0.327 N 
ATOM     10  H12 NON d   1     -38.241  18.214  -5.606  0.00  0.00     0.169 HD
BRANCH   9  11
ATOM     11  C12 NON d   1     -38.242  19.760  -6.982  0.00  0.00     0.034 A 
ATOM     12  C13 NON d   1     -37.053  19.620  -7.702  0.00  0.00     0.032 A 
ATOM     13  C14 NON d   1     -36.946  20.114  -9.011  0.00  0.00     0.039 A 
ATOM     14  C15 NON d   1     -38.040  20.730  -9.617  0.00  0.00     0.068 A 
ATOM     15  C17 NON d   1     -39.240  20.833  -8.911  0.00  0.00     0.039 A 
ATOM     16  C18 NON d   1     -39.339  20.363  -7.599  0.00  0.00     0.032 A 
BRANCH  14  17
ATOM     17  O3  NON d   1     -38.074  21.250 -10.879  0.00  0.00    -0.356 OA
ATOM     18  C16 NON d   1     -39.196  22.060 -11.208  0.00  0.00     0.210 C 
ENDBRANCH  14  17
ENDBRANCH   9  11
ENDBRANCH   6   7
ENDBRANCH   4   6
BRANCH   1  19
ATOM     19  C5  NON d   1     -43.505  17.280  -4.827  0.00  0.00     0.175 C 
ATOM     20  O1  NON d   1     -43.598  16.155  -5.322  0.00  0.00    -0.291 OA
BRANCH  19  21
ATOM     21  C4  NON d   1     -44.607  18.322  -5.012  0.00  0.00     0.165 C 
BRANCH  21  22
ATOM     22  S3  NON d   1     -45.952  17.795  -6.097  0.00  0.00    -0.104 SA
BRANCH  22  23
ATOM     23  C3  NON d   1     -46.895  16.620  -5.164  0.00  0.00     0.104 C 
ATOM     24  S2  NON d   1     -47.815  15.378  -5.810  0.00  0.00    -0.065 SA
BRANCH  23  25
ATOM     25  S1  NON d   1     -46.520  16.830  -3.443  0.00  0.00    -0.112 SA
BRANCH  25  26
ATOM     26  C2  NON d   1     -48.080  17.251  -2.631  0.00  0.00     0.076 C 
ATOM     27  C1  NON d   1     -48.975  16.039  -2.439  0.00  0.00     0.016 C 
ENDBRANCH  25  26
ENDBRANCH  23  25
ENDBRANCH  22  23
ENDBRANCH  21  22
ENDBRANCH  19  21
ENDBRANCH   1  19
TORSDOF 10
ENDMDL
MODEL 8
REMARK VINA RESULT:   -20.658      2.260      2.921
REMARK INTER + INTRA:         -24.937
REMARK INTER:                 -23.641
REMARK INTRA:                  -1.296
REMARK CONF_INDEPENDENT:        2.983
REMARK UNBOUND:                -1.296
REMARK  10 active torsions:
REMARK  status: ('A' for Active; 'I' for Inactive)
REMARK    1  A    between atoms: C2_2  and  S1_3 
REMARK    2  A    between atoms: S1_3  and  C3_4 
REMARK    3  A    between atoms: C3_4  and  S3_6 
REMARK    4  A    between atoms: S3_6  and  C4_7 
REMARK    5  A    between atoms: C4_7  and  C5_8 
REMARK    6  A    between atoms: C5_8  and  C6_10 
REMARK    7  A    between atoms: C9_13  and  C10_14 
REMARK    8  A    between atoms: C10_14  and  C11_15 
REMARK       I    between atoms: C11_15  and  N1_17 
REMARK    9  A    between atoms: N1_17  and  C12_18 
REMARK   10  A    between atoms: C15_21  and  O3_22 
ROOT
ATOM      1  C6  NON d   1     -42.297  17.922  -5.264  0.00  0.00     0.052 C 
ATOM      2  C7  NON d   1     -41.057  17.779  -5.861  0.00  0.00     0.024 C 
ATOM      3  C8  NON d   1     -40.381  19.025  -6.025  0.00  0.00     0.016 C 
ATOM      4  C9  NON d   1     -41.121  20.098  -5.560  0.00  0.00    -0.008 C 
ATOM      5  S4  NON d   1     -42.668  19.582  -5.043  0.00  0.00    -0.091 SA
ENDROOT
BRANCH   4   6
ATOM      6  C10 NON d   1     -40.698  21.546  -5.577  0.00  0.00     0.149 C 
BRANCH   6   7
ATOM      7  C11 NON d   1     -40.152  22.080  -4.257  0.00  0.00     0.226 C 
ATOM      8  O2  NON d   1     -39.707  23.216  -4.120  0.00  0.00    -0.273 OA
ATOM      9  N1  NON d   1     -40.299  21.160  -3.222  0.00  0.00    -0.327 N 
ATOM     10  H12 NON d   1     -41.013  20.450  -3.326  0.00  0.00     0.169 HD
BRANCH   9  11
ATOM     11  C12 NON d   1     -39.653  21.225  -1.972  0.00  0.00     0.034 A 
ATOM     12  C13 NON d   1     -38.298  20.887  -1.908  0.00  0.00     0.032 A 
ATOM     13  C14 NON d   1     -37.599  20.961  -0.694  0.00  0.00     0.039 A 
ATOM     14  C15 NON d   1     -38.247  21.399   0.460  0.00  0.00     0.068 A 
ATOM     15  C17 NON d   1     -39.590  21.774   0.386  0.00  0.00     0.039 A 
ATOM     16  C18 NON d   1     -40.293  21.677  -0.818  0.00  0.00     0.032 A 
BRANCH  14  17
ATOM     17  O3  NON d   1     -37.689  21.520   1.701  0.00  0.00    -0.356 OA
ATOM     18  C16 NON d   1     -37.381  22.837   2.139  0.00  0.00     0.210 C 
ENDBRANCH  14  17
ENDBRANCH   9  11
ENDBRANCH   6   7
ENDBRANCH   4   6
BRANCH   1  19
ATOM     19  C5  NON d   1     -43.262  16.902  -4.838  0.00  0.00     0.175 C 
ATOM     20  O1  NON d   1     -43.426  15.836  -5.433  0.00  0.00    -0.291 OA
BRANCH  19  21
ATOM     21  C4  NON d   1     -44.060  17.240  -3.580  0.00  0.00     0.165 C 
BRANCH  21  22
ATOM     22  S3  NON d   1     -45.710  16.506  -3.529  0.00  0.00    -0.104 SA
BRANCH  22  23
ATOM     23  C3  NON d   1     -46.406  16.767  -5.138  0.00  0.00     0.104 C 
ATOM     24  S2  NON d   1     -45.991  18.005  -6.188  0.00  0.00    -0.065 SA
BRANCH  23  25
ATOM     25  S1  NON d   1     -47.434  15.380  -5.544  0.00  0.00    -0.112 SA
BRANCH  25  26
ATOM     26  C2  NON d   1     -48.879  15.485  -4.461  0.00  0.00     0.076 C 
ATOM     27  C1  NON d   1     -48.771  16.626  -3.465  0.00  0.00     0.016 C 
ENDBRANCH  25  26
ENDBRANCH  23  25
ENDBRANCH  22  23
ENDBRANCH  21  22
ENDBRANCH  19  21
ENDBRANCH   1  19
TORSDOF 10
ENDMDL
