MODEL 1
REMARK VINA RESULT:   -15.423      0.000      0.000
REMARK INTER + INTRA:         -20.147
REMARK INTER:                 -18.108
REMARK INTRA:                  -2.039
REMARK CONF_INDEPENDENT:        2.685
REMARK UNBOUND:                -2.039
REMARK  9 active torsions:
REMARK  status: ('A' for Active; 'I' for Inactive)
REMARK    1  A    between atoms: C5_7  and  C6_8 
REMARK    2  A    between atoms: C6_8  and  C7_9 
REMARK    3  A    between atoms: C7_9  and  C8_10 
REMARK    4  A    between atoms: C8_10  and  C9_11 
REMARK    5  A    between atoms: C9_11  and  C10_12 
REMARK    6  A    between atoms: C10_12  and  C11_13 
REMARK       I    between atoms: C11_13  and  N2_15 
REMARK    7  A    between atoms: N2_15  and  O3_16 
REMARK    8  A    between atoms: C18_27  and  C19_28 
REMARK    9  A    between atoms: C19_28  and  C20_29 
ROOT
ATOM      1  C1  NON d   1     -39.108  18.420  -7.948  0.00  0.00     0.048 C 
ATOM      2  C2  NON d   1     -39.248  19.938  -7.728  0.00  0.00     0.106 C 
ATOM      3  C3  NON d   1     -40.461  20.157  -8.726  0.00  0.00     0.048 C 
ATOM      4  N1  NON d   1     -39.683  19.909  -6.225  0.00  0.00    -0.342 N 
ATOM      5  C4  NON d   1     -40.283  18.895  -5.482  0.00  0.00     0.241 C 
ATOM      6  O1  NON d   1     -40.901  17.959  -5.957  0.00  0.00    -0.271 OA
ATOM      7  C5  NON d   1     -39.945  19.087  -3.974  0.00  0.00     0.176 C 
ATOM      8  N3  NON d   1     -40.397  20.455  -3.627  0.00  0.00    -0.346 N 
ATOM      9  C12 NON d   1     -39.866  21.133  -2.553  0.00  0.00     0.241 C 
ATOM     10  O4  NON d   1     -39.413  20.542  -1.571  0.00  0.00    -0.271 OA
ATOM     11  C13 NON d   1     -39.914  22.682  -2.605  0.00  0.00     0.179 C 
ATOM     12  C14 NON d   1     -40.987  23.230  -1.666  0.00  0.00     0.037 C 
ATOM     13  C15 NON d   1     -41.060  24.684  -2.104  0.00  0.00     0.022 C 
ATOM     14  C16 NON d   1     -40.945  24.588  -3.626  0.00  0.00     0.127 C 
ATOM     15  N4  NON d   1     -40.229  23.338  -3.893  0.00  0.00    -0.337 N 
ATOM     16  C17 NON d   1     -39.283  23.313  -4.929  0.00  0.00     0.243 C 
ATOM     17  O5  NON d   1     -38.146  22.872  -4.736  0.00  0.00    -0.271 OA
ATOM     18  C18 NON d   1     -39.868  23.477  -6.359  0.00  0.00     0.181 C 
ATOM     19  N5  NON d   1     -39.722  22.167  -7.005  0.00  0.00    -0.345 N 
ATOM     20  C26 NON d   1     -38.681  21.409  -7.609  0.00  0.00     0.246 C 
ATOM     21  O6  NON d   1     -37.607  21.825  -7.994  0.00  0.00    -0.271 OA
ATOM     22  H7  NON d   1     -39.041  20.458  -5.649  0.00  0.00     0.163 HD
ATOM     23  H21 NON d   1     -40.752  21.035  -4.376  0.00  0.00     0.163 HD
ATOM     24  H37 NON d   1     -40.470  21.550  -6.699  0.00  0.00     0.163 HD
ENDROOT
BRANCH   7  25
ATOM     25  C6  NON d   1     -40.427  17.952  -3.050  0.00  0.00     0.035 C 
BRANCH  25  26
ATOM     26  C7  NON d   1     -41.943  18.035  -2.707  0.00  0.00     0.002 C 
BRANCH  26  27
ATOM     27  C8  NON d   1     -42.830  17.038  -3.470  0.00  0.00     0.001 C 
BRANCH  27  28
ATOM     28  C9  NON d   1     -43.904  17.694  -4.363  0.00  0.00     0.009 C 
BRANCH  28  29
ATOM     29  C10 NON d   1     -45.348  17.323  -4.005  0.00  0.00     0.105 C 
BRANCH  29  30
ATOM     30  C11 NON d   1     -46.171  16.909  -5.226  0.00  0.00     0.240 C 
ATOM     31  O2  NON d   1     -46.347  17.621  -6.205  0.00  0.00    -0.271 OA
ATOM     32  N2  NON d   1     -46.764  15.671  -5.063  0.00  0.00    -0.237 N 
ATOM     33  H19 NON d   1     -46.408  14.993  -4.400  0.00  0.00     0.197 HD
BRANCH  32  34
ATOM     34  O3  NON d   1     -47.434  15.140  -6.185  0.00  0.00    -0.287 OA
ATOM     35  H20 NON d   1     -47.196  15.774  -6.891  0.00  0.00     0.244 HD
ENDBRANCH  32  34
ENDBRANCH  29  30
ENDBRANCH  28  29
ENDBRANCH  27  28
ENDBRANCH  26  27
ENDBRANCH  25  26
ENDBRANCH   7  25
BRANCH  18  36
ATOM     36  C19 NON d   1     -39.484  24.687  -7.206  0.00  0.00     0.073 C 
BRANCH  36  37
ATOM     37  C20 NON d   1     -39.320  24.466  -8.718  0.00  0.00    -0.056 A 
ATOM     38  C21 NON d   1     -40.304  23.960  -9.583  0.00  0.00     0.007 A 
ATOM     39  C22 NON d   1     -40.068  23.798 -10.952  0.00  0.00     0.001 A 
ATOM     40  C23 NON d   1     -38.836  24.133 -11.493  0.00  0.00     0.000 A 
ATOM     41  C24 NON d   1     -37.839  24.629 -10.660  0.00  0.00     0.001 A 
ATOM     42  C25 NON d   1     -38.079  24.796  -9.290  0.00  0.00     0.007 A 
ENDBRANCH  36  37
ENDBRANCH  18  36
TORSDOF 9
ENDMDL
MODEL 2
REMARK VINA RESULT:   -15.311      1.266      4.012
REMARK INTER + INTRA:         -19.795
REMARK INTER:                 -17.995
REMARK INTRA:                  -1.800
REMARK CONF_INDEPENDENT:        2.685
REMARK UNBOUND:                -1.800
REMARK  9 active torsions:
REMARK  status: ('A' for Active; 'I' for Inactive)
REMARK    1  A    between atoms: C5_7  and  C6_8 
REMARK    2  A    between atoms: C6_8  and  C7_9 
REMARK    3  A    between atoms: C7_9  and  C8_10 
REMARK    4  A    between atoms: C8_10  and  C9_11 
REMARK    5  A    between atoms: C9_11  and  C10_12 
REMARK    6  A    between atoms: C10_12  and  C11_13 
REMARK       I    between atoms: C11_13  and  N2_15 
REMARK    7  A    between atoms: N2_15  and  O3_16 
REMARK    8  A    between atoms: C18_27  and  C19_28 
REMARK    9  A    between atoms: C19_28  and  C20_29 
ROOT
ATOM      1  C1  NON d   1     -40.735  23.207  -1.615  0.00  0.00     0.048 C 
ATOM      2  C2  NON d   1     -40.153  23.421  -3.026  0.00  0.00     0.106 C 
ATOM      3  C3  NON d   1     -38.801  24.111  -2.564  0.00  0.00     0.048 C 
ATOM      4  N1  NON d   1     -39.973  21.919  -3.426  0.00  0.00    -0.342 N 
ATOM      5  C4  NON d   1     -39.842  20.785  -2.628  0.00  0.00     0.241 C 
ATOM      6  O1  NON d   1     -39.492  20.793  -1.462  0.00  0.00    -0.271 OA
ATOM      7  C5  NON d   1     -40.318  19.533  -3.422  0.00  0.00     0.176 C 
ATOM      8  N3  NON d   1     -39.511  19.509  -4.665  0.00  0.00    -0.346 N 
ATOM      9  C12 NON d   1     -39.950  18.849  -5.791  0.00  0.00     0.241 C 
ATOM     10  O4  NON d   1     -40.705  17.878  -5.722  0.00  0.00    -0.271 OA
ATOM     11  C13 NON d   1     -39.405  19.345  -7.155  0.00  0.00     0.179 C 
ATOM     12  C14 NON d   1     -38.362  18.380  -7.714  0.00  0.00     0.037 C 
ATOM     13  C15 NON d   1     -37.767  19.198  -8.849  0.00  0.00     0.022 C 
ATOM     14  C16 NON d   1     -37.683  20.602  -8.250  0.00  0.00     0.127 C 
ATOM     15  N4  NON d   1     -38.713  20.653  -7.208  0.00  0.00    -0.337 N 
ATOM     16  C17 NON d   1     -39.456  21.833  -7.052  0.00  0.00     0.243 C 
ATOM     17  O5  NON d   1     -40.689  21.801  -7.009  0.00  0.00    -0.271 OA
ATOM     18  C18 NON d   1     -38.647  23.058  -6.545  0.00  0.00     0.181 C 
ATOM     19  N5  NON d   1     -39.105  23.300  -5.171  0.00  0.00    -0.345 N 
ATOM     20  C26 NON d   1     -40.233  23.887  -4.534  0.00  0.00     0.246 C 
ATOM     21  O6  NON d   1     -41.052  24.630  -5.040  0.00  0.00    -0.271 OA
ATOM     22  H7  NON d   1     -40.484  21.707  -4.286  0.00  0.00     0.163 HD
ATOM     23  H21 NON d   1     -38.884  20.285  -4.831  0.00  0.00     0.163 HD
ATOM     24  H37 NON d   1     -38.646  22.652  -4.538  0.00  0.00     0.163 HD
ENDROOT
BRANCH   7  25
ATOM     25  C6  NON d   1     -40.362  18.224  -2.609  0.00  0.00     0.035 C 
BRANCH  25  26
ATOM     26  C7  NON d   1     -41.495  17.255  -3.057  0.00  0.00     0.002 C 
BRANCH  26  27
ATOM     27  C8  NON d   1     -42.859  17.923  -3.284  0.00  0.00     0.001 C 
BRANCH  27  28
ATOM     28  C9  NON d   1     -43.760  17.202  -4.309  0.00  0.00     0.009 C 
BRANCH  28  29
ATOM     29  C10 NON d   1     -45.264  17.344  -4.050  0.00  0.00     0.105 C 
BRANCH  29  30
ATOM     30  C11 NON d   1     -46.112  16.924  -5.253  0.00  0.00     0.240 C 
ATOM     31  O2  NON d   1     -46.316  17.636  -6.227  0.00  0.00    -0.271 OA
ATOM     32  N2  NON d   1     -46.692  15.681  -5.078  0.00  0.00    -0.237 N 
ATOM     33  H19 NON d   1     -46.315  15.006  -4.424  0.00  0.00     0.197 HD
BRANCH  32  34
ATOM     34  O3  NON d   1     -47.383  15.146  -6.185  0.00  0.00    -0.287 OA
ATOM     35  H20 NON d   1     -47.117  15.748  -6.909  0.00  0.00     0.244 HD
ENDBRANCH  32  34
ENDBRANCH  29  30
ENDBRANCH  28  29
ENDBRANCH  27  28
ENDBRANCH  26  27
ENDBRANCH  25  26
ENDBRANCH   7  25
BRANCH  18  36
ATOM     36  C19 NON d   1     -38.498  24.293  -7.428  0.00  0.00     0.073 C 
BRANCH  36  37
ATOM     37  C20 NON d   1     -38.955  24.174  -8.891  0.00  0.00    -0.056 A 
ATOM     38  C21 NON d   1     -39.969  24.933  -9.496  0.00  0.00     0.007 A 
ATOM     39  C22 NON d   1     -40.316  24.761 -10.840  0.00  0.00     0.001 A 
ATOM     40  C23 NON d   1     -39.659  23.819 -11.616  0.00  0.00     0.000 A 
ATOM     41  C24 NON d   1     -38.654  23.046 -11.042  0.00  0.00     0.001 A 
ATOM     42  C25 NON d   1     -38.305  23.224  -9.698  0.00  0.00     0.007 A 
ENDBRANCH  36  37
ENDBRANCH  18  36
TORSDOF 9
ENDMDL
MODEL 3
REMARK VINA RESULT:   -14.511      1.906      4.402
REMARK INTER + INTRA:         -19.004
REMARK INTER:                 -17.196
REMARK INTRA:                  -1.808
REMARK CONF_INDEPENDENT:        2.685
REMARK UNBOUND:                -1.808
REMARK  9 active torsions:
REMARK  status: ('A' for Active; 'I' for Inactive)
REMARK    1  A    between atoms: C5_7  and  C6_8 
REMARK    2  A    between atoms: C6_8  and  C7_9 
REMARK    3  A    between atoms: C7_9  and  C8_10 
REMARK    4  A    between atoms: C8_10  and  C9_11 
REMARK    5  A    between atoms: C9_11  and  C10_12 
REMARK    6  A    between atoms: C10_12  and  C11_13 
REMARK       I    between atoms: C11_13  and  N2_15 
REMARK    7  A    between atoms: N2_15  and  O3_16 
REMARK    8  A    between atoms: C18_27  and  C19_28 
REMARK    9  A    between atoms: C19_28  and  C20_29 
ROOT
ATOM      1  C1  NON d   1     -41.154  23.502  -2.515  0.00  0.00     0.048 C 
ATOM      2  C2  NON d   1     -40.420  24.085  -3.737  0.00  0.00     0.106 C 
ATOM      3  C3  NON d   1     -39.091  24.497  -2.975  0.00  0.00     0.048 C 
ATOM      4  N1  NON d   1     -40.272  22.763  -4.563  0.00  0.00    -0.342 N 
ATOM      5  C4  NON d   1     -40.279  21.435  -4.142  0.00  0.00     0.241 C 
ATOM      6  O1  NON d   1     -40.051  21.066  -3.004  0.00  0.00    -0.271 OA
ATOM      7  C5  NON d   1     -40.729  20.520  -5.319  0.00  0.00     0.176 C 
ATOM      8  N3  NON d   1     -39.799  20.809  -6.437  0.00  0.00    -0.346 N 
ATOM      9  C12 NON d   1     -40.150  20.553  -7.743  0.00  0.00     0.241 C 
ATOM     10  O4  NON d   1     -40.954  19.668  -8.039  0.00  0.00    -0.271 OA
ATOM     11  C13 NON d   1     -39.444  21.393  -8.839  0.00  0.00     0.179 C 
ATOM     12  C14 NON d   1     -38.396  20.563  -9.577  0.00  0.00     0.037 C 
ATOM     13  C15 NON d   1     -37.648  21.635 -10.353  0.00  0.00     0.022 C 
ATOM     14  C16 NON d   1     -37.560  22.784  -9.347  0.00  0.00     0.127 C 
ATOM     15  N4  NON d   1     -38.688  22.598  -8.430  0.00  0.00    -0.337 N 
ATOM     16  C17 NON d   1     -39.386  23.731  -7.983  0.00  0.00     0.243 C 
ATOM     17  O5  NON d   1     -40.617  23.783  -8.055  0.00  0.00    -0.271 OA
ATOM     18  C18 NON d   1     -38.576  24.681  -7.059  0.00  0.00     0.181 C 
ATOM     19  N5  NON d   1     -39.162  24.534  -5.721  0.00  0.00    -0.345 N 
ATOM     20  C26 NON d   1     -40.321  24.987  -5.032  0.00  0.00     0.246 C 
ATOM     21  O6  NON d   1     -41.046  25.908  -5.353  0.00  0.00    -0.271 OA
ATOM     22  H7  NON d   1     -40.701  22.860  -5.486  0.00  0.00     0.163 HD
ATOM     23  H21 NON d   1     -39.122  21.548  -6.304  0.00  0.00     0.163 HD
ATOM     24  H37 NON d   1     -38.803  23.691  -5.280  0.00  0.00     0.163 HD
ENDROOT
BRANCH   7  25
ATOM     25  C6  NON d   1     -40.920  19.036  -4.953  0.00  0.00     0.035 C 
BRANCH  25  26
ATOM     26  C7  NON d   1     -41.754  18.820  -3.656  0.00  0.00     0.002 C 
BRANCH  26  27
ATOM     27  C8  NON d   1     -42.587  17.529  -3.636  0.00  0.00     0.001 C 
BRANCH  27  28
ATOM     28  C9  NON d   1     -43.705  17.474  -4.697  0.00  0.00     0.009 C 
BRANCH  28  29
ATOM     29  C10 NON d   1     -45.094  17.129  -4.148  0.00  0.00     0.105 C 
BRANCH  29  30
ATOM     30  C11 NON d   1     -46.124  16.895  -5.253  0.00  0.00     0.240 C 
ATOM     31  O2  NON d   1     -46.315  17.665  -6.185  0.00  0.00    -0.271 OA
ATOM     32  N2  NON d   1     -46.877  15.755  -5.036  0.00  0.00    -0.237 N 
ATOM     33  H19 NON d   1     -46.546  15.005  -4.441  0.00  0.00     0.197 HD
BRANCH  32  34
ATOM     34  O3  NON d   1     -47.763  15.378  -6.066  0.00  0.00    -0.287 OA
ATOM     35  H20 NON d   1     -47.866  16.211  -6.569  0.00  0.00     0.244 HD
ENDBRANCH  32  34
ENDBRANCH  29  30
ENDBRANCH  28  29
ENDBRANCH  27  28
ENDBRANCH  26  27
ENDBRANCH  25  26
ENDBRANCH   7  25
BRANCH  18  36
ATOM     36  C19 NON d   1     -38.277  26.109  -7.505  0.00  0.00     0.073 C 
BRANCH  36  37
ATOM     37  C20 NON d   1     -38.611  26.478  -8.960  0.00  0.00    -0.056 A 
ATOM     38  C21 NON d   1     -37.722  26.421 -10.044  0.00  0.00     0.007 A 
ATOM     39  C22 NON d   1     -38.115  26.772 -11.340  0.00  0.00     0.001 A 
ATOM     40  C23 NON d   1     -39.412  27.196 -11.584  0.00  0.00     0.000 A 
ATOM     41  C24 NON d   1     -40.315  27.270 -10.528  0.00  0.00     0.001 A 
ATOM     42  C25 NON d   1     -39.920  26.913  -9.233  0.00  0.00     0.007 A 
ENDBRANCH  36  37
ENDBRANCH  18  36
TORSDOF 9
ENDMDL
MODEL 4
REMARK VINA RESULT:   -14.192      1.800      5.130
REMARK INTER + INTRA:         -18.882
REMARK INTER:                 -16.876
REMARK INTRA:                  -2.006
REMARK CONF_INDEPENDENT:        2.685
REMARK UNBOUND:                -2.006
REMARK  9 active torsions:
REMARK  status: ('A' for Active; 'I' for Inactive)
REMARK    1  A    between atoms: C5_7  and  C6_8 
REMARK    2  A    between atoms: C6_8  and  C7_9 
REMARK    3  A    between atoms: C7_9  and  C8_10 
REMARK    4  A    between atoms: C8_10  and  C9_11 
REMARK    5  A    between atoms: C9_11  and  C10_12 
REMARK    6  A    between atoms: C10_12  and  C11_13 
REMARK       I    between atoms: C11_13  and  N2_15 
REMARK    7  A    between atoms: N2_15  and  O3_16 
REMARK    8  A    between atoms: C18_27  and  C19_28 
REMARK    9  A    between atoms: C19_28  and  C20_29 
ROOT
ATOM      1  C1  NON d   1     -40.377  20.186  -1.307  0.00  0.00     0.048 C 
ATOM      2  C2  NON d   1     -39.830  21.390  -2.096  0.00  0.00     0.106 C 
ATOM      3  C3  NON d   1     -38.367  21.361  -1.485  0.00  0.00     0.048 C 
ATOM      4  N1  NON d   1     -39.911  20.774  -3.533  0.00  0.00    -0.342 N 
ATOM      5  C4  NON d   1     -39.929  19.442  -3.939  0.00  0.00     0.241 C 
ATOM      6  O1  NON d   1     -39.532  18.505  -3.270  0.00  0.00    -0.271 OA
ATOM      7  C5  NON d   1     -40.634  19.331  -5.324  0.00  0.00     0.176 C 
ATOM      8  N3  NON d   1     -39.895  20.243  -6.230  0.00  0.00    -0.346 N 
ATOM      9  C12 NON d   1     -40.482  20.754  -7.365  0.00  0.00     0.241 C 
ATOM     10  O4  NON d   1     -41.379  20.154  -7.959  0.00  0.00    -0.271 OA
ATOM     11  C13 NON d   1     -39.924  22.097  -7.903  0.00  0.00     0.179 C 
ATOM     12  C14 NON d   1     -39.074  21.878  -9.153  0.00  0.00     0.037 C 
ATOM     13  C15 NON d   1     -38.405  23.235  -9.308  0.00  0.00     0.022 C 
ATOM     14  C16 NON d   1     -38.072  23.617  -7.866  0.00  0.00     0.127 C 
ATOM     15  N4  NON d   1     -39.034  22.895  -7.029  0.00  0.00    -0.337 N 
ATOM     16  C17 NON d   1     -39.571  23.544  -5.907  0.00  0.00     0.243 C 
ATOM     17  O5  NON d   1     -40.790  23.570  -5.716  0.00  0.00    -0.271 OA
ATOM     18  C18 NON d   1     -38.555  23.842  -4.770  0.00  0.00     0.181 C 
ATOM     19  N5  NON d   1     -38.909  22.938  -3.668  0.00  0.00    -0.345 N 
ATOM     20  C26 NON d   1     -39.900  22.869  -2.651  0.00  0.00     0.246 C 
ATOM     21  O6  NON d   1     -40.610  23.776  -2.262  0.00  0.00    -0.271 OA
ATOM     22  H7  NON d   1     -40.486  21.355  -4.147  0.00  0.00     0.163 HD
ATOM     23  H21 NON d   1     -39.160  20.809  -5.826  0.00  0.00     0.163 HD
ATOM     24  H37 NON d   1     -38.533  22.012  -3.851  0.00  0.00     0.163 HD
ENDROOT
BRANCH   7  25
ATOM     25  C6  NON d   1     -40.851  17.892  -5.830  0.00  0.00     0.035 C 
BRANCH  25  26
ATOM     26  C7  NON d   1     -42.234  17.298  -5.432  0.00  0.00     0.002 C 
BRANCH  26  27
ATOM     27  C8  NON d   1     -42.708  17.668  -4.018  0.00  0.00     0.001 C 
BRANCH  27  28
ATOM     28  C9  NON d   1     -44.187  17.332  -3.732  0.00  0.00     0.009 C 
BRANCH  28  29
ATOM     29  C10 NON d   1     -45.182  17.911  -4.744  0.00  0.00     0.105 C 
BRANCH  29  30
ATOM     30  C11 NON d   1     -46.014  16.831  -5.437  0.00  0.00     0.240 C 
ATOM     31  O2  NON d   1     -45.565  15.755  -5.810  0.00  0.00    -0.271 OA
ATOM     32  N2  NON d   1     -47.315  17.239  -5.672  0.00  0.00    -0.237 N 
ATOM     33  H19 NON d   1     -47.741  17.987  -5.138  0.00  0.00     0.197 HD
BRANCH  32  34
ATOM     34  O3  NON d   1     -48.199  16.268  -6.185  0.00  0.00    -0.287 OA
ATOM     35  H20 NON d   1     -47.675  15.445  -6.107  0.00  0.00     0.244 HD
ENDBRANCH  32  34
ENDBRANCH  29  30
ENDBRANCH  28  29
ENDBRANCH  27  28
ENDBRANCH  26  27
ENDBRANCH  25  26
ENDBRANCH   7  25
BRANCH  18  36
ATOM     36  C19 NON d   1     -38.248  25.285  -4.380  0.00  0.00     0.073 C 
BRANCH  36  37
ATOM     37  C20 NON d   1     -39.266  26.004  -3.480  0.00  0.00    -0.056 A 
ATOM     38  C21 NON d   1     -40.539  26.446  -3.876  0.00  0.00     0.007 A 
ATOM     39  C22 NON d   1     -41.405  27.089  -2.985  0.00  0.00     0.001 A 
ATOM     40  C23 NON d   1     -41.017  27.313  -1.673  0.00  0.00     0.000 A 
ATOM     41  C24 NON d   1     -39.759  26.893  -1.254  0.00  0.00     0.001 A 
ATOM     42  C25 NON d   1     -38.895  26.245  -2.146  0.00  0.00     0.007 A 
ENDBRANCH  36  37
ENDBRANCH  18  36
TORSDOF 9
ENDMDL
MODEL 5
REMARK VINA RESULT:   -14.080      1.782      4.198
REMARK INTER + INTRA:         -18.776
REMARK INTER:                 -16.764
REMARK INTRA:                  -2.011
REMARK CONF_INDEPENDENT:        2.685
REMARK UNBOUND:                -2.011
REMARK  9 active torsions:
REMARK  status: ('A' for Active; 'I' for Inactive)
REMARK    1  A    between atoms: C5_7  and  C6_8 
REMARK    2  A    between atoms: C6_8  and  C7_9 
REMARK    3  A    between atoms: C7_9  and  C8_10 
REMARK    4  A    between atoms: C8_10  and  C9_11 
REMARK    5  A    between atoms: C9_11  and  C10_12 
REMARK    6  A    between atoms: C10_12  and  C11_13 
REMARK       I    between atoms: C11_13  and  N2_15 
REMARK    7  A    between atoms: N2_15  and  O3_16 
REMARK    8  A    between atoms: C18_27  and  C19_28 
REMARK    9  A    between atoms: C19_28  and  C20_29 
ROOT
ATOM      1  C1  NON d   1     -38.777  21.778  -0.807  0.00  0.00     0.048 C 
ATOM      2  C2  NON d   1     -38.580  22.559  -2.120  0.00  0.00     0.106 C 
ATOM      3  C3  NON d   1     -37.009  22.735  -1.996  0.00  0.00     0.048 C 
ATOM      4  N1  NON d   1     -38.997  21.429  -3.120  0.00  0.00    -0.342 N 
ATOM      5  C4  NON d   1     -39.006  20.045  -2.959  0.00  0.00     0.241 C 
ATOM      6  O1  NON d   1     -38.356  19.438  -2.126  0.00  0.00    -0.271 OA
ATOM      7  C5  NON d   1     -40.051  19.417  -3.928  0.00  0.00     0.176 C 
ATOM      8  N3  NON d   1     -39.675  19.878  -5.285  0.00  0.00    -0.346 N 
ATOM      9  C12 NON d   1     -40.596  19.915  -6.308  0.00  0.00     0.241 C 
ATOM     10  O4  NON d   1     -41.564  19.153  -6.340  0.00  0.00    -0.271 OA
ATOM     11  C13 NON d   1     -40.331  20.922  -7.457  0.00  0.00     0.179 C 
ATOM     12  C14 NON d   1     -39.842  20.206  -8.714  0.00  0.00     0.037 C 
ATOM     13  C15 NON d   1     -39.367  21.374  -9.565  0.00  0.00     0.022 C 
ATOM     14  C16 NON d   1     -38.686  22.285  -8.543  0.00  0.00     0.127 C 
ATOM     15  N4  NON d   1     -39.312  21.976  -7.254  0.00  0.00    -0.337 N 
ATOM     16  C17 NON d   1     -39.575  23.028  -6.365  0.00  0.00     0.243 C 
ATOM     17  O5  NON d   1     -40.692  23.160  -5.856  0.00  0.00    -0.271 OA
ATOM     18  C18 NON d   1     -38.317  23.724  -5.776  0.00  0.00     0.181 C 
ATOM     19  N5  NON d   1     -38.271  23.337  -4.360  0.00  0.00    -0.345 N 
ATOM     20  C26 NON d   1     -38.933  23.701  -3.155  0.00  0.00     0.246 C 
ATOM     21  O6  NON d   1     -39.588  24.706  -2.958  0.00  0.00    -0.271 OA
ATOM     22  H7  NON d   1     -39.769  21.736  -3.716  0.00  0.00     0.163 HD
ATOM     23  H21 NON d   1     -38.912  20.537  -5.362  0.00  0.00     0.163 HD
ATOM     24  H37 NON d   1     -37.877  22.404  -4.273  0.00  0.00     0.163 HD
ENDROOT
BRANCH   7  25
ATOM     25  C6  NON d   1     -40.268  17.901  -3.755  0.00  0.00     0.035 C 
BRANCH  25  26
ATOM     26  C7  NON d   1     -41.560  17.547  -2.963  0.00  0.00     0.002 C 
BRANCH  26  27
ATOM     27  C8  NON d   1     -42.852  18.143  -3.543  0.00  0.00     0.001 C 
BRANCH  27  28
ATOM     28  C9  NON d   1     -43.737  17.132  -4.303  0.00  0.00     0.009 C 
BRANCH  28  29
ATOM     29  C10 NON d   1     -45.237  17.250  -4.015  0.00  0.00     0.105 C 
BRANCH  29  30
ATOM     30  C11 NON d   1     -46.101  16.885  -5.223  0.00  0.00     0.240 C 
ATOM     31  O2  NON d   1     -46.279  17.621  -6.184  0.00  0.00    -0.271 OA
ATOM     32  N2  NON d   1     -46.727  15.661  -5.070  0.00  0.00    -0.237 N 
ATOM     33  H19 NON d   1     -46.375  14.960  -4.429  0.00  0.00     0.197 HD
BRANCH  32  34
ATOM     34  O3  NON d   1     -47.439  15.172  -6.185  0.00  0.00    -0.287 OA
ATOM     35  H20 NON d   1     -47.357  15.908  -6.824  0.00  0.00     0.244 HD
ENDBRANCH  32  34
ENDBRANCH  29  30
ENDBRANCH  28  29
ENDBRANCH  27  28
ENDBRANCH  26  27
ENDBRANCH  25  26
ENDBRANCH   7  25
BRANCH  18  36
ATOM     36  C19 NON d   1     -38.047  25.195  -6.077  0.00  0.00     0.073 C 
BRANCH  36  37
ATOM     37  C20 NON d   1     -39.145  25.978  -6.814  0.00  0.00    -0.056 A 
ATOM     38  C21 NON d   1     -40.211  26.660  -6.208  0.00  0.00     0.007 A 
ATOM     39  C22 NON d   1     -41.165  27.355  -6.960  0.00  0.00     0.001 A 
ATOM     40  C23 NON d   1     -41.079  27.380  -8.343  0.00  0.00     0.000 A 
ATOM     41  C24 NON d   1     -40.038  26.706  -8.974  0.00  0.00     0.001 A 
ATOM     42  C25 NON d   1     -39.081  26.017  -8.218  0.00  0.00     0.007 A 
ENDBRANCH  36  37
ENDBRANCH  18  36
TORSDOF 9
ENDMDL
MODEL 6
REMARK VINA RESULT:   -14.031      2.135      5.906
REMARK INTER + INTRA:         -18.622
REMARK INTER:                 -16.716
REMARK INTRA:                  -1.906
REMARK CONF_INDEPENDENT:        2.685
REMARK UNBOUND:                -1.906
REMARK  9 active torsions:
REMARK  status: ('A' for Active; 'I' for Inactive)
REMARK    1  A    between atoms: C5_7  and  C6_8 
REMARK    2  A    between atoms: C6_8  and  C7_9 
REMARK    3  A    between atoms: C7_9  and  C8_10 
REMARK    4  A    between atoms: C8_10  and  C9_11 
REMARK    5  A    between atoms: C9_11  and  C10_12 
REMARK    6  A    between atoms: C10_12  and  C11_13 
REMARK       I    between atoms: C11_13  and  N2_15 
REMARK    7  A    between atoms: N2_15  and  O3_16 
REMARK    8  A    between atoms: C18_27  and  C19_28 
REMARK    9  A    between atoms: C19_28  and  C20_29 
ROOT
ATOM      1  C1  NON d   1     -40.315  20.631  -0.165  0.00  0.00     0.048 C 
ATOM      2  C2  NON d   1     -40.071  21.980  -0.867  0.00  0.00     0.106 C 
ATOM      3  C3  NON d   1     -38.662  22.280  -0.204  0.00  0.00     0.048 C 
ATOM      4  N1  NON d   1     -39.961  21.451  -2.337  0.00  0.00    -0.342 N 
ATOM      5  C4  NON d   1     -39.633  20.185  -2.814  0.00  0.00     0.241 C 
ATOM      6  O1  NON d   1     -39.028  19.338  -2.181  0.00  0.00    -0.271 OA
ATOM      7  C5  NON d   1     -40.255  19.986  -4.229  0.00  0.00     0.176 C 
ATOM      8  N3  NON d   1     -39.748  21.107  -5.056  0.00  0.00    -0.346 N 
ATOM      9  C12 NON d   1     -40.419  21.523  -6.184  0.00  0.00     0.241 C 
ATOM     10  O4  NON d   1     -41.122  20.756  -6.842  0.00  0.00    -0.271 OA
ATOM     11  C13 NON d   1     -40.205  22.994  -6.627  0.00  0.00     0.179 C 
ATOM     12  C14 NON d   1     -39.299  23.072  -7.855  0.00  0.00     0.037 C 
ATOM     13  C15 NON d   1     -38.990  24.559  -7.912  0.00  0.00     0.022 C 
ATOM     14  C16 NON d   1     -38.797  24.924  -6.439  0.00  0.00     0.127 C 
ATOM     15  N4  NON d   1     -39.565  23.934  -5.680  0.00  0.00    -0.337 N 
ATOM     16  C17 NON d   1     -40.274  24.358  -4.545  0.00  0.00     0.243 C 
ATOM     17  O5  NON d   1     -41.465  24.067  -4.399  0.00  0.00    -0.271 OA
ATOM     18  C18 NON d   1     -39.393  24.831  -3.357  0.00  0.00     0.181 C 
ATOM     19  N5  NON d   1     -39.533  23.802  -2.319  0.00  0.00    -0.345 N 
ATOM     20  C26 NON d   1     -40.498  23.425  -1.345  0.00  0.00     0.246 C 
ATOM     21  O6  NON d   1     -41.422  24.100  -0.935  0.00  0.00    -0.271 OA
ATOM     22  H7  NON d   1     -40.649  21.906  -2.940  0.00  0.00     0.163 HD
ATOM     23  H21 NON d   1     -39.189  21.814  -4.595  0.00  0.00     0.163 HD
ATOM     24  H37 NON d   1     -38.931  23.012  -2.536  0.00  0.00     0.163 HD
ENDROOT
BRANCH   7  25
ATOM     25  C6  NON d   1     -40.091  18.572  -4.819  0.00  0.00     0.035 C 
BRANCH  25  26
ATOM     26  C7  NON d   1     -41.414  17.983  -5.389  0.00  0.00     0.002 C 
BRANCH  26  27
ATOM     27  C8  NON d   1     -42.635  18.137  -4.469  0.00  0.00     0.001 C 
BRANCH  27  28
ATOM     28  C9  NON d   1     -43.501  16.867  -4.339  0.00  0.00     0.009 C 
BRANCH  28  29
ATOM     29  C10 NON d   1     -44.978  17.129  -4.024  0.00  0.00     0.105 C 
BRANCH  29  30
ATOM     30  C11 NON d   1     -45.890  16.886  -5.227  0.00  0.00     0.240 C 
ATOM     31  O2  NON d   1     -45.974  17.643  -6.185  0.00  0.00    -0.271 OA
ATOM     32  N2  NON d   1     -46.674  15.757  -5.073  0.00  0.00    -0.237 N 
ATOM     33  H19 NON d   1     -46.415  15.014  -4.436  0.00  0.00     0.197 HD
BRANCH  32  34
ATOM     34  O3  NON d   1     -47.452  15.373  -6.185  0.00  0.00    -0.287 OA
ATOM     35  H20 NON d   1     -47.031  15.867  -6.916  0.00  0.00     0.244 HD
ENDBRANCH  32  34
ENDBRANCH  29  30
ENDBRANCH  28  29
ENDBRANCH  27  28
ENDBRANCH  26  27
ENDBRANCH  25  26
ENDBRANCH   7  25
BRANCH  18  36
ATOM     36  C19 NON d   1     -39.468  26.278  -2.879  0.00  0.00     0.073 C 
BRANCH  36  37
ATOM     37  C20 NON d   1     -39.721  26.514  -1.381  0.00  0.00    -0.056 A 
ATOM     38  C21 NON d   1     -40.931  26.945  -0.814  0.00  0.00     0.007 A 
ATOM     39  C22 NON d   1     -41.074  27.128   0.566  0.00  0.00     0.001 A 
ATOM     40  C23 NON d   1     -40.005  26.890   1.416  0.00  0.00     0.000 A 
ATOM     41  C24 NON d   1     -38.791  26.469   0.882  0.00  0.00     0.001 A 
ATOM     42  C25 NON d   1     -38.652  26.281  -0.499  0.00  0.00     0.007 A 
ENDBRANCH  36  37
ENDBRANCH  18  36
TORSDOF 9
ENDMDL
MODEL 7
REMARK VINA RESULT:   -13.473      2.087      4.991
REMARK INTER + INTRA:         -17.937
REMARK INTER:                 -16.158
REMARK INTRA:                  -1.779
REMARK CONF_INDEPENDENT:        2.685
REMARK UNBOUND:                -1.779
REMARK  9 active torsions:
REMARK  status: ('A' for Active; 'I' for Inactive)
REMARK    1  A    between atoms: C5_7  and  C6_8 
REMARK    2  A    between atoms: C6_8  and  C7_9 
REMARK    3  A    between atoms: C7_9  and  C8_10 
REMARK    4  A    between atoms: C8_10  and  C9_11 
REMARK    5  A    between atoms: C9_11  and  C10_12 
REMARK    6  A    between atoms: C10_12  and  C11_13 
REMARK       I    between atoms: C11_13  and  N2_15 
REMARK    7  A    between atoms: N2_15  and  O3_16 
REMARK    8  A    between atoms: C18_27  and  C19_28 
REMARK    9  A    between atoms: C19_28  and  C20_29 
ROOT
ATOM      1  C1  NON d   1     -39.056  22.617  -8.117  0.00  0.00     0.048 C 
ATOM      2  C2  NON d   1     -39.078  23.418  -6.802  0.00  0.00     0.106 C 
ATOM      3  C3  NON d   1     -40.315  24.341  -7.169  0.00  0.00     0.048 C 
ATOM      4  N1  NON d   1     -39.449  22.247  -5.831  0.00  0.00    -0.342 N 
ATOM      5  C4  NON d   1     -40.086  21.035  -6.087  0.00  0.00     0.241 C 
ATOM      6  O1  NON d   1     -40.789  20.811  -7.056  0.00  0.00    -0.271 OA
ATOM      7  C5  NON d   1     -39.670  19.993  -5.007  0.00  0.00     0.176 C 
ATOM      8  N3  NON d   1     -40.009  20.604  -3.700  0.00  0.00    -0.346 N 
ATOM      9  C12 NON d   1     -39.385  20.203  -2.540  0.00  0.00     0.241 C 
ATOM     10  O4  NON d   1     -38.933  19.065  -2.405  0.00  0.00    -0.271 OA
ATOM     11  C13 NON d   1     -39.325  21.232  -1.381  0.00  0.00     0.179 C 
ATOM     12  C14 NON d   1     -40.315  20.871  -0.275  0.00  0.00     0.037 C 
ATOM     13  C15 NON d   1     -40.305  22.137   0.567  0.00  0.00     0.022 C 
ATOM     14  C16 NON d   1     -40.263  23.246  -0.485  0.00  0.00     0.127 C 
ATOM     15  N4  NON d   1     -39.649  22.646  -1.672  0.00  0.00    -0.337 N 
ATOM     16  C17 NON d   1     -38.753  23.417  -2.429  0.00  0.00     0.243 C 
ATOM     17  O5  NON d   1     -37.643  22.973  -2.737  0.00  0.00    -0.271 OA
ATOM     18  C18 NON d   1     -39.386  24.629  -3.165  0.00  0.00     0.181 C 
ATOM     19  N5  NON d   1     -39.362  24.289  -4.593  0.00  0.00    -0.345 N 
ATOM     20  C26 NON d   1     -38.405  24.258  -5.644  0.00  0.00     0.246 C 
ATOM     21  O6  NON d   1     -37.321  24.808  -5.659  0.00  0.00    -0.271 OA
ATOM     22  H7  NON d   1     -38.745  22.146  -5.096  0.00  0.00     0.163 HD
ATOM     23  H21 NON d   1     -40.354  21.554  -3.703  0.00  0.00     0.163 HD
ATOM     24  H37 NON d   1     -40.137  23.668  -4.810  0.00  0.00     0.163 HD
ENDROOT
BRANCH   7  25
ATOM     25  C6  NON d   1     -40.191  18.562  -5.250  0.00  0.00     0.035 C 
BRANCH  25  26
ATOM     26  C7  NON d   1     -41.696  18.510  -5.643  0.00  0.00     0.002 C 
BRANCH  26  27
ATOM     27  C8  NON d   1     -42.657  18.251  -4.473  0.00  0.00     0.001 C 
BRANCH  27  28
ATOM     28  C9  NON d   1     -43.578  17.027  -4.663  0.00  0.00     0.009 C 
BRANCH  28  29
ATOM     29  C10 NON d   1     -45.023  17.234  -4.194  0.00  0.00     0.105 C 
BRANCH  29  30
ATOM     30  C11 NON d   1     -46.045  16.975  -5.301  0.00  0.00     0.240 C 
ATOM     31  O2  NON d   1     -46.315  17.777  -6.186  0.00  0.00    -0.271 OA
ATOM     32  N2  NON d   1     -46.694  15.764  -5.143  0.00  0.00    -0.237 N 
ATOM     33  H19 NON d   1     -46.292  15.012  -4.596  0.00  0.00     0.197 HD
BRANCH  32  34
ATOM     34  O3  NON d   1     -47.560  15.370  -6.185  0.00  0.00    -0.287 OA
ATOM     35  H20 NON d   1     -47.756  16.221  -6.626  0.00  0.00     0.244 HD
ENDBRANCH  32  34
ENDBRANCH  29  30
ENDBRANCH  28  29
ENDBRANCH  27  28
ENDBRANCH  26  27
ENDBRANCH  25  26
ENDBRANCH   7  25
BRANCH  18  36
ATOM     36  C19 NON d   1     -38.956  26.049  -2.808  0.00  0.00     0.073 C 
BRANCH  36  37
ATOM     37  C20 NON d   1     -39.119  26.489  -1.344  0.00  0.00    -0.056 A 
ATOM     38  C21 NON d   1     -38.093  26.965  -0.514  0.00  0.00     0.007 A 
ATOM     39  C22 NON d   1     -38.335  27.351   0.809  0.00  0.00     0.001 A 
ATOM     40  C23 NON d   1     -39.613  27.264   1.339  0.00  0.00     0.000 A 
ATOM     41  C24 NON d   1     -40.649  26.788   0.542  0.00  0.00     0.001 A 
ATOM     42  C25 NON d   1     -40.406  26.408  -0.783  0.00  0.00     0.007 A 
ENDBRANCH  36  37
ENDBRANCH  18  36
TORSDOF 9
ENDMDL
MODEL 8
REMARK VINA RESULT:   -13.317      1.990      4.735
REMARK INTER + INTRA:         -16.575
REMARK INTER:                 -16.002
REMARK INTRA:                  -0.573
REMARK CONF_INDEPENDENT:        2.685
REMARK UNBOUND:                -0.573
REMARK  9 active torsions:
REMARK  status: ('A' for Active; 'I' for Inactive)
REMARK    1  A    between atoms: C5_7  and  C6_8 
REMARK    2  A    between atoms: C6_8  and  C7_9 
REMARK    3  A    between atoms: C7_9  and  C8_10 
REMARK    4  A    between atoms: C8_10  and  C9_11 
REMARK    5  A    between atoms: C9_11  and  C10_12 
REMARK    6  A    between atoms: C10_12  and  C11_13 
REMARK       I    between atoms: C11_13  and  N2_15 
REMARK    7  A    between atoms: N2_15  and  O3_16 
REMARK    8  A    between atoms: C18_27  and  C19_28 
REMARK    9  A    between atoms: C19_28  and  C20_29 
ROOT
ATOM      1  C1  NON d   1     -40.579  25.790  -5.364  0.00  0.00     0.048 C 
ATOM      2  C2  NON d   1     -39.561  25.392  -6.450  0.00  0.00     0.106 C 
ATOM      3  C3  NON d   1     -38.279  25.984  -5.728  0.00  0.00     0.048 C 
ATOM      4  N1  NON d   1     -39.683  23.837  -6.314  0.00  0.00    -0.342 N 
ATOM      5  C4  NON d   1     -40.112  23.060  -5.241  0.00  0.00     0.241 C 
ATOM      6  O1  NON d   1     -40.143  23.432  -4.082  0.00  0.00    -0.271 OA
ATOM      7  C5  NON d   1     -40.645  21.695  -5.769  0.00  0.00     0.176 C 
ATOM      8  N3  NON d   1     -39.537  21.103  -6.555  0.00  0.00    -0.346 N 
ATOM      9  C12 NON d   1     -39.775  20.158  -7.528  0.00  0.00     0.241 C 
ATOM     10  O4  NON d   1     -40.749  19.405  -7.479  0.00  0.00    -0.271 OA
ATOM     11  C13 NON d   1     -38.729  20.042  -8.667  0.00  0.00     0.179 C 
ATOM     12  C14 NON d   1     -37.868  18.792  -8.497  0.00  0.00     0.037 C 
ATOM     13  C15 NON d   1     -36.759  19.046  -9.505  0.00  0.00     0.022 C 
ATOM     14  C16 NON d   1     -36.484  20.541  -9.339  0.00  0.00     0.127 C 
ATOM     15  N4  NON d   1     -37.727  21.120  -8.821  0.00  0.00    -0.337 N 
ATOM     16  C17 NON d   1     -38.133  22.377  -9.296  0.00  0.00     0.243 C 
ATOM     17  O5  NON d   1     -39.282  22.553  -9.712  0.00  0.00    -0.271 OA
ATOM     18  C18 NON d   1     -37.216  23.562  -8.888  0.00  0.00     0.181 C 
ATOM     19  N5  NON d   1     -37.986  24.349  -7.916  0.00  0.00    -0.345 N 
ATOM     20  C26 NON d   1     -39.051  25.291  -7.943  0.00  0.00     0.246 C 
ATOM     21  O6  NON d   1     -39.444  25.919  -8.907  0.00  0.00    -0.271 OA
ATOM     22  H7  NON d   1     -39.946  23.412  -7.206  0.00  0.00     0.163 HD
ATOM     23  H21 NON d   1     -38.704  21.662  -6.685  0.00  0.00     0.163 HD
ATOM     24  H37 NON d   1     -37.934  23.909  -7.002  0.00  0.00     0.163 HD
ENDROOT
BRANCH   7  25
ATOM     25  C6  NON d   1     -41.286  20.789  -4.699  0.00  0.00     0.035 C 
BRANCH  25  26
ATOM     26  C7  NON d   1     -41.624  19.362  -5.219  0.00  0.00     0.002 C 
BRANCH  26  27
ATOM     27  C8  NON d   1     -43.074  18.915  -4.976  0.00  0.00     0.001 C 
BRANCH  27  28
ATOM     28  C9  NON d   1     -43.280  17.386  -4.979  0.00  0.00     0.009 C 
BRANCH  28  29
ATOM     29  C10 NON d   1     -44.603  16.917  -4.364  0.00  0.00     0.105 C 
BRANCH  29  30
ATOM     30  C11 NON d   1     -45.757  16.927  -5.368  0.00  0.00     0.240 C 
ATOM     31  O2  NON d   1     -45.943  17.817  -6.187  0.00  0.00    -0.271 OA
ATOM     32  N2  NON d   1     -46.616  15.858  -5.191  0.00  0.00    -0.237 N 
ATOM     33  H19 NON d   1     -46.322  15.012  -4.718  0.00  0.00     0.197 HD
BRANCH  32  34
ATOM     34  O3  NON d   1     -47.637  15.703  -6.151  0.00  0.00    -0.287 OA
ATOM     35  H20 NON d   1     -47.134  15.678  -6.990  0.00  0.00     0.244 HD
ENDBRANCH  32  34
ENDBRANCH  29  30
ENDBRANCH  28  29
ENDBRANCH  27  28
ENDBRANCH  26  27
ENDBRANCH  25  26
ENDBRANCH   7  25
BRANCH  18  36
ATOM     36  C19 NON d   1     -36.478  24.359  -9.959  0.00  0.00     0.073 C 
BRANCH  36  37
ATOM     37  C20 NON d   1     -37.174  24.528 -11.319  0.00  0.00    -0.056 A 
ATOM     38  C21 NON d   1     -38.520  24.877 -11.512  0.00  0.00     0.007 A 
ATOM     39  C22 NON d   1     -39.070  25.015 -12.791  0.00  0.00     0.001 A 
ATOM     40  C23 NON d   1     -38.286  24.801 -13.914  0.00  0.00     0.000 A 
ATOM     41  C24 NON d   1     -36.950  24.446 -13.755  0.00  0.00     0.001 A 
ATOM     42  C25 NON d   1     -36.401  24.314 -12.474  0.00  0.00     0.007 A 
ENDBRANCH  36  37
ENDBRANCH  18  36
TORSDOF 9
ENDMDL
MODEL 9
REMARK VINA RESULT:   -12.967      3.409      6.587
REMARK INTER + INTRA:         -17.573
REMARK INTER:                 -15.652
REMARK INTRA:                  -1.921
REMARK CONF_INDEPENDENT:        2.685
REMARK UNBOUND:                -1.921
REMARK  9 active torsions:
REMARK  status: ('A' for Active; 'I' for Inactive)
REMARK    1  A    between atoms: C5_7  and  C6_8 
REMARK    2  A    between atoms: C6_8  and  C7_9 
REMARK    3  A    between atoms: C7_9  and  C8_10 
REMARK    4  A    between atoms: C8_10  and  C9_11 
REMARK    5  A    between atoms: C9_11  and  C10_12 
REMARK    6  A    between atoms: C10_12  and  C11_13 
REMARK       I    between atoms: C11_13  and  N2_15 
REMARK    7  A    between atoms: N2_15  and  O3_16 
REMARK    8  A    between atoms: C18_27  and  C19_28 
REMARK    9  A    between atoms: C19_28  and  C20_29 
ROOT
ATOM      1  C1  NON d   1     -41.105  24.524  -3.859  0.00  0.00     0.048 C 
ATOM      2  C2  NON d   1     -39.995  24.072  -2.891  0.00  0.00     0.106 C 
ATOM      3  C3  NON d   1     -40.810  24.311  -1.552  0.00  0.00     0.048 C 
ATOM      4  N1  NON d   1     -39.929  22.565  -3.312  0.00  0.00    -0.342 N 
ATOM      5  C4  NON d   1     -40.887  21.761  -3.927  0.00  0.00     0.241 C 
ATOM      6  O1  NON d   1     -42.083  21.988  -3.935  0.00  0.00    -0.271 OA
ATOM      7  C5  NON d   1     -40.179  20.601  -4.687  0.00  0.00     0.176 C 
ATOM      8  N3  NON d   1     -39.343  19.905  -3.680  0.00  0.00    -0.346 N 
ATOM      9  C12 NON d   1     -38.253  19.151  -4.053  0.00  0.00     0.241 C 
ATOM     10  O4  NON d   1     -38.188  18.601  -5.153  0.00  0.00    -0.271 OA
ATOM     11  C13 NON d   1     -37.127  18.974  -3.001  0.00  0.00     0.179 C 
ATOM     12  C14 NON d   1     -37.152  17.569  -2.401  0.00  0.00     0.037 C 
ATOM     13  C15 NON d   1     -36.204  17.724  -1.222  0.00  0.00     0.022 C 
ATOM     14  C16 NON d   1     -36.565  19.106  -0.675  0.00  0.00     0.127 C 
ATOM     15  N4  NON d   1     -37.130  19.847  -1.806  0.00  0.00    -0.337 N 
ATOM     16  C17 NON d   1     -36.814  21.207  -1.945  0.00  0.00     0.243 C 
ATOM     17  O5  NON d   1     -36.402  21.652  -3.020  0.00  0.00    -0.271 OA
ATOM     18  C18 NON d   1     -37.386  22.133  -0.837  0.00  0.00     0.181 C 
ATOM     19  N5  NON d   1     -38.436  22.930  -1.483  0.00  0.00    -0.345 N 
ATOM     20  C26 NON d   1     -38.511  24.057  -2.347  0.00  0.00     0.246 C 
ATOM     21  O6  NON d   1     -37.629  24.862  -2.573  0.00  0.00    -0.271 OA
ATOM     22  H7  NON d   1     -38.986  22.312  -3.614  0.00  0.00     0.163 HD
ATOM     23  H21 NON d   1     -39.301  20.303  -2.751  0.00  0.00     0.163 HD
ATOM     24  H37 NON d   1     -39.288  22.379  -1.555  0.00  0.00     0.163 HD
ENDROOT
BRANCH   7  25
ATOM     25  C6  NON d   1     -41.112  19.713  -5.533  0.00  0.00     0.035 C 
BRANCH  25  26
ATOM     26  C7  NON d   1     -42.278  19.086  -4.716  0.00  0.00     0.002 C 
BRANCH  26  27
ATOM     27  C8  NON d   1     -42.311  17.550  -4.718  0.00  0.00     0.001 C 
BRANCH  27  28
ATOM     28  C9  NON d   1     -43.684  16.940  -4.366  0.00  0.00     0.009 C 
BRANCH  28  29
ATOM     29  C10 NON d   1     -44.875  17.882  -4.571  0.00  0.00     0.105 C 
BRANCH  29  30
ATOM     30  C11 NON d   1     -45.911  17.321  -5.546  0.00  0.00     0.240 C 
ATOM     31  O2  NON d   1     -46.445  17.977  -6.431  0.00  0.00    -0.271 OA
ATOM     32  N2  NON d   1     -46.241  16.008  -5.264  0.00  0.00    -0.237 N 
ATOM     33  H19 NON d   1     -45.623  15.408  -4.731  0.00  0.00     0.197 HD
BRANCH  32  34
ATOM     34  O3  NON d   1     -47.087  15.357  -6.185  0.00  0.00    -0.287 OA
ATOM     35  H20 NON d   1     -47.050  15.952  -6.960  0.00  0.00     0.244 HD
ENDBRANCH  32  34
ENDBRANCH  29  30
ENDBRANCH  28  29
ENDBRANCH  27  28
ENDBRANCH  26  27
ENDBRANCH  25  26
ENDBRANCH   7  25
BRANCH  18  36
ATOM     36  C19 NON d   1     -36.439  22.896   0.084  0.00  0.00     0.073 C 
BRANCH  36  37
ATOM     37  C20 NON d   1     -37.010  24.111   0.833  0.00  0.00    -0.056 A 
ATOM     38  C21 NON d   1     -36.379  25.357   0.973  0.00  0.00     0.007 A 
ATOM     39  C22 NON d   1     -36.977  26.413   1.669  0.00  0.00     0.001 A 
ATOM     40  C23 NON d   1     -38.225  26.247   2.251  0.00  0.00     0.000 A 
ATOM     41  C24 NON d   1     -38.872  25.020   2.136  0.00  0.00     0.001 A 
ATOM     42  C25 NON d   1     -38.273  23.967   1.434  0.00  0.00     0.007 A 
ENDBRANCH  36  37
ENDBRANCH  18  36
TORSDOF 9
ENDMDL
