MODEL 1
REMARK VINA RESULT:   -34.187      0.000      0.000
REMARK INTER + INTRA:         -41.657
REMARK INTER:                 -39.557
REMARK INTRA:                  -2.101
REMARK CONF_INDEPENDENT:        5.369
REMARK UNBOUND:                -2.101
REMARK  18 active torsions:
REMARK  status: ('A' for Active; 'I' for Inactive)
REMARK       I    between atoms: C1_2  and  N1_3 
REMARK    1  A    between atoms: C1_2  and  O6_32 
REMARK    2  A    between atoms: C2_4  and  N1_3 
REMARK    3  A    between atoms: C2_4  and  C3_5 
REMARK    4  A    between atoms: C2_4  and  C14_19 
REMARK    5  A    between atoms: C3_5  and  C4_6 
REMARK    6  A    between atoms: C4_6  and  C5_7 
REMARK    7  A    between atoms: C5_7  and  C6_8 
REMARK    8  A    between atoms: C6_8  and  C7_9 
REMARK    9  A    between atoms: C7_9  and  C8_10 
REMARK   10  A    between atoms: C8_10  and  S1_11 
REMARK   11  A    between atoms: S1_11  and  S2_12 
REMARK   12  A    between atoms: S2_12  and  C9_13 
REMARK   13  A    between atoms: C14_19  and  O3_21 
REMARK   14  A    between atoms: O3_21  and  C15_22 
REMARK   15  A    between atoms: C15_22  and  C16_23 
REMARK   16  A    between atoms: C19_26  and  N3_27 
REMARK   17  A    between atoms: O6_32  and  C22_33 
REMARK   18  A    between atoms: C22_33  and  C23_34 
ROOT
ATOM      1  C2  NON d   1     -39.139  21.134  -4.329  0.00  0.00     0.186 C 
ENDROOT
BRANCH   1   2
ATOM      2  N1  NON d   1     -38.272  20.915  -5.488  0.00  0.00    -0.323 N 
ATOM      3  C1  NON d   1     -38.091  19.677  -6.026  0.00  0.00     0.361 C 
ATOM      4  O1  NON d   1     -38.051  18.635  -5.395  0.00  0.00    -0.238 OA
ATOM      5  H1  NON d   1     -38.292  21.635  -6.196  0.00  0.00     0.165 HD
BRANCH   3   6
ATOM      6  O6  NON d   1     -38.028  19.769  -7.379  0.00  0.00    -0.299 OA
BRANCH   6   7
ATOM      7  C22 NON d   1     -39.321  19.990  -7.957  0.00  0.00     0.219 C 
BRANCH   7   8
ATOM      8  C23 NON d   1     -39.550  21.414  -8.401  0.00  0.00    -0.034 A 
ATOM      9  C24 NON d   1     -39.435  21.708  -9.772  0.00  0.00     0.009 A 
ATOM     10  C25 NON d   1     -39.576  23.014 -10.237  0.00  0.00     0.001 A 
ATOM     11  C26 NON d   1     -39.836  24.043  -9.337  0.00  0.00     0.000 A 
ATOM     12  C27 NON d   1     -39.959  23.765  -7.976  0.00  0.00     0.001 A 
ATOM     13  C28 NON d   1     -39.815  22.458  -7.508  0.00  0.00     0.009 A 
ENDBRANCH   7   8
ENDBRANCH   6   7
ENDBRANCH   3   6
ENDBRANCH   1   2
BRANCH   1  14
ATOM     14  C3  NON d   1     -40.631  20.954  -4.697  0.00  0.00     0.035 C 
BRANCH  14  15
ATOM     15  C4  NON d   1     -41.380  19.786  -4.024  0.00  0.00     0.002 C 
BRANCH  15  16
ATOM     16  C5  NON d   1     -40.483  18.573  -3.751  0.00  0.00     0.000 C 
BRANCH  16  17
ATOM     17  C6  NON d   1     -41.153  17.435  -2.968  0.00  0.00     0.001 C 
BRANCH  17  18
ATOM     18  C7  NON d   1     -42.665  17.296  -3.178  0.00  0.00     0.011 C 
BRANCH  18  19
ATOM     19  C8  NON d   1     -43.091  17.401  -4.640  0.00  0.00     0.086 C 
BRANCH  19  20
ATOM     20  S1  NON d   1     -44.155  18.857  -4.934  0.00  0.00    -0.091 SA
BRANCH  20  21
ATOM     21  S2  NON d   1     -45.622  18.134  -6.184  0.00  0.00    -0.038 SA
BRANCH  21  22
ATOM     22  C9  NON d   1     -46.561  16.950  -5.225  0.00  0.00     0.103 A 
ATOM     23  C10 NON d   1     -46.324  16.885  -3.854  0.00  0.00     0.040 A 
ATOM     24  C11 NON d   1     -47.006  15.938  -3.093  0.00  0.00     0.004 A 
ATOM     25  C12 NON d   1     -47.904  15.084  -3.720  0.00  0.00     0.019 A 
ATOM     26  C13 NON d   1     -48.087  15.223  -5.084  0.00  0.00     0.118 A 
ATOM     27  N2  NON d   1     -47.440  16.131  -5.844  0.00  0.00    -0.253 NA
ENDBRANCH  21  22
ENDBRANCH  20  21
ENDBRANCH  19  20
ENDBRANCH  18  19
ENDBRANCH  17  18
ENDBRANCH  16  17
ENDBRANCH  15  16
ENDBRANCH  14  15
ENDBRANCH   1  14
BRANCH   1  28
ATOM     28  C14 NON d   1     -38.931  22.385  -3.432  0.00  0.00     0.282 C 
ATOM     29  O2  NON d   1     -37.979  23.153  -3.499  0.00  0.00    -0.263 OA
BRANCH  28  30
ATOM     30  O3  NON d   1     -40.041  22.584  -2.652  0.00  0.00    -0.315 OA
BRANCH  30  31
ATOM     31  C15 NON d   1     -39.948  22.075  -1.315  0.00  0.00     0.217 C 
BRANCH  31  32
ATOM     32  C16 NON d   1     -40.313  23.113  -0.263  0.00  0.00    -0.034 A 
ATOM     33  C17 NON d   1     -39.756  23.004   1.024  0.00  0.00     0.012 A 
ATOM     34  C18 NON d   1     -40.126  23.889   2.044  0.00  0.00     0.037 A 
ATOM     35  C19 NON d   1     -41.069  24.890   1.784  0.00  0.00     0.102 A 
ATOM     36  C20 NON d   1     -41.630  25.017   0.510  0.00  0.00     0.037 A 
ATOM     37  C21 NON d   1     -41.247  24.131  -0.503  0.00  0.00     0.012 A 
BRANCH  35  38
ATOM     38  N3  NON d   1     -41.481  25.806   2.856  0.00  0.00    -0.116 N 
ATOM     39  O4  NON d   1     -41.322  27.022   2.672  0.00  0.00    -0.532 OA
ATOM     40  O5  NON d   1     -41.966  25.311   3.884  0.00  0.00    -0.532 OA
ENDBRANCH  35  38
ENDBRANCH  31  32
ENDBRANCH  30  31
ENDBRANCH  28  30
ENDBRANCH   1  28
TORSDOF 18
ENDMDL
MODEL 2
REMARK VINA RESULT:   -33.568      1.467      2.039
REMARK INTER + INTRA:         -41.541
REMARK INTER:                 -38.937
REMARK INTRA:                  -2.603
REMARK CONF_INDEPENDENT:        5.369
REMARK UNBOUND:                -2.603
REMARK  18 active torsions:
REMARK  status: ('A' for Active; 'I' for Inactive)
REMARK       I    between atoms: C1_2  and  N1_3 
REMARK    1  A    between atoms: C1_2  and  O6_32 
REMARK    2  A    between atoms: C2_4  and  N1_3 
REMARK    3  A    between atoms: C2_4  and  C3_5 
REMARK    4  A    between atoms: C2_4  and  C14_19 
REMARK    5  A    between atoms: C3_5  and  C4_6 
REMARK    6  A    between atoms: C4_6  and  C5_7 
REMARK    7  A    between atoms: C5_7  and  C6_8 
REMARK    8  A    between atoms: C6_8  and  C7_9 
REMARK    9  A    between atoms: C7_9  and  C8_10 
REMARK   10  A    between atoms: C8_10  and  S1_11 
REMARK   11  A    between atoms: S1_11  and  S2_12 
REMARK   12  A    between atoms: S2_12  and  C9_13 
REMARK   13  A    between atoms: C14_19  and  O3_21 
REMARK   14  A    between atoms: O3_21  and  C15_22 
REMARK   15  A    between atoms: C15_22  and  C16_23 
REMARK   16  A    between atoms: C19_26  and  N3_27 
REMARK   17  A    between atoms: O6_32  and  C22_33 
REMARK   18  A    between atoms: C22_33  and  C23_34 
ROOT
ATOM      1  C2  NON d   1     -37.886  20.733  -4.453  0.00  0.00     0.186 C 
ENDROOT
BRANCH   1   2
ATOM      2  N1  NON d   1     -36.843  20.557  -5.465  0.00  0.00    -0.323 N 
ATOM      3  C1  NON d   1     -36.754  19.425  -6.215  0.00  0.00     0.361 C 
ATOM      4  O1  NON d   1     -37.014  18.300  -5.825  0.00  0.00    -0.238 OA
ATOM      5  H1  NON d   1     -36.599  21.382  -5.994  0.00  0.00     0.165 HD
BRANCH   3   6
ATOM      6  O6  NON d   1     -36.396  19.743  -7.485  0.00  0.00    -0.299 OA
BRANCH   6   7
ATOM      7  C22 NON d   1     -37.356  19.274  -8.441  0.00  0.00     0.219 C 
BRANCH   7   8
ATOM      8  C23 NON d   1     -38.785  19.585  -8.066  0.00  0.00    -0.034 A 
ATOM      9  C24 NON d   1     -39.364  20.761  -8.574  0.00  0.00     0.009 A 
ATOM     10  C25 NON d   1     -40.659  21.133  -8.217  0.00  0.00     0.001 A 
ATOM     11  C26 NON d   1     -41.391  20.332  -7.346  0.00  0.00     0.000 A 
ATOM     12  C27 NON d   1     -40.832  19.159  -6.839  0.00  0.00     0.001 A 
ATOM     13  C28 NON d   1     -39.534  18.787  -7.195  0.00  0.00     0.009 A 
ENDBRANCH   7   8
ENDBRANCH   6   7
ENDBRANCH   3   6
ENDBRANCH   1   2
BRANCH   1  14
ATOM     14  C3  NON d   1     -38.781  19.476  -4.339  0.00  0.00     0.035 C 
BRANCH  14  15
ATOM     15  C4  NON d   1     -38.939  18.856  -2.936  0.00  0.00     0.002 C 
BRANCH  15  16
ATOM     16  C5  NON d   1     -40.000  17.750  -2.882  0.00  0.00     0.000 C 
BRANCH  16  17
ATOM     17  C6  NON d   1     -41.280  18.118  -2.118  0.00  0.00     0.001 C 
BRANCH  17  18
ATOM     18  C7  NON d   1     -42.552  18.201  -2.970  0.00  0.00     0.011 C 
BRANCH  18  19
ATOM     19  C8  NON d   1     -42.344  17.775  -4.421  0.00  0.00     0.086 C 
BRANCH  19  20
ATOM     20  S1  NON d   1     -43.575  16.530  -4.945  0.00  0.00    -0.091 SA
BRANCH  20  21
ATOM     21  S2  NON d   1     -45.208  17.665  -5.474  0.00  0.00    -0.038 SA
BRANCH  21  22
ATOM     22  C9  NON d   1     -46.649  16.764  -4.913  0.00  0.00     0.103 A 
ATOM     23  C10 NON d   1     -46.896  16.713  -3.543  0.00  0.00     0.040 A 
ATOM     24  C11 NON d   1     -47.983  15.977  -3.077  0.00  0.00     0.004 A 
ATOM     25  C12 NON d   1     -48.793  15.313  -3.989  0.00  0.00     0.019 A 
ATOM     26  C13 NON d   1     -48.483  15.424  -5.333  0.00  0.00     0.118 A 
ATOM     27  N2  NON d   1     -47.436  16.130  -5.811  0.00  0.00    -0.253 NA
ENDBRANCH  21  22
ENDBRANCH  20  21
ENDBRANCH  19  20
ENDBRANCH  18  19
ENDBRANCH  17  18
ENDBRANCH  16  17
ENDBRANCH  15  16
ENDBRANCH  14  15
ENDBRANCH   1  14
BRANCH   1  28
ATOM     28  C14 NON d   1     -38.741  22.030  -4.439  0.00  0.00     0.282 C 
ATOM     29  O2  NON d   1     -39.192  22.591  -5.430  0.00  0.00    -0.263 OA
BRANCH  28  30
ATOM     30  O3  NON d   1     -39.036  22.375  -3.145  0.00  0.00    -0.315 OA
BRANCH  30  31
ATOM     31  C15 NON d   1     -40.435  22.465  -2.840  0.00  0.00     0.217 C 
BRANCH  31  32
ATOM     32  C16 NON d   1     -40.724  23.403  -1.677  0.00  0.00    -0.034 A 
ATOM     33  C17 NON d   1     -40.627  24.792  -1.882  0.00  0.00     0.012 A 
ATOM     34  C18 NON d   1     -40.806  25.688  -0.821  0.00  0.00     0.037 A 
ATOM     35  C19 NON d   1     -41.076  25.198   0.462  0.00  0.00     0.102 A 
ATOM     36  C20 NON d   1     -41.181  23.822   0.684  0.00  0.00     0.037 A 
ATOM     37  C21 NON d   1     -41.007  22.937  -0.386  0.00  0.00     0.012 A 
BRANCH  35  38
ATOM     38  N3  NON d   1     -41.239  26.132   1.584  0.00  0.00    -0.116 N 
ATOM     39  O4  NON d   1     -41.230  27.346   1.333  0.00  0.00    -0.532 OA
ATOM     40  O5  NON d   1     -41.378  25.652   2.719  0.00  0.00    -0.532 OA
ENDBRANCH  35  38
ENDBRANCH  31  32
ENDBRANCH  30  31
ENDBRANCH  28  30
ENDBRANCH   1  28
TORSDOF 18
ENDMDL
MODEL 3
REMARK VINA RESULT:   -33.524      2.199      2.885
REMARK INTER + INTRA:         -41.058
REMARK INTER:                 -38.893
REMARK INTRA:                  -2.164
REMARK CONF_INDEPENDENT:        5.369
REMARK UNBOUND:                -2.164
REMARK  18 active torsions:
REMARK  status: ('A' for Active; 'I' for Inactive)
REMARK       I    between atoms: C1_2  and  N1_3 
REMARK    1  A    between atoms: C1_2  and  O6_32 
REMARK    2  A    between atoms: C2_4  and  N1_3 
REMARK    3  A    between atoms: C2_4  and  C3_5 
REMARK    4  A    between atoms: C2_4  and  C14_19 
REMARK    5  A    between atoms: C3_5  and  C4_6 
REMARK    6  A    between atoms: C4_6  and  C5_7 
REMARK    7  A    between atoms: C5_7  and  C6_8 
REMARK    8  A    between atoms: C6_8  and  C7_9 
REMARK    9  A    between atoms: C7_9  and  C8_10 
REMARK   10  A    between atoms: C8_10  and  S1_11 
REMARK   11  A    between atoms: S1_11  and  S2_12 
REMARK   12  A    between atoms: S2_12  and  C9_13 
REMARK   13  A    between atoms: C14_19  and  O3_21 
REMARK   14  A    between atoms: O3_21  and  C15_22 
REMARK   15  A    between atoms: C15_22  and  C16_23 
REMARK   16  A    between atoms: C19_26  and  N3_27 
REMARK   17  A    between atoms: O6_32  and  C22_33 
REMARK   18  A    between atoms: C22_33  and  C23_34 
ROOT
ATOM      1  C2  NON d   1     -39.162  19.121  -5.999  0.00  0.00     0.186 C 
ENDROOT
BRANCH   1   2
ATOM      2  N1  NON d   1     -38.913  18.758  -7.395  0.00  0.00    -0.323 N 
ATOM      3  C1  NON d   1     -39.390  19.506  -8.427  0.00  0.00     0.361 C 
ATOM      4  O1  NON d   1     -40.457  20.096  -8.435  0.00  0.00    -0.238 OA
ATOM      5  H1  NON d   1     -38.000  18.375  -7.595  0.00  0.00     0.165 HD
BRANCH   3   6
ATOM      6  O6  NON d   1     -38.469  19.554  -9.423  0.00  0.00    -0.299 OA
BRANCH   6   7
ATOM      7  C22 NON d   1     -37.708  20.768  -9.385  0.00  0.00     0.219 C 
BRANCH   7   8
ATOM      8  C23 NON d   1     -38.415  21.945 -10.014  0.00  0.00    -0.034 A 
ATOM      9  C24 NON d   1     -37.985  22.378 -11.280  0.00  0.00     0.009 A 
ATOM     10  C25 NON d   1     -38.557  23.495 -11.886  0.00  0.00     0.001 A 
ATOM     11  C26 NON d   1     -39.569  24.192 -11.233  0.00  0.00     0.000 A 
ATOM     12  C27 NON d   1     -40.010  23.770  -9.979  0.00  0.00     0.001 A 
ATOM     13  C28 NON d   1     -39.436  22.653  -9.370  0.00  0.00     0.009 A 
ENDBRANCH   7   8
ENDBRANCH   6   7
ENDBRANCH   3   6
ENDBRANCH   1   2
BRANCH   1  14
ATOM     14  C3  NON d   1     -40.580  18.699  -5.549  0.00  0.00     0.035 C 
BRANCH  14  15
ATOM     15  C4  NON d   1     -41.154  19.398  -4.299  0.00  0.00     0.002 C 
BRANCH  15  16
ATOM     16  C5  NON d   1     -40.991  18.571  -3.018  0.00  0.00     0.000 C 
BRANCH  16  17
ATOM     17  C6  NON d   1     -41.854  17.302  -2.953  0.00  0.00     0.001 C 
BRANCH  17  18
ATOM     18  C7  NON d   1     -43.285  17.454  -3.483  0.00  0.00     0.011 C 
BRANCH  18  19
ATOM     19  C8  NON d   1     -43.358  17.655  -4.995  0.00  0.00     0.086 C 
BRANCH  19  20
ATOM     20  S1  NON d   1     -44.342  19.130  -5.435  0.00  0.00    -0.091 SA
BRANCH  20  21
ATOM     21  S2  NON d   1     -45.939  18.348  -6.473  0.00  0.00    -0.038 SA
BRANCH  21  22
ATOM     22  C9  NON d   1     -46.653  17.089  -5.420  0.00  0.00     0.103 A 
ATOM     23  C10 NON d   1     -46.341  17.116  -4.062  0.00  0.00     0.040 A 
ATOM     24  C11 NON d   1     -46.845  16.119  -3.231  0.00  0.00     0.004 A 
ATOM     25  C12 NON d   1     -47.645  15.123  -3.775  0.00  0.00     0.019 A 
ATOM     26  C13 NON d   1     -47.915  15.176  -5.131  0.00  0.00     0.118 A 
ATOM     27  N2  NON d   1     -47.440  16.130  -5.958  0.00  0.00    -0.253 NA
ENDBRANCH  21  22
ENDBRANCH  20  21
ENDBRANCH  19  20
ENDBRANCH  18  19
ENDBRANCH  17  18
ENDBRANCH  16  17
ENDBRANCH  15  16
ENDBRANCH  14  15
ENDBRANCH   1  14
BRANCH   1  28
ATOM     28  C14 NON d   1     -38.819  20.551  -5.498  0.00  0.00     0.282 C 
ATOM     29  O2  NON d   1     -37.718  20.920  -5.109  0.00  0.00    -0.263 OA
BRANCH  28  30
ATOM     30  O3  NON d   1     -39.896  21.379  -5.693  0.00  0.00    -0.315 OA
BRANCH  30  31
ATOM     31  C15 NON d   1     -39.572  22.748  -5.972  0.00  0.00     0.217 C 
BRANCH  31  32
ATOM     32  C16 NON d   1     -39.947  23.685  -4.834  0.00  0.00    -0.034 A 
ATOM     33  C17 NON d   1     -39.852  23.221  -3.508  0.00  0.00     0.012 A 
ATOM     34  C18 NON d   1     -40.264  24.021  -2.436  0.00  0.00     0.037 A 
ATOM     35  C19 NON d   1     -40.785  25.296  -2.683  0.00  0.00     0.102 A 
ATOM     36  C20 NON d   1     -40.882  25.777  -3.992  0.00  0.00     0.037 A 
ATOM     37  C21 NON d   1     -40.461  24.971  -5.055  0.00  0.00     0.012 A 
BRANCH  35  38
ATOM     38  N3  NON d   1     -41.242  26.131  -1.564  0.00  0.00    -0.116 N 
ATOM     39  O4  NON d   1     -41.036  25.720  -0.413  0.00  0.00    -0.532 OA
ATOM     40  O5  NON d   1     -41.808  27.200  -1.835  0.00  0.00    -0.532 OA
ENDBRANCH  35  38
ENDBRANCH  31  32
ENDBRANCH  30  31
ENDBRANCH  28  30
ENDBRANCH   1  28
TORSDOF 18
ENDMDL
MODEL 4
REMARK VINA RESULT:   -33.524      1.484      2.003
REMARK INTER + INTRA:         -41.309
REMARK INTER:                 -38.893
REMARK INTRA:                  -2.416
REMARK CONF_INDEPENDENT:        5.369
REMARK UNBOUND:                -2.416
REMARK  18 active torsions:
REMARK  status: ('A' for Active; 'I' for Inactive)
REMARK       I    between atoms: C1_2  and  N1_3 
REMARK    1  A    between atoms: C1_2  and  O6_32 
REMARK    2  A    between atoms: C2_4  and  N1_3 
REMARK    3  A    between atoms: C2_4  and  C3_5 
REMARK    4  A    between atoms: C2_4  and  C14_19 
REMARK    5  A    between atoms: C3_5  and  C4_6 
REMARK    6  A    between atoms: C4_6  and  C5_7 
REMARK    7  A    between atoms: C5_7  and  C6_8 
REMARK    8  A    between atoms: C6_8  and  C7_9 
REMARK    9  A    between atoms: C7_9  and  C8_10 
REMARK   10  A    between atoms: C8_10  and  S1_11 
REMARK   11  A    between atoms: S1_11  and  S2_12 
REMARK   12  A    between atoms: S2_12  and  C9_13 
REMARK   13  A    between atoms: C14_19  and  O3_21 
REMARK   14  A    between atoms: O3_21  and  C15_22 
REMARK   15  A    between atoms: C15_22  and  C16_23 
REMARK   16  A    between atoms: C19_26  and  N3_27 
REMARK   17  A    between atoms: O6_32  and  C22_33 
REMARK   18  A    between atoms: C22_33  and  C23_34 
ROOT
ATOM      1  C2  NON d   1     -37.713  20.334  -3.996  0.00  0.00     0.186 C 
ENDROOT
BRANCH   1   2
ATOM      2  N1  NON d   1     -36.725  20.091  -5.048  0.00  0.00    -0.323 N 
ATOM      3  C1  NON d   1     -36.524  18.850  -5.571  0.00  0.00     0.361 C 
ATOM      4  O1  NON d   1     -36.592  17.804  -4.948  0.00  0.00    -0.238 OA
ATOM      5  H1  NON d   1     -36.637  20.814  -5.747  0.00  0.00     0.165 HD
BRANCH   3   6
ATOM      6  O6  NON d   1     -36.300  18.946  -6.907  0.00  0.00    -0.299 OA
BRANCH   6   7
ATOM      7  C22 NON d   1     -37.408  18.446  -7.668  0.00  0.00     0.219 C 
BRANCH   7   8
ATOM      8  C23 NON d   1     -38.431  19.502  -8.010  0.00  0.00    -0.034 A 
ATOM      9  C24 NON d   1     -38.017  20.845  -8.036  0.00  0.00     0.009 A 
ATOM     10  C25 NON d   1     -38.928  21.870  -8.286  0.00  0.00     0.001 A 
ATOM     11  C26 NON d   1     -40.265  21.562  -8.516  0.00  0.00     0.000 A 
ATOM     12  C27 NON d   1     -40.690  20.234  -8.500  0.00  0.00     0.001 A 
ATOM     13  C28 NON d   1     -39.779  19.207  -8.247  0.00  0.00     0.009 A 
ENDBRANCH   7   8
ENDBRANCH   6   7
ENDBRANCH   3   6
ENDBRANCH   1   2
BRANCH   1  14
ATOM     14  C3  NON d   1     -38.558  21.594  -4.294  0.00  0.00     0.035 C 
BRANCH  14  15
ATOM     15  C4  NON d   1     -40.087  21.407  -4.374  0.00  0.00     0.002 C 
BRANCH  15  16
ATOM     16  C5  NON d   1     -40.498  20.081  -5.024  0.00  0.00     0.000 C 
BRANCH  16  17
ATOM     17  C6  NON d   1     -39.969  18.823  -4.320  0.00  0.00     0.001 C 
BRANCH  17  18
ATOM     18  C7  NON d   1     -41.027  17.768  -3.977  0.00  0.00     0.011 C 
BRANCH  18  19
ATOM     19  C8  NON d   1     -42.454  18.211  -4.289  0.00  0.00     0.086 C 
BRANCH  19  20
ATOM     20  S1  NON d   1     -43.541  16.788  -4.652  0.00  0.00    -0.091 SA
BRANCH  20  21
ATOM     21  S2  NON d   1     -45.201  17.657  -5.503  0.00  0.00    -0.038 SA
BRANCH  21  22
ATOM     22  C9  NON d   1     -46.611  16.720  -4.921  0.00  0.00     0.103 A 
ATOM     23  C10 NON d   1     -46.793  16.597  -3.545  0.00  0.00     0.040 A 
ATOM     24  C11 NON d   1     -47.854  15.833  -3.068  0.00  0.00     0.004 A 
ATOM     25  C12 NON d   1     -48.705  15.213  -3.973  0.00  0.00     0.019 A 
ATOM     26  C13 NON d   1     -48.460  15.395  -5.323  0.00  0.00     0.118 A 
ATOM     27  N2  NON d   1     -47.439  16.130  -5.812  0.00  0.00    -0.253 NA
ENDBRANCH  21  22
ENDBRANCH  20  21
ENDBRANCH  19  20
ENDBRANCH  18  19
ENDBRANCH  17  18
ENDBRANCH  16  17
ENDBRANCH  15  16
ENDBRANCH  14  15
ENDBRANCH   1  14
BRANCH   1  28
ATOM     28  C14 NON d   1     -37.282  20.290  -2.504  0.00  0.00     0.282 C 
ATOM     29  O2  NON d   1     -36.415  19.560  -2.039  0.00  0.00    -0.263 OA
BRANCH  28  30
ATOM     30  O3  NON d   1     -37.913  21.291  -1.811  0.00  0.00    -0.315 OA
BRANCH  30  31
ATOM     31  C15 NON d   1     -38.175  21.007  -0.430  0.00  0.00     0.217 C 
BRANCH  31  32
ATOM     32  C16 NON d   1     -39.015  22.084   0.243  0.00  0.00    -0.034 A 
ATOM     33  C17 NON d   1     -38.480  22.775   1.346  0.00  0.00     0.012 A 
ATOM     34  C18 NON d   1     -39.247  23.715   2.045  0.00  0.00     0.037 A 
ATOM     35  C19 NON d   1     -40.565  23.966   1.647  0.00  0.00     0.102 A 
ATOM     36  C20 NON d   1     -41.112  23.293   0.551  0.00  0.00     0.037 A 
ATOM     37  C21 NON d   1     -40.334  22.361  -0.143  0.00  0.00     0.012 A 
BRANCH  35  38
ATOM     38  N3  NON d   1     -41.384  24.933   2.391  0.00  0.00    -0.116 N 
ATOM     39  O4  NON d   1     -41.847  25.900   1.769  0.00  0.00    -0.532 OA
ATOM     40  O5  NON d   1     -41.566  24.726   3.600  0.00  0.00    -0.532 OA
ENDBRANCH  35  38
ENDBRANCH  31  32
ENDBRANCH  30  31
ENDBRANCH  28  30
ENDBRANCH   1  28
TORSDOF 18
ENDMDL
MODEL 5
REMARK VINA RESULT:   -33.117      3.713      7.372
REMARK INTER + INTRA:         -41.121
REMARK INTER:                 -38.487
REMARK INTRA:                  -2.634
REMARK CONF_INDEPENDENT:        5.369
REMARK UNBOUND:                -2.634
REMARK  18 active torsions:
REMARK  status: ('A' for Active; 'I' for Inactive)
REMARK       I    between atoms: C1_2  and  N1_3 
REMARK    1  A    between atoms: C1_2  and  O6_32 
REMARK    2  A    between atoms: C2_4  and  N1_3 
REMARK    3  A    between atoms: C2_4  and  C3_5 
REMARK    4  A    between atoms: C2_4  and  C14_19 
REMARK    5  A    between atoms: C3_5  and  C4_6 
REMARK    6  A    between atoms: C4_6  and  C5_7 
REMARK    7  A    between atoms: C5_7  and  C6_8 
REMARK    8  A    between atoms: C6_8  and  C7_9 
REMARK    9  A    between atoms: C7_9  and  C8_10 
REMARK   10  A    between atoms: C8_10  and  S1_11 
REMARK   11  A    between atoms: S1_11  and  S2_12 
REMARK   12  A    between atoms: S2_12  and  C9_13 
REMARK   13  A    between atoms: C14_19  and  O3_21 
REMARK   14  A    between atoms: O3_21  and  C15_22 
REMARK   15  A    between atoms: C15_22  and  C16_23 
REMARK   16  A    between atoms: C19_26  and  N3_27 
REMARK   17  A    between atoms: O6_32  and  C22_33 
REMARK   18  A    between atoms: C22_33  and  C23_34 
ROOT
ATOM      1  C2  NON d   1     -39.319  20.171  -6.396  0.00  0.00     0.186 C 
ENDROOT
BRANCH   1   2
ATOM      2  N1  NON d   1     -37.947  20.555  -6.060  0.00  0.00    -0.323 N 
ATOM      3  C1  NON d   1     -37.378  21.689  -6.554  0.00  0.00     0.361 C 
ATOM      4  O1  NON d   1     -37.576  22.149  -7.666  0.00  0.00    -0.238 OA
ATOM      5  H1  NON d   1     -37.657  20.369  -5.111  0.00  0.00     0.165 HD
BRANCH   3   6
ATOM      6  O6  NON d   1     -36.606  22.268  -5.600  0.00  0.00    -0.299 OA
BRANCH   6   7
ATOM      7  C22 NON d   1     -37.258  23.394  -5.000  0.00  0.00     0.219 C 
BRANCH   7   8
ATOM      8  C23 NON d   1     -38.536  23.040  -4.278  0.00  0.00    -0.034 A 
ATOM      9  C24 NON d   1     -39.739  23.596  -4.747  0.00  0.00     0.009 A 
ATOM     10  C25 NON d   1     -40.943  23.355  -4.088  0.00  0.00     0.001 A 
ATOM     11  C26 NON d   1     -40.958  22.553  -2.951  0.00  0.00     0.000 A 
ATOM     12  C27 NON d   1     -39.774  21.990  -2.478  0.00  0.00     0.001 A 
ATOM     13  C28 NON d   1     -38.567  22.232  -3.136  0.00  0.00     0.009 A 
ENDBRANCH   7   8
ENDBRANCH   6   7
ENDBRANCH   3   6
ENDBRANCH   1   2
BRANCH   1  14
ATOM     14  C3  NON d   1     -39.785  18.954  -5.564  0.00  0.00     0.035 C 
BRANCH  14  15
ATOM     15  C4  NON d   1     -39.098  18.735  -4.200  0.00  0.00     0.002 C 
BRANCH  15  16
ATOM     16  C5  NON d   1     -40.090  18.618  -3.037  0.00  0.00     0.000 C 
BRANCH  16  17
ATOM     17  C6  NON d   1     -41.568  18.566  -3.451  0.00  0.00     0.001 C 
BRANCH  17  18
ATOM     18  C7  NON d   1     -42.217  17.178  -3.394  0.00  0.00     0.011 C 
BRANCH  18  19
ATOM     19  C8  NON d   1     -43.387  17.011  -4.360  0.00  0.00     0.086 C 
BRANCH  19  20
ATOM     20  S1  NON d   1     -44.003  18.621  -4.964  0.00  0.00    -0.091 SA
BRANCH  20  21
ATOM     21  S2  NON d   1     -45.582  18.105  -6.179  0.00  0.00    -0.038 SA
BRANCH  21  22
ATOM     22  C9  NON d   1     -46.571  16.940  -5.248  0.00  0.00     0.103 A 
ATOM     23  C10 NON d   1     -46.384  16.878  -3.869  0.00  0.00     0.040 A 
ATOM     24  C11 NON d   1     -47.107  15.945  -3.129  0.00  0.00     0.004 A 
ATOM     25  C12 NON d   1     -47.995  15.101  -3.783  0.00  0.00     0.019 A 
ATOM     26  C13 NON d   1     -48.128  15.235  -5.154  0.00  0.00     0.118 A 
ATOM     27  N2  NON d   1     -47.440  16.130  -5.895  0.00  0.00    -0.253 NA
ENDBRANCH  21  22
ENDBRANCH  20  21
ENDBRANCH  19  20
ENDBRANCH  18  19
ENDBRANCH  17  18
ENDBRANCH  16  17
ENDBRANCH  15  16
ENDBRANCH  14  15
ENDBRANCH   1  14
BRANCH   1  28
ATOM     28  C14 NON d   1     -39.739  20.024  -7.885  0.00  0.00     0.282 C 
ATOM     29  O2  NON d   1     -40.246  19.027  -8.382  0.00  0.00    -0.263 OA
BRANCH  28  30
ATOM     30  O3  NON d   1     -39.590  21.227  -8.527  0.00  0.00    -0.315 OA
BRANCH  30  31
ATOM     31  C15 NON d   1     -39.271  21.139  -9.923  0.00  0.00     0.217 C 
BRANCH  31  32
ATOM     32  C16 NON d   1     -39.467  22.459 -10.655  0.00  0.00    -0.034 A 
ATOM     33  C17 NON d   1     -39.724  23.622  -9.906  0.00  0.00     0.012 A 
ATOM     34  C18 NON d   1     -39.990  24.841 -10.541  0.00  0.00     0.037 A 
ATOM     35  C19 NON d   1     -40.009  24.904 -11.939  0.00  0.00     0.102 A 
ATOM     36  C20 NON d   1     -39.752  23.760 -12.701  0.00  0.00     0.037 A 
ATOM     37  C21 NON d   1     -39.481  22.549 -12.054  0.00  0.00     0.012 A 
BRANCH  35  38
ATOM     38  N3  NON d   1     -40.313  26.174 -12.612  0.00  0.00    -0.116 N 
ATOM     39  O4  NON d   1     -41.018  26.135 -13.632  0.00  0.00    -0.532 OA
ATOM     40  O5  NON d   1     -39.848  27.213 -12.122  0.00  0.00    -0.532 OA
ENDBRANCH  35  38
ENDBRANCH  31  32
ENDBRANCH  30  31
ENDBRANCH  28  30
ENDBRANCH   1  28
TORSDOF 18
ENDMDL
MODEL 6
REMARK VINA RESULT:   -33.077      2.667      7.854
REMARK INTER + INTRA:         -40.814
REMARK INTER:                 -38.446
REMARK INTRA:                  -2.368
REMARK CONF_INDEPENDENT:        5.369
REMARK UNBOUND:                -2.368
REMARK  18 active torsions:
REMARK  status: ('A' for Active; 'I' for Inactive)
REMARK       I    between atoms: C1_2  and  N1_3 
REMARK    1  A    between atoms: C1_2  and  O6_32 
REMARK    2  A    between atoms: C2_4  and  N1_3 
REMARK    3  A    between atoms: C2_4  and  C3_5 
REMARK    4  A    between atoms: C2_4  and  C14_19 
REMARK    5  A    between atoms: C3_5  and  C4_6 
REMARK    6  A    between atoms: C4_6  and  C5_7 
REMARK    7  A    between atoms: C5_7  and  C6_8 
REMARK    8  A    between atoms: C6_8  and  C7_9 
REMARK    9  A    between atoms: C7_9  and  C8_10 
REMARK   10  A    between atoms: C8_10  and  S1_11 
REMARK   11  A    between atoms: S1_11  and  S2_12 
REMARK   12  A    between atoms: S2_12  and  C9_13 
REMARK   13  A    between atoms: C14_19  and  O3_21 
REMARK   14  A    between atoms: O3_21  and  C15_22 
REMARK   15  A    between atoms: C15_22  and  C16_23 
REMARK   16  A    between atoms: C19_26  and  N3_27 
REMARK   17  A    between atoms: O6_32  and  C22_33 
REMARK   18  A    between atoms: C22_33  and  C23_34 
ROOT
ATOM      1  C2  NON d   1     -39.748  20.885  -5.686  0.00  0.00     0.186 C 
ENDROOT
BRANCH   1   2
ATOM      2  N1  NON d   1     -40.014  22.314  -5.512  0.00  0.00    -0.323 N 
ATOM      3  C1  NON d   1     -40.532  22.813  -4.356  0.00  0.00     0.361 C 
ATOM      4  O1  NON d   1     -41.349  22.247  -3.650  0.00  0.00    -0.238 OA
ATOM      5  H1  NON d   1     -39.339  22.942  -5.926  0.00  0.00     0.165 HD
BRANCH   3   6
ATOM      6  O6  NON d   1     -39.954  24.007  -4.072  0.00  0.00    -0.299 OA
BRANCH   6   7
ATOM      7  C22 NON d   1     -39.015  23.900  -2.995  0.00  0.00     0.219 C 
BRANCH   7   8
ATOM      8  C23 NON d   1     -39.634  23.451  -1.694  0.00  0.00    -0.034 A 
ATOM      9  C24 NON d   1     -39.258  22.199  -1.176  0.00  0.00     0.009 A 
ATOM     10  C25 NON d   1     -39.839  21.704  -0.010  0.00  0.00     0.001 A 
ATOM     11  C26 NON d   1     -40.803  22.456   0.653  0.00  0.00     0.000 A 
ATOM     12  C27 NON d   1     -41.182  23.702   0.155  0.00  0.00     0.001 A 
ATOM     13  C28 NON d   1     -40.602  24.199  -1.014  0.00  0.00     0.009 A 
ENDBRANCH   7   8
ENDBRANCH   6   7
ENDBRANCH   3   6
ENDBRANCH   1   2
BRANCH   1  14
ATOM     14  C3  NON d   1     -38.368  20.493  -5.107  0.00  0.00     0.035 C 
BRANCH  14  15
ATOM     15  C4  NON d   1     -38.296  19.179  -4.303  0.00  0.00     0.002 C 
BRANCH  15  16
ATOM     16  C5  NON d   1     -39.606  18.382  -4.334  0.00  0.00     0.000 C 
BRANCH  16  17
ATOM     17  C6  NON d   1     -40.261  18.161  -2.963  0.00  0.00     0.001 C 
BRANCH  17  18
ATOM     18  C7  NON d   1     -41.754  17.815  -2.997  0.00  0.00     0.011 C 
BRANCH  18  19
ATOM     19  C8  NON d   1     -42.400  18.029  -4.364  0.00  0.00     0.086 C 
BRANCH  19  20
ATOM     20  S1  NON d   1     -43.556  16.681  -4.787  0.00  0.00    -0.091 SA
BRANCH  20  21
ATOM     21  S2  NON d   1     -45.217  17.675  -5.488  0.00  0.00    -0.038 SA
BRANCH  21  22
ATOM     22  C9  NON d   1     -46.636  16.745  -4.918  0.00  0.00     0.103 A 
ATOM     23  C10 NON d   1     -46.850  16.654  -3.544  0.00  0.00     0.040 A 
ATOM     24  C11 NON d   1     -47.919  15.896  -3.074  0.00  0.00     0.004 A 
ATOM     25  C12 NON d   1     -48.745  15.251  -3.985  0.00  0.00     0.019 A 
ATOM     26  C13 NON d   1     -48.469  15.401  -5.332  0.00  0.00     0.118 A 
ATOM     27  N2  NON d   1     -47.440  16.130  -5.814  0.00  0.00    -0.253 NA
ENDBRANCH  21  22
ENDBRANCH  20  21
ENDBRANCH  19  20
ENDBRANCH  18  19
ENDBRANCH  17  18
ENDBRANCH  16  17
ENDBRANCH  15  16
ENDBRANCH  14  15
ENDBRANCH   1  14
BRANCH   1  28
ATOM     28  C14 NON d   1     -39.986  20.216  -7.067  0.00  0.00     0.282 C 
ATOM     29  O2  NON d   1     -40.975  19.564  -7.377  0.00  0.00    -0.263 OA
BRANCH  28  30
ATOM     30  O3  NON d   1     -38.990  20.583  -7.936  0.00  0.00    -0.315 OA
BRANCH  30  31
ATOM     31  C15 NON d   1     -38.732  21.992  -8.010  0.00  0.00     0.217 C 
BRANCH  31  32
ATOM     32  C16 NON d   1     -39.064  22.581  -9.373  0.00  0.00    -0.034 A 
ATOM     33  C17 NON d   1     -39.907  23.706  -9.443  0.00  0.00     0.012 A 
ATOM     34  C18 NON d   1     -40.304  24.230 -10.679  0.00  0.00     0.037 A 
ATOM     35  C19 NON d   1     -39.864  23.624 -11.862  0.00  0.00     0.102 A 
ATOM     36  C20 NON d   1     -39.023  22.509 -11.813  0.00  0.00     0.037 A 
ATOM     37  C21 NON d   1     -38.627  21.998 -10.572  0.00  0.00     0.012 A 
BRANCH  35  38
ATOM     38  N3  NON d   1     -40.297  24.153 -13.162  0.00  0.00    -0.116 N 
ATOM     39  O4  NON d   1     -39.927  25.295 -13.475  0.00  0.00    -0.532 OA
ATOM     40  O5  NON d   1     -41.007  23.427 -13.874  0.00  0.00    -0.532 OA
ENDBRANCH  35  38
ENDBRANCH  31  32
ENDBRANCH  30  31
ENDBRANCH  28  30
ENDBRANCH   1  28
TORSDOF 18
ENDMDL
MODEL 7
REMARK VINA RESULT:   -33.060      1.574      2.263
REMARK INTER + INTRA:         -40.848
REMARK INTER:                 -38.430
REMARK INTRA:                  -2.418
REMARK CONF_INDEPENDENT:        5.369
REMARK UNBOUND:                -2.418
REMARK  18 active torsions:
REMARK  status: ('A' for Active; 'I' for Inactive)
REMARK       I    between atoms: C1_2  and  N1_3 
REMARK    1  A    between atoms: C1_2  and  O6_32 
REMARK    2  A    between atoms: C2_4  and  N1_3 
REMARK    3  A    between atoms: C2_4  and  C3_5 
REMARK    4  A    between atoms: C2_4  and  C14_19 
REMARK    5  A    between atoms: C3_5  and  C4_6 
REMARK    6  A    between atoms: C4_6  and  C5_7 
REMARK    7  A    between atoms: C5_7  and  C6_8 
REMARK    8  A    between atoms: C6_8  and  C7_9 
REMARK    9  A    between atoms: C7_9  and  C8_10 
REMARK   10  A    between atoms: C8_10  and  S1_11 
REMARK   11  A    between atoms: S1_11  and  S2_12 
REMARK   12  A    between atoms: S2_12  and  C9_13 
REMARK   13  A    between atoms: C14_19  and  O3_21 
REMARK   14  A    between atoms: O3_21  and  C15_22 
REMARK   15  A    between atoms: C15_22  and  C16_23 
REMARK   16  A    between atoms: C19_26  and  N3_27 
REMARK   17  A    between atoms: O6_32  and  C22_33 
REMARK   18  A    between atoms: C22_33  and  C23_34 
ROOT
ATOM      1  C2  NON d   1     -39.334  22.176  -3.217  0.00  0.00     0.186 C 
ENDROOT
BRANCH   1   2
ATOM      2  N1  NON d   1     -38.096  22.848  -3.613  0.00  0.00    -0.323 N 
ATOM      3  C1  NON d   1     -37.001  22.152  -4.026  0.00  0.00     0.361 C 
ATOM      4  O1  NON d   1     -36.652  21.067  -3.592  0.00  0.00    -0.238 OA
ATOM      5  H1  NON d   1     -38.207  23.714  -4.121  0.00  0.00     0.165 HD
BRANCH   3   6
ATOM      6  O6  NON d   1     -36.392  22.815  -5.042  0.00  0.00    -0.299 OA
BRANCH   6   7
ATOM      7  C22 NON d   1     -37.344  23.401  -5.939  0.00  0.00     0.219 C 
BRANCH   7   8
ATOM      8  C23 NON d   1     -38.089  22.389  -6.776  0.00  0.00    -0.034 A 
ATOM      9  C24 NON d   1     -39.210  22.826  -7.503  0.00  0.00     0.009 A 
ATOM     10  C25 NON d   1     -39.975  21.929  -8.246  0.00  0.00     0.001 A 
ATOM     11  C26 NON d   1     -39.627  20.581  -8.271  0.00  0.00     0.000 A 
ATOM     12  C27 NON d   1     -38.514  20.134  -7.559  0.00  0.00     0.001 A 
ATOM     13  C28 NON d   1     -37.749  21.032  -6.812  0.00  0.00     0.009 A 
ENDBRANCH   7   8
ENDBRANCH   6   7
ENDBRANCH   3   6
ENDBRANCH   1   2
BRANCH   1  14
ATOM     14  C3  NON d   1     -39.286  20.664  -3.542  0.00  0.00     0.035 C 
BRANCH  14  15
ATOM     15  C4  NON d   1     -39.593  19.691  -2.385  0.00  0.00     0.002 C 
BRANCH  15  16
ATOM     16  C5  NON d   1     -40.477  18.513  -2.808  0.00  0.00     0.000 C 
BRANCH  16  17
ATOM     17  C6  NON d   1     -40.285  18.048  -4.259  0.00  0.00     0.001 C 
BRANCH  17  18
ATOM     18  C7  NON d   1     -41.214  18.705  -5.287  0.00  0.00     0.011 C 
BRANCH  18  19
ATOM     19  C8  NON d   1     -42.658  18.834  -4.810  0.00  0.00     0.086 C 
BRANCH  19  20
ATOM     20  S1  NON d   1     -43.597  17.289  -5.066  0.00  0.00    -0.091 SA
BRANCH  20  21
ATOM     21  S2  NON d   1     -45.406  17.943  -5.800  0.00  0.00    -0.038 SA
BRANCH  21  22
ATOM     22  C9  NON d   1     -46.654  16.880  -5.079  0.00  0.00     0.103 A 
ATOM     23  C10 NON d   1     -46.749  16.832  -3.691  0.00  0.00     0.040 A 
ATOM     24  C11 NON d   1     -47.679  15.976  -3.105  0.00  0.00     0.004 A 
ATOM     25  C12 NON d   1     -48.486  15.192  -3.919  0.00  0.00     0.019 A 
ATOM     26  C13 NON d   1     -48.333  15.308  -5.289  0.00  0.00     0.118 A 
ATOM     27  N2  NON d   1     -47.441  16.129  -5.882  0.00  0.00    -0.253 NA
ENDBRANCH  21  22
ENDBRANCH  20  21
ENDBRANCH  19  20
ENDBRANCH  18  19
ENDBRANCH  17  18
ENDBRANCH  16  17
ENDBRANCH  15  16
ENDBRANCH  14  15
ENDBRANCH   1  14
BRANCH   1  28
ATOM     28  C14 NON d   1     -40.707  22.788  -3.610  0.00  0.00     0.282 C 
ATOM     29  O2  NON d   1     -41.441  22.370  -4.497  0.00  0.00    -0.263 OA
BRANCH  28  30
ATOM     30  O3  NON d   1     -41.042  23.779  -2.723  0.00  0.00    -0.315 OA
BRANCH  30  31
ATOM     31  C15 NON d   1     -39.949  24.317  -1.965  0.00  0.00     0.217 C 
BRANCH  31  32
ATOM     32  C16 NON d   1     -40.379  24.843  -0.604  0.00  0.00    -0.034 A 
ATOM     33  C17 NON d   1     -40.574  23.930   0.449  0.00  0.00     0.012 A 
ATOM     34  C18 NON d   1     -41.047  24.361   1.694  0.00  0.00     0.037 A 
ATOM     35  C19 NON d   1     -41.339  25.715   1.894  0.00  0.00     0.102 A 
ATOM     36  C20 NON d   1     -41.147  26.638   0.862  0.00  0.00     0.037 A 
ATOM     37  C21 NON d   1     -40.667  26.196  -0.376  0.00  0.00     0.012 A 
BRANCH  35  38
ATOM     38  N3  NON d   1     -41.860  26.170   3.190  0.00  0.00    -0.116 N 
ATOM     39  O4  NON d   1     -42.351  25.320   3.947  0.00  0.00    -0.532 OA
ATOM     40  O5  NON d   1     -41.778  27.379   3.453  0.00  0.00    -0.532 OA
ENDBRANCH  35  38
ENDBRANCH  31  32
ENDBRANCH  30  31
ENDBRANCH  28  30
ENDBRANCH   1  28
TORSDOF 18
ENDMDL
MODEL 8
REMARK VINA RESULT:   -32.867      1.716      2.567
REMARK INTER + INTRA:         -40.818
REMARK INTER:                 -38.236
REMARK INTRA:                  -2.582
REMARK CONF_INDEPENDENT:        5.369
REMARK UNBOUND:                -2.582
REMARK  18 active torsions:
REMARK  status: ('A' for Active; 'I' for Inactive)
REMARK       I    between atoms: C1_2  and  N1_3 
REMARK    1  A    between atoms: C1_2  and  O6_32 
REMARK    2  A    between atoms: C2_4  and  N1_3 
REMARK    3  A    between atoms: C2_4  and  C3_5 
REMARK    4  A    between atoms: C2_4  and  C14_19 
REMARK    5  A    between atoms: C3_5  and  C4_6 
REMARK    6  A    between atoms: C4_6  and  C5_7 
REMARK    7  A    between atoms: C5_7  and  C6_8 
REMARK    8  A    between atoms: C6_8  and  C7_9 
REMARK    9  A    between atoms: C7_9  and  C8_10 
REMARK   10  A    between atoms: C8_10  and  S1_11 
REMARK   11  A    between atoms: S1_11  and  S2_12 
REMARK   12  A    between atoms: S2_12  and  C9_13 
REMARK   13  A    between atoms: C14_19  and  O3_21 
REMARK   14  A    between atoms: O3_21  and  C15_22 
REMARK   15  A    between atoms: C15_22  and  C16_23 
REMARK   16  A    between atoms: C19_26  and  N3_27 
REMARK   17  A    between atoms: O6_32  and  C22_33 
REMARK   18  A    between atoms: C22_33  and  C23_34 
ROOT
ATOM      1  C2  NON d   1     -38.792  19.389  -5.345  0.00  0.00     0.186 C 
ENDROOT
BRANCH   1   2
ATOM      2  N1  NON d   1     -37.651  18.840  -6.079  0.00  0.00    -0.323 N 
ATOM      3  C1  NON d   1     -37.698  18.624  -7.422  0.00  0.00     0.361 C 
ATOM      4  O1  NON d   1     -38.683  18.261  -8.042  0.00  0.00    -0.238 OA
ATOM      5  H1  NON d   1     -36.740  19.155  -5.778  0.00  0.00     0.165 HD
BRANCH   3   6
ATOM      6  O6  NON d   1     -36.501  18.938  -7.980  0.00  0.00    -0.299 OA
BRANCH   6   7
ATOM      7  C22 NON d   1     -36.347  20.354  -8.144  0.00  0.00     0.219 C 
BRANCH   7   8
ATOM      8  C23 NON d   1     -37.120  20.915  -9.312  0.00  0.00    -0.034 A 
ATOM      9  C24 NON d   1     -38.469  21.258  -9.113  0.00  0.00     0.009 A 
ATOM     10  C25 NON d   1     -39.252  21.725 -10.167  0.00  0.00     0.001 A 
ATOM     11  C26 NON d   1     -38.694  21.856 -11.435  0.00  0.00     0.000 A 
ATOM     12  C27 NON d   1     -37.356  21.526 -11.647  0.00  0.00     0.001 A 
ATOM     13  C28 NON d   1     -36.571  21.055 -10.592  0.00  0.00     0.009 A 
ENDBRANCH   7   8
ENDBRANCH   6   7
ENDBRANCH   3   6
ENDBRANCH   1   2
BRANCH   1  14
ATOM     14  C3  NON d   1     -38.962  20.903  -5.614  0.00  0.00     0.035 C 
BRANCH  14  15
ATOM     15  C4  NON d   1     -40.264  21.346  -6.312  0.00  0.00     0.002 C 
BRANCH  15  16
ATOM     16  C5  NON d   1     -40.893  20.242  -7.171  0.00  0.00     0.000 C 
BRANCH  16  17
ATOM     17  C6  NON d   1     -42.101  19.538  -6.537  0.00  0.00     0.001 C 
BRANCH  17  18
ATOM     18  C7  NON d   1     -41.992  19.279  -5.030  0.00  0.00     0.011 C 
BRANCH  18  19
ATOM     19  C8  NON d   1     -42.232  17.822  -4.642  0.00  0.00     0.086 C 
BRANCH  19  20
ATOM     20  S1  NON d   1     -43.858  17.591  -3.843  0.00  0.00    -0.091 SA
BRANCH  20  21
ATOM     21  S2  NON d   1     -45.175  17.603  -5.426  0.00  0.00    -0.038 SA
BRANCH  21  22
ATOM     22  C9  NON d   1     -46.611  16.678  -4.891  0.00  0.00     0.103 A 
ATOM     23  C10 NON d   1     -46.811  16.515  -3.522  0.00  0.00     0.040 A 
ATOM     24  C11 NON d   1     -47.895  15.758  -3.082  0.00  0.00     0.004 A 
ATOM     25  C12 NON d   1     -48.746  15.186  -4.016  0.00  0.00     0.019 A 
ATOM     26  C13 NON d   1     -48.481  15.405  -5.356  0.00  0.00     0.118 A 
ATOM     27  N2  NON d   1     -47.440  16.133  -5.810  0.00  0.00    -0.253 NA
ENDBRANCH  21  22
ENDBRANCH  20  21
ENDBRANCH  19  20
ENDBRANCH  18  19
ENDBRANCH  17  18
ENDBRANCH  16  17
ENDBRANCH  15  16
ENDBRANCH  14  15
ENDBRANCH   1  14
BRANCH   1  28
ATOM     28  C14 NON d   1     -38.969  19.067  -3.835  0.00  0.00     0.282 C 
ATOM     29  O2  NON d   1     -38.743  17.983  -3.312  0.00  0.00    -0.263 OA
BRANCH  28  30
ATOM     30  O3  NON d   1     -39.278  20.215  -3.151  0.00  0.00    -0.315 OA
BRANCH  30  31
ATOM     31  C15 NON d   1     -38.754  20.291  -1.818  0.00  0.00     0.217 C 
BRANCH  31  32
ATOM     32  C16 NON d   1     -39.388  21.407  -1.000  0.00  0.00    -0.034 A 
ATOM     33  C17 NON d   1     -39.058  21.526   0.363  0.00  0.00     0.012 A 
ATOM     34  C18 NON d   1     -39.677  22.486   1.171  0.00  0.00     0.037 A 
ATOM     35  C19 NON d   1     -40.644  23.335   0.620  0.00  0.00     0.102 A 
ATOM     36  C20 NON d   1     -40.982  23.236  -0.732  0.00  0.00     0.037 A 
ATOM     37  C21 NON d   1     -40.351  22.277  -1.532  0.00  0.00     0.012 A 
BRANCH  35  38
ATOM     38  N3  NON d   1     -41.317  24.328   1.469  0.00  0.00    -0.116 N 
ATOM     39  O4  NON d   1     -41.341  24.124   2.691  0.00  0.00    -0.532 OA
ATOM     40  O5  NON d   1     -41.822  25.315   0.913  0.00  0.00    -0.532 OA
ENDBRANCH  35  38
ENDBRANCH  31  32
ENDBRANCH  30  31
ENDBRANCH  28  30
ENDBRANCH   1  28
TORSDOF 18
ENDMDL
MODEL 9
REMARK VINA RESULT:   -32.576      3.269      5.877
REMARK INTER + INTRA:         -41.051
REMARK INTER:                 -37.945
REMARK INTRA:                  -3.106
REMARK CONF_INDEPENDENT:        5.369
REMARK UNBOUND:                -3.106
REMARK  18 active torsions:
REMARK  status: ('A' for Active; 'I' for Inactive)
REMARK       I    between atoms: C1_2  and  N1_3 
REMARK    1  A    between atoms: C1_2  and  O6_32 
REMARK    2  A    between atoms: C2_4  and  N1_3 
REMARK    3  A    between atoms: C2_4  and  C3_5 
REMARK    4  A    between atoms: C2_4  and  C14_19 
REMARK    5  A    between atoms: C3_5  and  C4_6 
REMARK    6  A    between atoms: C4_6  and  C5_7 
REMARK    7  A    between atoms: C5_7  and  C6_8 
REMARK    8  A    between atoms: C6_8  and  C7_9 
REMARK    9  A    between atoms: C7_9  and  C8_10 
REMARK   10  A    between atoms: C8_10  and  S1_11 
REMARK   11  A    between atoms: S1_11  and  S2_12 
REMARK   12  A    between atoms: S2_12  and  C9_13 
REMARK   13  A    between atoms: C14_19  and  O3_21 
REMARK   14  A    between atoms: O3_21  and  C15_22 
REMARK   15  A    between atoms: C15_22  and  C16_23 
REMARK   16  A    between atoms: C19_26  and  N3_27 
REMARK   17  A    between atoms: O6_32  and  C22_33 
REMARK   18  A    between atoms: C22_33  and  C23_34 
ROOT
ATOM      1  C2  NON d   1     -39.461  19.912  -6.046  0.00  0.00     0.186 C 
ENDROOT
BRANCH   1   2
ATOM      2  N1  NON d   1     -38.196  19.996  -5.314  0.00  0.00    -0.323 N 
ATOM      3  C1  NON d   1     -37.130  20.689  -5.800  0.00  0.00     0.361 C 
ATOM      4  O1  NON d   1     -36.825  20.776  -6.978  0.00  0.00    -0.238 OA
ATOM      5  H1  NON d   1     -38.272  20.074  -4.310  0.00  0.00     0.165 HD
BRANCH   3   6
ATOM      6  O6  NON d   1     -36.494  21.324  -4.784  0.00  0.00    -0.299 OA
BRANCH   6   7
ATOM      7  C22 NON d   1     -37.184  22.517  -4.388  0.00  0.00     0.219 C 
BRANCH   7   8
ATOM      8  C23 NON d   1     -38.087  22.325  -3.193  0.00  0.00    -0.034 A 
ATOM      9  C24 NON d   1     -39.188  23.187  -3.049  0.00  0.00     0.009 A 
ATOM     10  C25 NON d   1     -40.024  23.099  -1.936  0.00  0.00     0.001 A 
ATOM     11  C26 NON d   1     -39.767  22.147  -0.955  0.00  0.00     0.000 A 
ATOM     12  C27 NON d   1     -38.682  21.282  -1.087  0.00  0.00     0.001 A 
ATOM     13  C28 NON d   1     -37.843  21.370  -2.200  0.00  0.00     0.009 A 
ENDBRANCH   7   8
ENDBRANCH   6   7
ENDBRANCH   3   6
ENDBRANCH   1   2
BRANCH   1  14
ATOM     14  C3  NON d   1     -40.634  19.543  -5.108  0.00  0.00     0.035 C 
BRANCH  14  15
ATOM     15  C4  NON d   1     -40.532  20.015  -3.643  0.00  0.00     0.002 C 
BRANCH  15  16
ATOM     16  C5  NON d   1     -40.797  18.894  -2.630  0.00  0.00     0.000 C 
BRANCH  16  17
ATOM     17  C6  NON d   1     -42.171  18.222  -2.754  0.00  0.00     0.001 C 
BRANCH  17  18
ATOM     18  C7  NON d   1     -42.192  16.912  -3.550  0.00  0.00     0.011 C 
BRANCH  18  19
ATOM     19  C8  NON d   1     -43.251  16.882  -4.649  0.00  0.00     0.086 C 
BRANCH  19  20
ATOM     20  S1  NON d   1     -44.036  18.515  -4.879  0.00  0.00    -0.091 SA
BRANCH  20  21
ATOM     21  S2  NON d   1     -45.583  18.124  -6.179  0.00  0.00    -0.038 SA
BRANCH  21  22
ATOM     22  C9  NON d   1     -46.647  16.946  -5.353  0.00  0.00     0.103 A 
ATOM     23  C10 NON d   1     -46.597  16.881  -3.963  0.00  0.00     0.040 A 
ATOM     24  C11 NON d   1     -47.379  15.939  -3.300  0.00  0.00     0.004 A 
ATOM     25  C12 NON d   1     -48.189  15.089  -4.040  0.00  0.00     0.019 A 
ATOM     26  C13 NON d   1     -48.188  15.226  -5.417  0.00  0.00     0.118 A 
ATOM     27  N2  NON d   1     -47.440  16.130  -6.084  0.00  0.00    -0.253 NA
ENDBRANCH  21  22
ENDBRANCH  20  21
ENDBRANCH  19  20
ENDBRANCH  18  19
ENDBRANCH  17  18
ENDBRANCH  16  17
ENDBRANCH  15  16
ENDBRANCH  14  15
ENDBRANCH   1  14
BRANCH   1  28
ATOM     28  C14 NON d   1     -39.534  19.110  -7.375  0.00  0.00     0.282 C 
ATOM     29  O2  NON d   1     -40.041  18.003  -7.507  0.00  0.00    -0.263 OA
BRANCH  28  30
ATOM     30  O3  NON d   1     -39.076  19.887  -8.409  0.00  0.00    -0.315 OA
BRANCH  30  31
ATOM     31  C15 NON d   1     -40.062  20.728  -9.025  0.00  0.00     0.217 C 
BRANCH  31  32
ATOM     32  C16 NON d   1     -39.960  22.179  -8.576  0.00  0.00    -0.034 A 
ATOM     33  C17 NON d   1     -39.717  22.457  -7.218  0.00  0.00     0.012 A 
ATOM     34  C18 NON d   1     -39.696  23.775  -6.748  0.00  0.00     0.037 A 
ATOM     35  C19 NON d   1     -39.928  24.831  -7.637  0.00  0.00     0.102 A 
ATOM     36  C20 NON d   1     -40.166  24.575  -8.991  0.00  0.00     0.037 A 
ATOM     37  C21 NON d   1     -40.177  23.254  -9.450  0.00  0.00     0.012 A 
BRANCH  35  38
ATOM     38  N3  NON d   1     -39.932  26.216  -7.146  0.00  0.00    -0.116 N 
ATOM     39  O4  NON d   1     -40.857  26.956  -7.511  0.00  0.00    -0.532 OA
ATOM     40  O5  NON d   1     -39.011  26.565  -6.393  0.00  0.00    -0.532 OA
ENDBRANCH  35  38
ENDBRANCH  31  32
ENDBRANCH  30  31
ENDBRANCH  28  30
ENDBRANCH   1  28
TORSDOF 18
ENDMDL
