MODEL 1
REMARK VINA RESULT:   -31.271      0.000      0.000
REMARK INTER + INTRA:         -36.544
REMARK INTER:                 -34.851
REMARK INTRA:                  -1.693
REMARK CONF_INDEPENDENT:        3.580
REMARK UNBOUND:                -1.693
REMARK  12 active torsions:
REMARK  status: ('A' for Active; 'I' for Inactive)
REMARK    1  A    between atoms: N1_1  and  C1_2 
REMARK    2  A    between atoms: C4_5  and  N2_6 
REMARK    3  A    between atoms: C6_8  and  C7_9 
REMARK    4  A    between atoms: C11_13  and  N3_14 
REMARK       I    between atoms: N3_14  and  C12_15 
REMARK    5  A    between atoms: C12_15  and  C13_17 
REMARK    6  A    between atoms: C13_17  and  C14_18 
REMARK    7  A    between atoms: C14_18  and  C15_19 
REMARK    8  A    between atoms: C15_19  and  C16_20 
REMARK    9  A    between atoms: C16_20  and  C17_21 
REMARK   10  A    between atoms: C17_21  and  C18_22 
REMARK   11  A    between atoms: C18_22  and  C19_23 
REMARK       I    between atoms: C19_23  and  N4_25 
REMARK   12  A    between atoms: N4_25  and  O3_26 
ROOT
ATOM      1  C7  NON d   1     -43.891  17.528  -4.360  0.00  0.00    -0.003 A 
ATOM      2  C8  NON d   1     -43.058  16.868  -3.447  0.00  0.00     0.014 A 
ATOM      3  C9  NON d   1     -41.732  17.270  -3.281  0.00  0.00     0.003 A 
ATOM      4  C10 NON d   1     -41.224  18.335  -4.027  0.00  0.00     0.029 A 
ATOM      5  C11 NON d   1     -42.035  19.014  -4.945  0.00  0.00     0.035 A 
ATOM      6  C20 NON d   1     -43.363  18.604  -5.102  0.00  0.00     0.043 A 
ENDROOT
BRANCH   5   7
ATOM      7  N3  NON d   1     -41.443  20.080  -5.655  0.00  0.00    -0.327 N 
ATOM      8  C12 NON d   1     -40.760  20.014  -6.859  0.00  0.00     0.222 C 
ATOM      9  O1  NON d   1     -40.557  19.012  -7.528  0.00  0.00    -0.273 OA
ATOM     10  H9  NON d   1     -41.556  21.002  -5.251  0.00  0.00     0.169 HD
BRANCH   8  11
ATOM     11  C13 NON d   1     -40.276  21.390  -7.305  0.00  0.00     0.103 C 
BRANCH  11  12
ATOM     12  C14 NON d   1     -39.146  21.341  -8.340  0.00  0.00     0.009 C 
BRANCH  12  13
ATOM     13  C15 NON d   1     -39.554  21.950  -9.687  0.00  0.00     0.000 C 
BRANCH  13  14
ATOM     14  C16 NON d   1     -40.322  23.274  -9.564  0.00  0.00     0.000 C 
BRANCH  14  15
ATOM     15  C17 NON d   1     -39.916  24.373 -10.554  0.00  0.00     0.009 C 
BRANCH  15  16
ATOM     16  C18 NON d   1     -39.644  23.875 -11.971  0.00  0.00     0.105 C 
BRANCH  16  17
ATOM     17  C19 NON d   1     -40.736  24.254 -12.961  0.00  0.00     0.240 C 
ATOM     18  O2  NON d   1     -40.979  23.625 -13.987  0.00  0.00    -0.271 OA
ATOM     19  N4  NON d   1     -41.382  25.412 -12.570  0.00  0.00    -0.237 N 
ATOM     20  H22 NON d   1     -41.260  25.825 -11.653  0.00  0.00     0.197 HD
BRANCH  19  21
ATOM     21  O3  NON d   1     -42.528  25.798 -13.290  0.00  0.00    -0.287 OA
ATOM     22  H23 NON d   1     -42.495  25.204 -14.061  0.00  0.00     0.244 HD
ENDBRANCH  19  21
ENDBRANCH  16  17
ENDBRANCH  15  16
ENDBRANCH  14  15
ENDBRANCH  13  14
ENDBRANCH  12  13
ENDBRANCH  11  12
ENDBRANCH   8  11
ENDBRANCH   5   7
BRANCH   1  23
ATOM     23  C6  NON d   1     -45.275  17.126  -4.569  0.00  0.00     0.102 A 
ATOM     24  C5  NON d   1     -46.249  16.928  -3.610  0.00  0.00     0.148 A 
ATOM     25  N2  NON d   1     -47.362  16.527  -4.318  0.00  0.00    -0.247 N 
ATOM     26  N6  NON d   1     -47.072  16.508  -5.641  0.00  0.00     0.010 NA
ATOM     27  N5  NON d   1     -45.808  16.869  -5.798  0.00  0.00    -0.158 NA
BRANCH  25  28
ATOM     28  C4  NON d   1     -48.649  16.172  -3.837  0.00  0.00     0.054 A 
ATOM     29  C3  NON d   1     -49.183  14.900  -4.065  0.00  0.00     0.033 A 
ATOM     30  C2  NON d   1     -50.457  14.578  -3.583  0.00  0.00     0.025 A 
ATOM     31  C1  NON d   1     -51.195  15.496  -2.831  0.00  0.00     0.005 A 
ATOM     32  C22 NON d   1     -50.680  16.781  -2.654  0.00  0.00     0.025 A 
ATOM     33  C21 NON d   1     -49.408  17.115  -3.128  0.00  0.00     0.033 A 
BRANCH  31  34
ATOM     34  N1  NON d   1     -52.516  15.209  -2.471  0.00  0.00    -0.303 NA
ATOM     35  H1  NON d   1     -53.017  15.998  -2.074  0.00  0.00     0.124 HD
ATOM     36  H2  NON d   1     -53.049  14.744  -3.199  0.00  0.00     0.124 HD
ENDBRANCH  31  34
ENDBRANCH  25  28
ENDBRANCH   1  23
TORSDOF 12
ENDMDL
MODEL 2
REMARK VINA RESULT:   -31.065      2.931      3.458
REMARK INTER + INTRA:         -37.807
REMARK INTER:                 -34.645
REMARK INTRA:                  -3.162
REMARK CONF_INDEPENDENT:        3.580
REMARK UNBOUND:                -3.162
REMARK  12 active torsions:
REMARK  status: ('A' for Active; 'I' for Inactive)
REMARK    1  A    between atoms: N1_1  and  C1_2 
REMARK    2  A    between atoms: C4_5  and  N2_6 
REMARK    3  A    between atoms: C6_8  and  C7_9 
REMARK    4  A    between atoms: C11_13  and  N3_14 
REMARK       I    between atoms: N3_14  and  C12_15 
REMARK    5  A    between atoms: C12_15  and  C13_17 
REMARK    6  A    between atoms: C13_17  and  C14_18 
REMARK    7  A    between atoms: C14_18  and  C15_19 
REMARK    8  A    between atoms: C15_19  and  C16_20 
REMARK    9  A    between atoms: C16_20  and  C17_21 
REMARK   10  A    between atoms: C17_21  and  C18_22 
REMARK   11  A    between atoms: C18_22  and  C19_23 
REMARK       I    between atoms: C19_23  and  N4_25 
REMARK   12  A    between atoms: N4_25  and  O3_26 
ROOT
ATOM      1  C7  NON d   1     -43.879  17.464  -4.343  0.00  0.00    -0.003 A 
ATOM      2  C8  NON d   1     -43.097  16.879  -3.339  0.00  0.00     0.014 A 
ATOM      3  C9  NON d   1     -41.762  17.251  -3.174  0.00  0.00     0.003 A 
ATOM      4  C10 NON d   1     -41.194  18.211  -4.014  0.00  0.00     0.029 A 
ATOM      5  C11 NON d   1     -41.953  18.814  -5.026  0.00  0.00     0.035 A 
ATOM      6  C20 NON d   1     -43.291  18.434  -5.179  0.00  0.00     0.043 A 
ENDROOT
BRANCH   5   7
ATOM      7  N3  NON d   1     -41.303  19.775  -5.827  0.00  0.00    -0.327 N 
ATOM      8  C12 NON d   1     -40.911  21.053  -5.459  0.00  0.00     0.222 C 
ATOM      9  O1  NON d   1     -41.053  21.571  -4.362  0.00  0.00    -0.273 OA
ATOM     10  H9  NON d   1     -41.073  19.487  -6.770  0.00  0.00     0.169 HD
BRANCH   8  11
ATOM     11  C13 NON d   1     -40.230  21.783  -6.612  0.00  0.00     0.103 C 
BRANCH  11  12
ATOM     12  C14 NON d   1     -38.699  21.768  -6.533  0.00  0.00     0.009 C 
BRANCH  12  13
ATOM     13  C15 NON d   1     -38.169  20.716  -5.552  0.00  0.00     0.000 C 
BRANCH  13  14
ATOM     14  C16 NON d   1     -37.916  19.342  -6.189  0.00  0.00     0.000 C 
BRANCH  14  15
ATOM     15  C17 NON d   1     -37.089  19.351  -7.482  0.00  0.00     0.009 C 
BRANCH  15  16
ATOM     16  C18 NON d   1     -37.895  19.070  -8.746  0.00  0.00     0.105 C 
BRANCH  16  17
ATOM     17  C19 NON d   1     -39.395  18.990  -8.498  0.00  0.00     0.240 C 
ATOM     18  O2  NON d   1     -39.939  18.077  -7.882  0.00  0.00    -0.271 OA
ATOM     19  N4  NON d   1     -40.054  20.052  -9.087  0.00  0.00    -0.237 N 
ATOM     20  H22 NON d   1     -39.568  20.859  -9.460  0.00  0.00     0.197 HD
BRANCH  19  21
ATOM     21  O3  NON d   1     -41.423  20.213  -8.803  0.00  0.00    -0.287 OA
ATOM     22  H23 NON d   1     -41.696  20.865  -9.473  0.00  0.00     0.244 HD
ENDBRANCH  19  21
ENDBRANCH  16  17
ENDBRANCH  15  16
ENDBRANCH  14  15
ENDBRANCH  13  14
ENDBRANCH  12  13
ENDBRANCH  11  12
ENDBRANCH   8  11
ENDBRANCH   5   7
BRANCH   1  23
ATOM     23  C6  NON d   1     -45.271  17.089  -4.551  0.00  0.00     0.102 A 
ATOM     24  C5  NON d   1     -46.248  16.912  -3.592  0.00  0.00     0.148 A 
ATOM     25  N2  NON d   1     -47.370  16.532  -4.299  0.00  0.00    -0.247 N 
ATOM     26  N6  NON d   1     -47.080  16.505  -5.622  0.00  0.00     0.010 NA
ATOM     27  N5  NON d   1     -45.809  16.841  -5.780  0.00  0.00    -0.158 NA
BRANCH  25  28
ATOM     28  C4  NON d   1     -48.663  16.204  -3.818  0.00  0.00     0.054 A 
ATOM     29  C3  NON d   1     -49.200  14.925  -3.997  0.00  0.00     0.033 A 
ATOM     30  C2  NON d   1     -50.482  14.631  -3.515  0.00  0.00     0.025 A 
ATOM     31  C1  NON d   1     -51.223  15.582  -2.812  0.00  0.00     0.005 A 
ATOM     32  C22 NON d   1     -50.705  16.872  -2.685  0.00  0.00     0.025 A 
ATOM     33  C21 NON d   1     -49.425  17.180  -3.158  0.00  0.00     0.033 A 
BRANCH  31  34
ATOM     34  N1  NON d   1     -52.550  15.317  -2.454  0.00  0.00    -0.303 NA
ATOM     35  H1  NON d   1     -53.196  16.068  -2.677  0.00  0.00     0.124 HD
ATOM     36  H2  NON d   1     -52.888  14.413  -2.770  0.00  0.00     0.124 HD
ENDBRANCH  31  34
ENDBRANCH  25  28
ENDBRANCH   1  23
TORSDOF 12
ENDMDL
MODEL 3
REMARK VINA RESULT:   -30.840      6.388     12.172
REMARK INTER + INTRA:         -36.561
REMARK INTER:                 -34.419
REMARK INTRA:                  -2.141
REMARK CONF_INDEPENDENT:        3.580
REMARK UNBOUND:                -2.141
REMARK  12 active torsions:
REMARK  status: ('A' for Active; 'I' for Inactive)
REMARK    1  A    between atoms: N1_1  and  C1_2 
REMARK    2  A    between atoms: C4_5  and  N2_6 
REMARK    3  A    between atoms: C6_8  and  C7_9 
REMARK    4  A    between atoms: C11_13  and  N3_14 
REMARK       I    between atoms: N3_14  and  C12_15 
REMARK    5  A    between atoms: C12_15  and  C13_17 
REMARK    6  A    between atoms: C13_17  and  C14_18 
REMARK    7  A    between atoms: C14_18  and  C15_19 
REMARK    8  A    between atoms: C15_19  and  C16_20 
REMARK    9  A    between atoms: C16_20  and  C17_21 
REMARK   10  A    between atoms: C17_21  and  C18_22 
REMARK   11  A    between atoms: C18_22  and  C19_23 
REMARK       I    between atoms: C19_23  and  N4_25 
REMARK   12  A    between atoms: N4_25  and  O3_26 
ROOT
ATOM      1  C7  NON d   1     -48.597  15.967  -4.072  0.00  0.00    -0.003 A 
ATOM      2  C8  NON d   1     -48.992  14.655  -4.366  0.00  0.00     0.014 A 
ATOM      3  C9  NON d   1     -50.216  14.165  -3.908  0.00  0.00     0.003 A 
ATOM      4  C10 NON d   1     -51.057  14.982  -3.151  0.00  0.00     0.029 A 
ATOM      5  C11 NON d   1     -50.688  16.298  -2.843  0.00  0.00     0.035 A 
ATOM      6  C20 NON d   1     -49.460  16.779  -3.309  0.00  0.00     0.043 A 
ENDROOT
BRANCH   5   7
ATOM      7  N3  NON d   1     -51.598  17.055  -2.076  0.00  0.00    -0.327 N 
ATOM      8  C12 NON d   1     -51.371  17.649  -0.844  0.00  0.00     0.222 C 
ATOM      9  O1  NON d   1     -50.330  17.628  -0.205  0.00  0.00    -0.273 OA
ATOM     10  H9  NON d   1     -52.512  17.203  -2.486  0.00  0.00     0.169 HD
BRANCH   8  11
ATOM     11  C13 NON d   1     -52.607  18.388  -0.342  0.00  0.00     0.103 C 
BRANCH  11  12
ATOM     12  C14 NON d   1     -52.290  19.540   0.618  0.00  0.00     0.009 C 
BRANCH  12  13
ATOM     13  C15 NON d   1     -53.242  20.729   0.448  0.00  0.00     0.000 C 
BRANCH  13  14
ATOM     14  C16 NON d   1     -54.689  20.328   0.127  0.00  0.00     0.000 C 
BRANCH  14  15
ATOM     15  C17 NON d   1     -54.944  19.850  -1.308  0.00  0.00     0.009 C 
BRANCH  15  16
ATOM     16  C18 NON d   1     -55.650  18.501  -1.406  0.00  0.00     0.105 C 
BRANCH  16  17
ATOM     17  C19 NON d   1     -55.079  17.601  -2.494  0.00  0.00     0.240 C 
ATOM     18  O2  NON d   1     -55.216  17.811  -3.697  0.00  0.00    -0.271 OA
ATOM     19  N4  NON d   1     -54.429  16.511  -1.948  0.00  0.00    -0.237 N 
ATOM     20  H22 NON d   1     -54.209  16.442  -0.961  0.00  0.00     0.197 HD
BRANCH  19  21
ATOM     21  O3  NON d   1     -53.702  15.678  -2.818  0.00  0.00    -0.287 OA
ATOM     22  H23 NON d   1     -54.361  15.476  -3.507  0.00  0.00     0.244 HD
ENDBRANCH  19  21
ENDBRANCH  16  17
ENDBRANCH  15  16
ENDBRANCH  14  15
ENDBRANCH  13  14
ENDBRANCH  12  13
ENDBRANCH  11  12
ENDBRANCH   8  11
ENDBRANCH   5   7
BRANCH   1  23
ATOM     23  C6  NON d   1     -47.320  16.505  -4.521  0.00  0.00     0.102 A 
ATOM     24  C5  NON d   1     -46.189  16.735  -3.764  0.00  0.00     0.148 A 
ATOM     25  N2  NON d   1     -45.278  17.277  -4.648  0.00  0.00    -0.247 N 
ATOM     26  N6  NON d   1     -45.835  17.345  -5.881  0.00  0.00     0.010 NA
ATOM     27  N5  NON d   1     -47.072  16.880  -5.810  0.00  0.00    -0.158 NA
BRANCH  25  28
ATOM     28  C4  NON d   1     -43.952  17.719  -4.408  0.00  0.00     0.054 A 
ATOM     29  C3  NON d   1     -43.427  18.829  -5.076  0.00  0.00     0.033 A 
ATOM     30  C2  NON d   1     -42.112  19.241  -4.824  0.00  0.00     0.025 A 
ATOM     31  C1  NON d   1     -41.323  18.588  -3.875  0.00  0.00     0.005 A 
ATOM     32  C22 NON d   1     -41.834  17.448  -3.252  0.00  0.00     0.025 A 
ATOM     33  C21 NON d   1     -43.146  17.027  -3.492  0.00  0.00     0.033 A 
BRANCH  31  34
ATOM     34  N1  NON d   1     -39.973  18.926  -3.729  0.00  0.00    -0.303 NA
ATOM     35  H1  NON d   1     -39.783  19.538  -2.942  0.00  0.00     0.124 HD
ATOM     36  H2  NON d   1     -39.345  18.128  -3.756  0.00  0.00     0.124 HD
ENDBRANCH  31  34
ENDBRANCH  25  28
ENDBRANCH   1  23
TORSDOF 12
ENDMDL
MODEL 4
REMARK VINA RESULT:   -30.299      3.277      4.958
REMARK INTER + INTRA:         -36.203
REMARK INTER:                 -33.878
REMARK INTRA:                  -2.325
REMARK CONF_INDEPENDENT:        3.580
REMARK UNBOUND:                -2.325
REMARK  12 active torsions:
REMARK  status: ('A' for Active; 'I' for Inactive)
REMARK    1  A    between atoms: N1_1  and  C1_2 
REMARK    2  A    between atoms: C4_5  and  N2_6 
REMARK    3  A    between atoms: C6_8  and  C7_9 
REMARK    4  A    between atoms: C11_13  and  N3_14 
REMARK       I    between atoms: N3_14  and  C12_15 
REMARK    5  A    between atoms: C12_15  and  C13_17 
REMARK    6  A    between atoms: C13_17  and  C14_18 
REMARK    7  A    between atoms: C14_18  and  C15_19 
REMARK    8  A    between atoms: C15_19  and  C16_20 
REMARK    9  A    between atoms: C16_20  and  C17_21 
REMARK   10  A    between atoms: C17_21  and  C18_22 
REMARK   11  A    between atoms: C18_22  and  C19_23 
REMARK       I    between atoms: C19_23  and  N4_25 
REMARK   12  A    between atoms: N4_25  and  O3_26 
ROOT
ATOM      1  C7  NON d   1     -43.909  17.530  -4.355  0.00  0.00    -0.003 A 
ATOM      2  C8  NON d   1     -43.063  16.839  -3.476  0.00  0.00     0.014 A 
ATOM      3  C9  NON d   1     -41.738  17.243  -3.306  0.00  0.00     0.003 A 
ATOM      4  C10 NON d   1     -41.245  18.341  -4.012  0.00  0.00     0.029 A 
ATOM      5  C11 NON d   1     -42.068  19.051  -4.895  0.00  0.00     0.035 A 
ATOM      6  C20 NON d   1     -43.395  18.638  -5.057  0.00  0.00     0.043 A 
ENDROOT
BRANCH   5   7
ATOM      7  N3  NON d   1     -41.490  20.149  -5.567  0.00  0.00    -0.327 N 
ATOM      8  C12 NON d   1     -40.754  20.126  -6.741  0.00  0.00     0.222 C 
ATOM      9  O1  NON d   1     -40.481  19.141  -7.411  0.00  0.00    -0.273 OA
ATOM     10  H9  NON d   1     -41.657  21.060  -5.157  0.00  0.00     0.169 HD
BRANCH   8  11
ATOM     11  C13 NON d   1     -40.307  21.525  -7.150  0.00  0.00     0.103 C 
BRANCH  11  12
ATOM     12  C14 NON d   1     -38.879  21.870  -6.713  0.00  0.00     0.009 C 
BRANCH  12  13
ATOM     13  C15 NON d   1     -38.830  23.041  -5.725  0.00  0.00     0.000 C 
BRANCH  13  14
ATOM     14  C16 NON d   1     -38.165  22.697  -4.384  0.00  0.00     0.000 C 
BRANCH  14  15
ATOM     15  C17 NON d   1     -37.455  21.338  -4.323  0.00  0.00     0.009 C 
BRANCH  15  16
ATOM     16  C18 NON d   1     -38.344  20.183  -3.871  0.00  0.00     0.105 C 
BRANCH  16  17
ATOM     17  C19 NON d   1     -39.491  20.623  -2.973  0.00  0.00     0.240 C 
ATOM     18  O2  NON d   1     -40.415  21.343  -3.345  0.00  0.00    -0.271 OA
ATOM     19  N4  NON d   1     -39.330  20.140  -1.688  0.00  0.00    -0.237 N 
ATOM     20  H22 NON d   1     -38.642  19.436  -1.449  0.00  0.00     0.197 HD
BRANCH  19  21
ATOM     21  O3  NON d   1     -40.394  20.317  -0.783  0.00  0.00    -0.287 OA
ATOM     22  H23 NON d   1     -39.967  20.132   0.073  0.00  0.00     0.244 HD
ENDBRANCH  19  21
ENDBRANCH  16  17
ENDBRANCH  15  16
ENDBRANCH  14  15
ENDBRANCH  13  14
ENDBRANCH  12  13
ENDBRANCH  11  12
ENDBRANCH   8  11
ENDBRANCH   5   7
BRANCH   1  23
ATOM     23  C6  NON d   1     -45.292  17.127  -4.567  0.00  0.00     0.102 A 
ATOM     24  C5  NON d   1     -46.269  16.931  -3.611  0.00  0.00     0.148 A 
ATOM     25  N2  NON d   1     -47.380  16.527  -4.322  0.00  0.00    -0.247 N 
ATOM     26  N6  NON d   1     -47.085  16.505  -5.644  0.00  0.00     0.010 NA
ATOM     27  N5  NON d   1     -45.821  16.866  -5.798  0.00  0.00    -0.158 NA
BRANCH  25  28
ATOM     28  C4  NON d   1     -48.669  16.174  -3.845  0.00  0.00     0.054 A 
ATOM     29  C3  NON d   1     -49.189  14.891  -4.045  0.00  0.00     0.033 A 
ATOM     30  C2  NON d   1     -50.465  14.571  -3.567  0.00  0.00     0.025 A 
ATOM     31  C1  NON d   1     -51.219  15.500  -2.847  0.00  0.00     0.005 A 
ATOM     32  C22 NON d   1     -50.717  16.794  -2.698  0.00  0.00     0.025 A 
ATOM     33  C21 NON d   1     -49.442  17.127  -3.168  0.00  0.00     0.033 A 
BRANCH  31  34
ATOM     34  N1  NON d   1     -52.541  15.212  -2.492  0.00  0.00    -0.303 NA
ATOM     35  H1  NON d   1     -53.123  16.033  -2.360  0.00  0.00     0.124 HD
ATOM     36  H2  NON d   1     -52.985  14.520  -3.089  0.00  0.00     0.124 HD
ENDBRANCH  31  34
ENDBRANCH  25  28
ENDBRANCH   1  23
TORSDOF 12
ENDMDL
MODEL 5
REMARK VINA RESULT:   -30.038      2.144      2.733
REMARK INTER + INTRA:         -36.123
REMARK INTER:                 -33.618
REMARK INTRA:                  -2.505
REMARK CONF_INDEPENDENT:        3.580
REMARK UNBOUND:                -2.505
REMARK  12 active torsions:
REMARK  status: ('A' for Active; 'I' for Inactive)
REMARK    1  A    between atoms: N1_1  and  C1_2 
REMARK    2  A    between atoms: C4_5  and  N2_6 
REMARK    3  A    between atoms: C6_8  and  C7_9 
REMARK    4  A    between atoms: C11_13  and  N3_14 
REMARK       I    between atoms: N3_14  and  C12_15 
REMARK    5  A    between atoms: C12_15  and  C13_17 
REMARK    6  A    between atoms: C13_17  and  C14_18 
REMARK    7  A    between atoms: C14_18  and  C15_19 
REMARK    8  A    between atoms: C15_19  and  C16_20 
REMARK    9  A    between atoms: C16_20  and  C17_21 
REMARK   10  A    between atoms: C17_21  and  C18_22 
REMARK   11  A    between atoms: C18_22  and  C19_23 
REMARK       I    between atoms: C19_23  and  N4_25 
REMARK   12  A    between atoms: N4_25  and  O3_26 
ROOT
ATOM      1  C7  NON d   1     -43.843  17.380  -4.322  0.00  0.00    -0.003 A 
ATOM      2  C8  NON d   1     -43.327  17.631  -3.044  0.00  0.00     0.014 A 
ATOM      3  C9  NON d   1     -41.979  17.951  -2.876  0.00  0.00     0.003 A 
ATOM      4  C10 NON d   1     -41.133  18.023  -3.984  0.00  0.00     0.029 A 
ATOM      5  C11 NON d   1     -41.623  17.778  -5.274  0.00  0.00     0.035 A 
ATOM      6  C20 NON d   1     -42.976  17.461  -5.430  0.00  0.00     0.043 A 
ENDROOT
BRANCH   5   7
ATOM      7  N3  NON d   1     -40.701  17.874  -6.338  0.00  0.00    -0.327 N 
ATOM      8  C12 NON d   1     -39.907  18.961  -6.669  0.00  0.00     0.222 C 
ATOM      9  O1  NON d   1     -39.860  20.034  -6.087  0.00  0.00    -0.273 OA
ATOM     10  H9  NON d   1     -40.588  17.043  -6.905  0.00  0.00     0.169 HD
BRANCH   8  11
ATOM     11  C13 NON d   1     -39.036  18.667  -7.886  0.00  0.00     0.103 C 
BRANCH  11  12
ATOM     12  C14 NON d   1     -37.577  18.350  -7.539  0.00  0.00     0.009 C 
BRANCH  12  13
ATOM     13  C15 NON d   1     -36.590  19.325  -8.189  0.00  0.00     0.000 C 
BRANCH  13  14
ATOM     14  C16 NON d   1     -36.990  19.764  -9.605  0.00  0.00     0.000 C 
BRANCH  14  15
ATOM     15  C17 NON d   1     -36.609  21.199  -9.990  0.00  0.00     0.009 C 
BRANCH  15  16
ATOM     16  C18 NON d   1     -37.393  22.278  -9.249  0.00  0.00     0.105 C 
BRANCH  16  17
ATOM     17  C19 NON d   1     -38.893  22.211  -9.501  0.00  0.00     0.240 C 
ATOM     18  O2  NON d   1     -39.465  22.829 -10.395  0.00  0.00    -0.271 OA
ATOM     19  N4  NON d   1     -39.517  21.401  -8.572  0.00  0.00    -0.237 N 
ATOM     20  H22 NON d   1     -39.006  20.795  -7.941  0.00  0.00     0.197 HD
BRANCH  19  21
ATOM     21  O3  NON d   1     -40.878  21.101  -8.773  0.00  0.00    -0.287 OA
ATOM     22  H23 NON d   1     -41.098  21.655  -9.544  0.00  0.00     0.244 HD
ENDBRANCH  19  21
ENDBRANCH  16  17
ENDBRANCH  15  16
ENDBRANCH  14  15
ENDBRANCH  13  14
ENDBRANCH  12  13
ENDBRANCH  11  12
ENDBRANCH   8  11
ENDBRANCH   5   7
BRANCH   1  23
ATOM     23  C6  NON d   1     -45.241  17.030  -4.532  0.00  0.00     0.102 A 
ATOM     24  C5  NON d   1     -46.214  16.833  -3.572  0.00  0.00     0.148 A 
ATOM     25  N2  NON d   1     -47.345  16.491  -4.283  0.00  0.00    -0.247 N 
ATOM     26  N6  NON d   1     -47.065  16.505  -5.608  0.00  0.00     0.010 NA
ATOM     27  N5  NON d   1     -45.792  16.830  -5.765  0.00  0.00    -0.158 NA
BRANCH  25  28
ATOM     28  C4  NON d   1     -48.639  16.163  -3.803  0.00  0.00     0.054 A 
ATOM     29  C3  NON d   1     -49.223  14.923  -4.083  0.00  0.00     0.033 A 
ATOM     30  C2  NON d   1     -50.504  14.628  -3.600  0.00  0.00     0.025 A 
ATOM     31  C1  NON d   1     -51.198  15.537  -2.798  0.00  0.00     0.005 A 
ATOM     32  C22 NON d   1     -50.633  16.792  -2.569  0.00  0.00     0.025 A 
ATOM     33  C21 NON d   1     -49.354  17.099  -3.042  0.00  0.00     0.033 A 
BRANCH  31  34
ATOM     34  N1  NON d   1     -52.525  15.283  -2.435  0.00  0.00    -0.303 NA
ATOM     35  H1  NON d   1     -53.210  15.793  -2.985  0.00  0.00     0.124 HD
ATOM     36  H2  NON d   1     -52.751  14.296  -2.362  0.00  0.00     0.124 HD
ENDBRANCH  31  34
ENDBRANCH  25  28
ENDBRANCH   1  23
TORSDOF 12
ENDMDL
MODEL 6
REMARK VINA RESULT:   -29.937      3.155      3.871
REMARK INTER + INTRA:         -36.192
REMARK INTER:                 -33.517
REMARK INTRA:                  -2.675
REMARK CONF_INDEPENDENT:        3.580
REMARK UNBOUND:                -2.675
REMARK  12 active torsions:
REMARK  status: ('A' for Active; 'I' for Inactive)
REMARK    1  A    between atoms: N1_1  and  C1_2 
REMARK    2  A    between atoms: C4_5  and  N2_6 
REMARK    3  A    between atoms: C6_8  and  C7_9 
REMARK    4  A    between atoms: C11_13  and  N3_14 
REMARK       I    between atoms: N3_14  and  C12_15 
REMARK    5  A    between atoms: C12_15  and  C13_17 
REMARK    6  A    between atoms: C13_17  and  C14_18 
REMARK    7  A    between atoms: C14_18  and  C15_19 
REMARK    8  A    between atoms: C15_19  and  C16_20 
REMARK    9  A    between atoms: C16_20  and  C17_21 
REMARK   10  A    between atoms: C17_21  and  C18_22 
REMARK   11  A    between atoms: C18_22  and  C19_23 
REMARK       I    between atoms: C19_23  and  N4_25 
REMARK   12  A    between atoms: N4_25  and  O3_26 
ROOT
ATOM      1  C7  NON d   1     -43.931  17.537  -4.371  0.00  0.00    -0.003 A 
ATOM      2  C8  NON d   1     -43.162  17.034  -3.313  0.00  0.00     0.014 A 
ATOM      3  C9  NON d   1     -41.833  17.430  -3.153  0.00  0.00     0.003 A 
ATOM      4  C10 NON d   1     -41.259  18.333  -4.050  0.00  0.00     0.029 A 
ATOM      5  C11 NON d   1     -42.005  18.854  -5.115  0.00  0.00     0.035 A 
ATOM      6  C20 NON d   1     -43.337  18.451  -5.264  0.00  0.00     0.043 A 
ENDROOT
BRANCH   5   7
ATOM      7  N3  NON d   1     -41.349  19.762  -5.973  0.00  0.00    -0.327 N 
ATOM      8  C12 NON d   1     -40.523  20.814  -5.612  0.00  0.00     0.222 C 
ATOM      9  O1  NON d   1     -40.206  21.137  -4.476  0.00  0.00    -0.273 OA
ATOM     10  H9  NON d   1     -41.477  19.609  -6.966  0.00  0.00     0.169 HD
BRANCH   8  11
ATOM     11  C13 NON d   1     -40.000  21.561  -6.835  0.00  0.00     0.103 C 
BRANCH  11  12
ATOM     12  C14 NON d   1     -40.688  21.159  -8.144  0.00  0.00     0.009 C 
BRANCH  12  13
ATOM     13  C15 NON d   1     -39.689  20.777  -9.242  0.00  0.00     0.000 C 
BRANCH  13  14
ATOM     14  C16 NON d   1     -38.220  20.986  -8.847  0.00  0.00     0.000 C 
BRANCH  14  15
ATOM     15  C17 NON d   1     -37.248  19.884  -9.290  0.00  0.00     0.009 C 
BRANCH  15  16
ATOM     16  C18 NON d   1     -37.560  18.504  -8.719  0.00  0.00     0.105 C 
BRANCH  16  17
ATOM     17  C19 NON d   1     -38.559  18.540  -7.571  0.00  0.00     0.240 C 
ATOM     18  O2  NON d   1     -39.774  18.428  -7.716  0.00  0.00    -0.271 OA
ATOM     19  N4  NON d   1     -37.921  18.751  -6.364  0.00  0.00    -0.237 N 
ATOM     20  H22 NON d   1     -36.915  18.694  -6.258  0.00  0.00     0.197 HD
BRANCH  19  21
ATOM     21  O3  NON d   1     -38.688  18.639  -5.189  0.00  0.00    -0.287 OA
ATOM     22  H23 NON d   1     -38.721  19.562  -4.878  0.00  0.00     0.244 HD
ENDBRANCH  19  21
ENDBRANCH  16  17
ENDBRANCH  15  16
ENDBRANCH  14  15
ENDBRANCH  13  14
ENDBRANCH  12  13
ENDBRANCH  11  12
ENDBRANCH   8  11
ENDBRANCH   5   7
BRANCH   1  23
ATOM     23  C6  NON d   1     -45.315  17.134  -4.575  0.00  0.00     0.102 A 
ATOM     24  C5  NON d   1     -46.289  16.948  -3.614  0.00  0.00     0.148 A 
ATOM     25  N2  NON d   1     -47.403  16.540  -4.318  0.00  0.00    -0.247 N 
ATOM     26  N6  NON d   1     -47.113  16.506  -5.640  0.00  0.00     0.010 NA
ATOM     27  N5  NON d   1     -45.848  16.864  -5.802  0.00  0.00    -0.158 NA
BRANCH  25  28
ATOM     28  C4  NON d   1     -48.690  16.192  -3.834  0.00  0.00     0.054 A 
ATOM     29  C3  NON d   1     -49.275  14.961  -4.148  0.00  0.00     0.033 A 
ATOM     30  C2  NON d   1     -50.549  14.645  -3.660  0.00  0.00     0.025 A 
ATOM     31  C1  NON d   1     -51.235  15.524  -2.819  0.00  0.00     0.005 A 
ATOM     32  C22 NON d   1     -50.670  16.772  -2.554  0.00  0.00     0.025 A 
ATOM     33  C21 NON d   1     -49.398  17.099  -3.032  0.00  0.00     0.033 A 
BRANCH  31  34
ATOM     34  N1  NON d   1     -52.557  15.254  -2.448  0.00  0.00    -0.303 NA
ATOM     35  H1  NON d   1     -53.239  15.880  -2.865  0.00  0.00     0.124 HD
ATOM     36  H2  NON d   1     -52.821  14.279  -2.547  0.00  0.00     0.124 HD
ENDBRANCH  31  34
ENDBRANCH  25  28
ENDBRANCH   1  23
TORSDOF 12
ENDMDL
MODEL 7
REMARK VINA RESULT:   -29.445      3.257      4.576
REMARK INTER + INTRA:         -36.103
REMARK INTER:                 -33.024
REMARK INTRA:                  -3.079
REMARK CONF_INDEPENDENT:        3.580
REMARK UNBOUND:                -3.079
REMARK  12 active torsions:
REMARK  status: ('A' for Active; 'I' for Inactive)
REMARK    1  A    between atoms: N1_1  and  C1_2 
REMARK    2  A    between atoms: C4_5  and  N2_6 
REMARK    3  A    between atoms: C6_8  and  C7_9 
REMARK    4  A    between atoms: C11_13  and  N3_14 
REMARK       I    between atoms: N3_14  and  C12_15 
REMARK    5  A    between atoms: C12_15  and  C13_17 
REMARK    6  A    between atoms: C13_17  and  C14_18 
REMARK    7  A    between atoms: C14_18  and  C15_19 
REMARK    8  A    between atoms: C15_19  and  C16_20 
REMARK    9  A    between atoms: C16_20  and  C17_21 
REMARK   10  A    between atoms: C17_21  and  C18_22 
REMARK   11  A    between atoms: C18_22  and  C19_23 
REMARK       I    between atoms: C19_23  and  N4_25 
REMARK   12  A    between atoms: N4_25  and  O3_26 
ROOT
ATOM      1  C7  NON d   1     -43.920  17.549  -4.389  0.00  0.00    -0.003 A 
ATOM      2  C8  NON d   1     -43.107  16.952  -3.416  0.00  0.00     0.014 A 
ATOM      3  C9  NON d   1     -41.779  17.352  -3.261  0.00  0.00     0.003 A 
ATOM      4  C10 NON d   1     -41.249  18.352  -4.077  0.00  0.00     0.029 A 
ATOM      5  C11 NON d   1     -42.039  18.967  -5.058  0.00  0.00     0.035 A 
ATOM      6  C20 NON d   1     -43.370  18.559  -5.203  0.00  0.00     0.043 A 
ENDROOT
BRANCH   5   7
ATOM      7  N3  NON d   1     -41.425  19.970  -5.838  0.00  0.00    -0.327 N 
ATOM      8  C12 NON d   1     -40.709  19.802  -7.012  0.00  0.00     0.222 C 
ATOM      9  O1  NON d   1     -40.490  18.748  -7.589  0.00  0.00    -0.273 OA
ATOM     10  H9  NON d   1     -41.547  20.922  -5.515  0.00  0.00     0.169 HD
BRANCH   8  11
ATOM     11  C13 NON d   1     -40.209  21.136  -7.559  0.00  0.00     0.103 C 
BRANCH  11  12
ATOM     12  C14 NON d   1     -38.888  21.601  -6.937  0.00  0.00     0.009 C 
BRANCH  12  13
ATOM     13  C15 NON d   1     -39.085  22.694  -5.880  0.00  0.00     0.000 C 
BRANCH  13  14
ATOM     14  C16 NON d   1     -38.298  22.455  -4.584  0.00  0.00     0.000 C 
BRANCH  14  15
ATOM     15  C17 NON d   1     -38.511  21.089  -3.918  0.00  0.00     0.009 C 
BRANCH  15  16
ATOM     16  C18 NON d   1     -39.710  21.029  -2.976  0.00  0.00     0.105 C 
BRANCH  16  17
ATOM     17  C19 NON d   1     -40.611  22.252  -3.070  0.00  0.00     0.240 C 
ATOM     18  O2  NON d   1     -41.390  22.459  -3.997  0.00  0.00    -0.271 OA
ATOM     19  N4  NON d   1     -40.404  23.105  -2.003  0.00  0.00    -0.237 N 
ATOM     20  H22 NON d   1     -39.865  22.841  -1.186  0.00  0.00     0.197 HD
BRANCH  19  21
ATOM     21  O3  NON d   1     -41.281  24.195  -1.856  0.00  0.00    -0.287 OA
ATOM     22  H23 NON d   1     -41.956  24.008  -2.534  0.00  0.00     0.244 HD
ENDBRANCH  19  21
ENDBRANCH  16  17
ENDBRANCH  15  16
ENDBRANCH  14  15
ENDBRANCH  13  14
ENDBRANCH  12  13
ENDBRANCH  11  12
ENDBRANCH   8  11
ENDBRANCH   5   7
BRANCH   1  23
ATOM     23  C6  NON d   1     -45.305  17.146  -4.588  0.00  0.00     0.102 A 
ATOM     24  C5  NON d   1     -46.280  16.977  -3.624  0.00  0.00     0.148 A 
ATOM     25  N2  NON d   1     -47.395  16.560  -4.322  0.00  0.00    -0.247 N 
ATOM     26  N6  NON d   1     -47.104  16.505  -5.643  0.00  0.00     0.010 NA
ATOM     27  N5  NON d   1     -45.839  16.858  -5.810  0.00  0.00    -0.158 NA
BRANCH  25  28
ATOM     28  C4  NON d   1     -48.683  16.223  -3.832  0.00  0.00     0.054 A 
ATOM     29  C3  NON d   1     -49.200  14.933  -3.984  0.00  0.00     0.033 A 
ATOM     30  C2  NON d   1     -50.477  14.629  -3.495  0.00  0.00     0.025 A 
ATOM     31  C1  NON d   1     -51.232  15.584  -2.811  0.00  0.00     0.005 A 
ATOM     32  C22 NON d   1     -50.733  16.883  -2.711  0.00  0.00     0.025 A 
ATOM     33  C21 NON d   1     -49.458  17.200  -3.192  0.00  0.00     0.033 A 
BRANCH  31  34
ATOM     34  N1  NON d   1     -52.554  15.306  -2.446  0.00  0.00    -0.303 NA
ATOM     35  H1  NON d   1     -53.192  16.085  -2.577  0.00  0.00     0.124 HD
ATOM     36  H2  NON d   1     -52.917  14.444  -2.840  0.00  0.00     0.124 HD
ENDBRANCH  31  34
ENDBRANCH  25  28
ENDBRANCH   1  23
TORSDOF 12
ENDMDL
MODEL 8
REMARK VINA RESULT:   -28.986      4.246      5.929
REMARK INTER + INTRA:         -35.196
REMARK INTER:                 -32.566
REMARK INTRA:                  -2.630
REMARK CONF_INDEPENDENT:        3.580
REMARK UNBOUND:                -2.630
REMARK  12 active torsions:
REMARK  status: ('A' for Active; 'I' for Inactive)
REMARK    1  A    between atoms: N1_1  and  C1_2 
REMARK    2  A    between atoms: C4_5  and  N2_6 
REMARK    3  A    between atoms: C6_8  and  C7_9 
REMARK    4  A    between atoms: C11_13  and  N3_14 
REMARK       I    between atoms: N3_14  and  C12_15 
REMARK    5  A    between atoms: C12_15  and  C13_17 
REMARK    6  A    between atoms: C13_17  and  C14_18 
REMARK    7  A    between atoms: C14_18  and  C15_19 
REMARK    8  A    between atoms: C15_19  and  C16_20 
REMARK    9  A    between atoms: C16_20  and  C17_21 
REMARK   10  A    between atoms: C17_21  and  C18_22 
REMARK   11  A    between atoms: C18_22  and  C19_23 
REMARK       I    between atoms: C19_23  and  N4_25 
REMARK   12  A    between atoms: N4_25  and  O3_26 
ROOT
ATOM      1  C7  NON d   1     -43.927  17.410  -4.248  0.00  0.00    -0.003 A 
ATOM      2  C8  NON d   1     -43.057  16.578  -3.531  0.00  0.00     0.014 A 
ATOM      3  C9  NON d   1     -41.723  16.943  -3.344  0.00  0.00     0.003 A 
ATOM      4  C10 NON d   1     -41.245  18.143  -3.872  0.00  0.00     0.029 A 
ATOM      5  C11 NON d   1     -42.093  18.995  -4.592  0.00  0.00     0.035 A 
ATOM      6  C20 NON d   1     -43.429  18.619  -4.772  0.00  0.00     0.043 A 
ENDROOT
BRANCH   5   7
ATOM      7  N3  NON d   1     -41.529  20.188  -5.090  0.00  0.00    -0.327 N 
ATOM      8  C12 NON d   1     -40.613  21.015  -4.459  0.00  0.00     0.222 C 
ATOM      9  O1  NON d   1     -40.121  20.847  -3.353  0.00  0.00    -0.273 OA
ATOM     10  H9  NON d   1     -41.806  20.455  -6.027  0.00  0.00     0.169 HD
BRANCH   8  11
ATOM     11  C13 NON d   1     -40.242  22.209  -5.331  0.00  0.00     0.103 C 
BRANCH  11  12
ATOM     12  C14 NON d   1     -40.689  23.557  -4.755  0.00  0.00     0.009 C 
BRANCH  12  13
ATOM     13  C15 NON d   1     -39.536  24.335  -4.111  0.00  0.00     0.000 C 
BRANCH  13  14
ATOM     14  C16 NON d   1     -39.934  25.095  -2.836  0.00  0.00     0.000 C 
BRANCH  14  15
ATOM     15  C17 NON d   1     -40.982  24.407  -1.952  0.00  0.00     0.009 C 
BRANCH  15  16
ATOM     16  C18 NON d   1     -40.564  24.241  -0.494  0.00  0.00     0.105 C 
BRANCH  16  17
ATOM     17  C19 NON d   1     -40.680  22.808   0.005  0.00  0.00     0.240 C 
ATOM     18  O2  NON d   1     -41.247  22.489   1.047  0.00  0.00    -0.271 OA
ATOM     19  N4  NON d   1     -40.033  21.932  -0.845  0.00  0.00    -0.237 N 
ATOM     20  H22 NON d   1     -39.701  22.203  -1.764  0.00  0.00     0.197 HD
BRANCH  19  21
ATOM     21  O3  NON d   1     -40.194  20.553  -0.613  0.00  0.00    -0.287 OA
ATOM     22  H23 NON d   1     -39.626  20.162  -1.302  0.00  0.00     0.244 HD
ENDBRANCH  19  21
ENDBRANCH  16  17
ENDBRANCH  15  16
ENDBRANCH  14  15
ENDBRANCH  13  14
ENDBRANCH  12  13
ENDBRANCH  11  12
ENDBRANCH   8  11
ENDBRANCH   5   7
BRANCH   1  23
ATOM     23  C6  NON d   1     -45.321  17.053  -4.474  0.00  0.00     0.102 A 
ATOM     24  C5  NON d   1     -46.308  16.870  -3.526  0.00  0.00     0.148 A 
ATOM     25  N2  NON d   1     -47.428  16.513  -4.249  0.00  0.00    -0.247 N 
ATOM     26  N6  NON d   1     -47.126  16.505  -5.569  0.00  0.00     0.010 NA
ATOM     27  N5  NON d   1     -45.851  16.830  -5.712  0.00  0.00    -0.158 NA
BRANCH  25  28
ATOM     28  C4  NON d   1     -48.728  16.191  -3.784  0.00  0.00     0.054 A 
ATOM     29  C3  NON d   1     -49.247  14.899  -3.920  0.00  0.00     0.033 A 
ATOM     30  C2  NON d   1     -50.536  14.610  -3.456  0.00  0.00     0.025 A 
ATOM     31  C1  NON d   1     -51.305  15.582  -2.813  0.00  0.00     0.005 A 
ATOM     32  C22 NON d   1     -50.803  16.882  -2.729  0.00  0.00     0.025 A 
ATOM     33  C21 NON d   1     -49.516  17.185  -3.185  0.00  0.00     0.033 A 
BRANCH  31  34
ATOM     34  N1  NON d   1     -52.636  15.317  -2.474  0.00  0.00    -0.303 NA
ATOM     35  H1  NON d   1     -53.265  16.100  -2.623  0.00  0.00     0.124 HD
ATOM     36  H2  NON d   1     -52.997  14.455  -2.872  0.00  0.00     0.124 HD
ENDBRANCH  31  34
ENDBRANCH  25  28
ENDBRANCH   1  23
TORSDOF 12
ENDMDL
