MODEL 1
REMARK VINA RESULT:   -35.338      0.000      0.000
REMARK INTER + INTRA:         -37.609
REMARK INTER:                 -36.829
REMARK INTRA:                  -0.780
REMARK CONF_INDEPENDENT:        1.492
REMARK UNBOUND:                -0.780
REMARK  5 active torsions:
REMARK  status: ('A' for Active; 'I' for Inactive)
REMARK    1  A    between atoms: N1_1  and  C1_2 
REMARK    2  A    between atoms: C6_7  and  N2_8 
REMARK       I    between atoms: N2_8  and  C7_9 
REMARK    3  A    between atoms: C7_9  and  C8_11 
REMARK    4  A    between atoms: C11_14  and  C12_15 
REMARK    5  A    between atoms: C12_15  and  N3_16 
ROOT
ATOM      1  C8  NON d   1     -43.882  17.989  -4.695  0.00  0.00     0.032 A 
ATOM      2  C9  NON d   1     -43.452  19.096  -5.437  0.00  0.00     0.017 A 
ATOM      3  C10 NON d   1     -42.095  19.412  -5.530  0.00  0.00     0.010 A 
ATOM      4  C11 NON d   1     -41.119  18.638  -4.878  0.00  0.00    -0.040 A 
ATOM      5  C21 NON d   1     -41.561  17.579  -4.075  0.00  0.00     0.010 A 
ATOM      6  C22 NON d   1     -42.926  17.252  -3.986  0.00  0.00     0.017 A 
ENDROOT
BRANCH   1   7
ATOM      7  C7  NON d   1     -45.344  17.657  -4.743  0.00  0.00     0.256 C 
ATOM      8  N2  NON d   1     -45.892  17.113  -3.597  0.00  0.00    -0.321 N 
ATOM      9  H7  NON d   1     -45.329  17.043  -2.762  0.00  0.00     0.169 HD
ATOM     10  O1  NON d   1     -45.939  17.846  -5.800  0.00  0.00    -0.267 OA
BRANCH   8  11
ATOM     11  C6  NON d   1     -47.220  16.651  -3.405  0.00  0.00     0.056 A 
ATOM     12  C5  NON d   1     -47.883  16.674  -2.176  0.00  0.00     0.031 A 
ATOM     13  C4  NON d   1     -49.171  16.145  -2.055  0.00  0.00     0.002 A 
ATOM     14  C3  NON d   1     -49.800  15.572  -3.156  0.00  0.00     0.002 A 
ATOM     15  C2  NON d   1     -49.156  15.552  -4.392  0.00  0.00     0.025 A 
ATOM     16  C1  NON d   1     -47.885  16.127  -4.537  0.00  0.00     0.033 A 
BRANCH  16  17
ATOM     17  N1  NON d   1     -47.261  16.130  -5.810  0.00  0.00    -0.301 NA
ATOM     18  H1  NON d   1     -47.385  17.014  -6.296  0.00  0.00     0.124 HD
ATOM     19  H2  NON d   1     -46.268  15.928  -5.716  0.00  0.00     0.124 HD
ENDBRANCH  16  17
ENDBRANCH   8  11
ENDBRANCH   1   7
BRANCH   4  20
ATOM     20  C12 NON d   1     -39.670  18.978  -5.164  0.00  0.00     0.165 C 
BRANCH  20  21
ATOM     21  N3  NON d   1     -39.352  19.965  -6.182  0.00  0.00    -0.340 N 
ATOM     22  C13 NON d   1     -39.405  21.381  -5.830  0.00  0.00     0.166 C 
ATOM     23  C14 NON d   1     -39.497  22.064  -7.152  0.00  0.00    -0.025 A 
ATOM     24  C15 NON d   1     -39.518  23.413  -7.458  0.00  0.00     0.010 A 
ATOM     25  C19 NON d   1     -39.621  21.113  -8.159  0.00  0.00     0.040 A 
ATOM     26  C16 NON d   1     -39.636  23.782  -8.804  0.00  0.00     0.001 A 
ATOM     27  C17 NON d   1     -39.734  22.809  -9.816  0.00  0.00     0.001 A 
ATOM     28  C18 NON d   1     -39.736  21.451  -9.495  0.00  0.00     0.017 A 
ATOM     29  C20 NON d   1     -39.653  19.789  -7.531  0.00  0.00     0.255 C 
ATOM     30  O2  NON d   1     -39.943  18.769  -8.129  0.00  0.00    -0.267 OA
ENDBRANCH  20  21
ENDBRANCH   4  20
TORSDOF 5
ENDMDL
MODEL 2
REMARK VINA RESULT:   -35.079      3.135      4.385
REMARK INTER + INTRA:         -37.911
REMARK INTER:                 -36.571
REMARK INTRA:                  -1.341
REMARK CONF_INDEPENDENT:        1.492
REMARK UNBOUND:                -1.341
REMARK  5 active torsions:
REMARK  status: ('A' for Active; 'I' for Inactive)
REMARK    1  A    between atoms: N1_1  and  C1_2 
REMARK    2  A    between atoms: C6_7  and  N2_8 
REMARK       I    between atoms: N2_8  and  C7_9 
REMARK    3  A    between atoms: C7_9  and  C8_11 
REMARK    4  A    between atoms: C11_14  and  C12_15 
REMARK    5  A    between atoms: C12_15  and  N3_16 
ROOT
ATOM      1  C8  NON d   1     -43.836  17.747  -4.952  0.00  0.00     0.032 A 
ATOM      2  C9  NON d   1     -42.657  17.056  -4.646  0.00  0.00     0.017 A 
ATOM      3  C10 NON d   1     -41.445  17.736  -4.507  0.00  0.00     0.010 A 
ATOM      4  C11 NON d   1     -41.366  19.129  -4.676  0.00  0.00    -0.040 A 
ATOM      5  C21 NON d   1     -42.532  19.804  -5.057  0.00  0.00     0.010 A 
ATOM      6  C22 NON d   1     -43.757  19.125  -5.189  0.00  0.00     0.017 A 
ENDROOT
BRANCH   1   7
ATOM      7  C7  NON d   1     -45.110  16.956  -4.970  0.00  0.00     0.256 C 
ATOM      8  N2  NON d   1     -46.043  17.263  -3.998  0.00  0.00    -0.321 N 
ATOM      9  H7  NON d   1     -45.878  18.046  -3.382  0.00  0.00     0.169 HD
ATOM     10  O1  NON d   1     -45.219  16.067  -5.810  0.00  0.00    -0.267 OA
BRANCH   8  11
ATOM     11  C6  NON d   1     -47.285  16.624  -3.755  0.00  0.00     0.056 A 
ATOM     12  C5  NON d   1     -47.854  16.480  -2.487  0.00  0.00     0.031 A 
ATOM     13  C4  NON d   1     -49.055  15.783  -2.323  0.00  0.00     0.002 A 
ATOM     14  C3  NON d   1     -49.688  15.209  -3.421  0.00  0.00     0.002 A 
ATOM     15  C2  NON d   1     -49.139  15.354  -4.694  0.00  0.00     0.025 A 
ATOM     16  C1  NON d   1     -47.963  16.095  -4.878  0.00  0.00     0.033 A 
BRANCH  16  17
ATOM     17  N1  NON d   1     -47.440  16.262  -6.185  0.00  0.00    -0.301 NA
ATOM     18  H1  NON d   1     -47.035  17.185  -6.320  0.00  0.00     0.124 HD
ATOM     19  H2  NON d   1     -46.739  15.549  -6.378  0.00  0.00     0.124 HD
ENDBRANCH  16  17
ENDBRANCH   8  11
ENDBRANCH   1   7
BRANCH   4  20
ATOM     20  C12 NON d   1     -40.036  19.784  -4.358  0.00  0.00     0.165 C 
BRANCH  20  21
ATOM     21  N3  NON d   1     -39.953  20.751  -3.277  0.00  0.00    -0.340 N 
ATOM     22  C13 NON d   1     -39.824  20.266  -1.906  0.00  0.00     0.166 C 
ATOM     23  C14 NON d   1     -40.236  21.437  -1.083  0.00  0.00    -0.025 A 
ATOM     24  C15 NON d   1     -40.262  21.595   0.292  0.00  0.00     0.010 A 
ATOM     25  C19 NON d   1     -40.689  22.456  -1.914  0.00  0.00     0.040 A 
ATOM     26  C16 NON d   1     -40.724  22.812   0.808  0.00  0.00     0.001 A 
ATOM     27  C17 NON d   1     -41.154  23.845  -0.047  0.00  0.00     0.001 A 
ATOM     28  C18 NON d   1     -41.148  23.667  -1.431  0.00  0.00     0.017 A 
ATOM     29  C20 NON d   1     -40.624  21.973  -3.297  0.00  0.00     0.255 C 
ATOM     30  O2  NON d   1     -41.127  22.560  -4.238  0.00  0.00    -0.267 OA
ENDBRANCH  20  21
ENDBRANCH   4  20
TORSDOF 5
ENDMDL
MODEL 3
REMARK VINA RESULT:   -34.698      1.536      2.015
REMARK INTER + INTRA:         -37.258
REMARK INTER:                 -36.189
REMARK INTRA:                  -1.069
REMARK CONF_INDEPENDENT:        1.492
REMARK UNBOUND:                -1.069
REMARK  5 active torsions:
REMARK  status: ('A' for Active; 'I' for Inactive)
REMARK    1  A    between atoms: N1_1  and  C1_2 
REMARK    2  A    between atoms: C6_7  and  N2_8 
REMARK       I    between atoms: N2_8  and  C7_9 
REMARK    3  A    between atoms: C7_9  and  C8_11 
REMARK    4  A    between atoms: C11_14  and  C12_15 
REMARK    5  A    between atoms: C12_15  and  N3_16 
ROOT
ATOM      1  C8  NON d   1     -43.817  17.602  -4.960  0.00  0.00     0.032 A 
ATOM      2  C9  NON d   1     -43.848  18.945  -5.354  0.00  0.00     0.017 A 
ATOM      3  C10 NON d   1     -42.668  19.684  -5.467  0.00  0.00     0.010 A 
ATOM      4  C11 NON d   1     -41.417  19.110  -5.183  0.00  0.00    -0.040 A 
ATOM      5  C21 NON d   1     -41.400  17.790  -4.715  0.00  0.00     0.010 A 
ATOM      6  C22 NON d   1     -42.584  17.039  -4.609  0.00  0.00     0.017 A 
ENDROOT
BRANCH   1   7
ATOM      7  C7  NON d   1     -45.117  16.853  -4.976  0.00  0.00     0.256 C 
ATOM      8  N2  NON d   1     -46.041  17.197  -4.008  0.00  0.00    -0.321 N 
ATOM      9  H7  NON d   1     -45.853  17.980  -3.398  0.00  0.00     0.169 HD
ATOM     10  O1  NON d   1     -45.254  15.962  -5.810  0.00  0.00    -0.267 OA
BRANCH   8  11
ATOM     11  C6  NON d   1     -47.305  16.601  -3.764  0.00  0.00     0.056 A 
ATOM     12  C5  NON d   1     -47.893  16.510  -2.500  0.00  0.00     0.031 A 
ATOM     13  C4  NON d   1     -49.115  15.853  -2.332  0.00  0.00     0.002 A 
ATOM     14  C3  NON d   1     -49.752  15.266  -3.421  0.00  0.00     0.002 A 
ATOM     15  C2  NON d   1     -49.183  15.359  -4.691  0.00  0.00     0.025 A 
ATOM     16  C1  NON d   1     -47.984  16.060  -4.880  0.00  0.00     0.033 A 
BRANCH  16  17
ATOM     17  N1  NON d   1     -47.440  16.175  -6.184  0.00  0.00    -0.301 NA
ATOM     18  H1  NON d   1     -46.989  17.074  -6.333  0.00  0.00     0.124 HD
ATOM     19  H2  NON d   1     -46.773  15.424  -6.355  0.00  0.00     0.124 HD
ENDBRANCH  16  17
ENDBRANCH   8  11
ENDBRANCH   1   7
BRANCH   4  20
ATOM     20  C12 NON d   1     -40.192  19.952  -5.479  0.00  0.00     0.165 C 
BRANCH  20  21
ATOM     21  N3  NON d   1     -39.632  19.958  -6.819  0.00  0.00    -0.340 N 
ATOM     22  C13 NON d   1     -38.531  19.049  -7.126  0.00  0.00     0.166 C 
ATOM     23  C14 NON d   1     -37.928  19.637  -8.355  0.00  0.00    -0.025 A 
ATOM     24  C15 NON d   1     -36.886  19.180  -9.143  0.00  0.00     0.010 A 
ATOM     25  C19 NON d   1     -38.548  20.848  -8.646  0.00  0.00     0.040 A 
ATOM     26  C16 NON d   1     -36.503  19.954 -10.245  0.00  0.00     0.001 A 
ATOM     27  C17 NON d   1     -37.156  21.165 -10.542  0.00  0.00     0.001 A 
ATOM     28  C18 NON d   1     -38.190  21.630  -9.728  0.00  0.00     0.017 A 
ATOM     29  C20 NON d   1     -39.543  21.109  -7.601  0.00  0.00     0.255 C 
ATOM     30  O2  NON d   1     -40.115  22.175  -7.470  0.00  0.00    -0.267 OA
ENDBRANCH  20  21
ENDBRANCH   4  20
TORSDOF 5
ENDMDL
MODEL 4
REMARK VINA RESULT:   -34.458      2.588      3.438
REMARK INTER + INTRA:         -37.001
REMARK INTER:                 -35.950
REMARK INTRA:                  -1.051
REMARK CONF_INDEPENDENT:        1.492
REMARK UNBOUND:                -1.051
REMARK  5 active torsions:
REMARK  status: ('A' for Active; 'I' for Inactive)
REMARK    1  A    between atoms: N1_1  and  C1_2 
REMARK    2  A    between atoms: C6_7  and  N2_8 
REMARK       I    between atoms: N2_8  and  C7_9 
REMARK    3  A    between atoms: C7_9  and  C8_11 
REMARK    4  A    between atoms: C11_14  and  C12_15 
REMARK    5  A    between atoms: C12_15  and  N3_16 
ROOT
ATOM      1  C8  NON d   1     -43.915  17.617  -4.670  0.00  0.00     0.032 A 
ATOM      2  C9  NON d   1     -43.814  18.838  -5.348  0.00  0.00     0.017 A 
ATOM      3  C10 NON d   1     -42.619  19.562  -5.344  0.00  0.00     0.010 A 
ATOM      4  C11 NON d   1     -41.486  19.096  -4.657  0.00  0.00    -0.040 A 
ATOM      5  C21 NON d   1     -41.615  17.914  -3.917  0.00  0.00     0.010 A 
ATOM      6  C22 NON d   1     -42.813  17.177  -3.926  0.00  0.00     0.017 A 
ENDROOT
BRANCH   1   7
ATOM      7  C7  NON d   1     -45.196  16.852  -4.821  0.00  0.00     0.256 C 
ATOM      8  N2  NON d   1     -46.162  17.067  -3.856  0.00  0.00    -0.321 N 
ATOM      9  H7  NON d   1     -46.013  17.777  -3.154  0.00  0.00     0.169 HD
ATOM     10  O1  NON d   1     -45.283  16.061  -5.755  0.00  0.00    -0.267 OA
BRANCH   8  11
ATOM     11  C6  NON d   1     -47.420  16.424  -3.731  0.00  0.00     0.056 A 
ATOM     12  C5  NON d   1     -48.060  16.195  -2.510  0.00  0.00     0.031 A 
ATOM     13  C4  NON d   1     -49.272  15.500  -2.465  0.00  0.00     0.002 A 
ATOM     14  C3  NON d   1     -49.847  15.013  -3.635  0.00  0.00     0.002 A 
ATOM     15  C2  NON d   1     -49.226  15.245  -4.862  0.00  0.00     0.025 A 
ATOM     16  C1  NON d   1     -48.037  15.985  -4.925  0.00  0.00     0.033 A 
BRANCH  16  17
ATOM     17  N1  NON d   1     -47.440  16.241  -6.185  0.00  0.00    -0.301 NA
ATOM     18  H1  NON d   1     -47.057  17.181  -6.244  0.00  0.00     0.124 HD
ATOM     19  H2  NON d   1     -46.706  15.560  -6.372  0.00  0.00     0.124 HD
ENDBRANCH  16  17
ENDBRANCH   8  11
ENDBRANCH   1   7
BRANCH   4  20
ATOM     20  C12 NON d   1     -40.202  19.881  -4.839  0.00  0.00     0.165 C 
BRANCH  20  21
ATOM     21  N3  NON d   1     -40.018  21.131  -4.122  0.00  0.00    -0.340 N 
ATOM     22  C13 NON d   1     -40.298  21.170  -2.690  0.00  0.00     0.166 C 
ATOM     23  C14 NON d   1     -40.464  22.623  -2.408  0.00  0.00    -0.025 A 
ATOM     24  C15 NON d   1     -40.687  23.278  -1.209  0.00  0.00     0.010 A 
ATOM     25  C19 NON d   1     -40.416  23.338  -3.599  0.00  0.00     0.040 A 
ATOM     26  C16 NON d   1     -40.830  24.671  -1.235  0.00  0.00     0.001 A 
ATOM     27  C17 NON d   1     -40.754  25.384  -2.446  0.00  0.00     0.001 A 
ATOM     28  C18 NON d   1     -40.552  24.713  -3.653  0.00  0.00     0.017 A 
ATOM     29  C20 NON d   1     -40.257  22.379  -4.696  0.00  0.00     0.255 C 
ATOM     30  O2  NON d   1     -40.371  22.676  -5.872  0.00  0.00    -0.267 OA
ENDBRANCH  20  21
ENDBRANCH   4  20
TORSDOF 5
ENDMDL
MODEL 5
REMARK VINA RESULT:   -34.415      1.286      1.732
REMARK INTER + INTRA:         -37.018
REMARK INTER:                 -35.907
REMARK INTRA:                  -1.111
REMARK CONF_INDEPENDENT:        1.492
REMARK UNBOUND:                -1.111
REMARK  5 active torsions:
REMARK  status: ('A' for Active; 'I' for Inactive)
REMARK    1  A    between atoms: N1_1  and  C1_2 
REMARK    2  A    between atoms: C6_7  and  N2_8 
REMARK       I    between atoms: N2_8  and  C7_9 
REMARK    3  A    between atoms: C7_9  and  C8_11 
REMARK    4  A    between atoms: C11_14  and  C12_15 
REMARK    5  A    between atoms: C12_15  and  N3_16 
ROOT
ATOM      1  C8  NON d   1     -43.853  17.715  -4.911  0.00  0.00     0.032 A 
ATOM      2  C9  NON d   1     -43.876  19.015  -5.430  0.00  0.00     0.017 A 
ATOM      3  C10 NON d   1     -42.704  19.768  -5.526  0.00  0.00     0.010 A 
ATOM      4  C11 NON d   1     -41.468  19.253  -5.099  0.00  0.00    -0.040 A 
ATOM      5  C21 NON d   1     -41.464  17.983  -4.509  0.00  0.00     0.010 A 
ATOM      6  C22 NON d   1     -42.640  17.217  -4.419  0.00  0.00     0.017 A 
ENDROOT
BRANCH   1   7
ATOM      7  C7  NON d   1     -45.135  16.937  -4.951  0.00  0.00     0.256 C 
ATOM      8  N2  NON d   1     -46.069  17.234  -3.977  0.00  0.00    -0.321 N 
ATOM      9  H7  NON d   1     -45.901  18.004  -3.346  0.00  0.00     0.169 HD
ATOM     10  O1  NON d   1     -45.248  16.065  -5.808  0.00  0.00    -0.267 OA
BRANCH   8  11
ATOM     11  C6  NON d   1     -47.319  16.603  -3.753  0.00  0.00     0.056 A 
ATOM     12  C5  NON d   1     -47.908  16.463  -2.494  0.00  0.00     0.031 A 
ATOM     13  C4  NON d   1     -49.115  15.773  -2.348  0.00  0.00     0.002 A 
ATOM     14  C3  NON d   1     -49.736  15.203  -3.455  0.00  0.00     0.002 A 
ATOM     15  C2  NON d   1     -49.167  15.345  -4.720  0.00  0.00     0.025 A 
ATOM     16  C1  NON d   1     -47.984  16.078  -4.886  0.00  0.00     0.033 A 
BRANCH  16  17
ATOM     17  N1  NON d   1     -47.440  16.242  -6.185  0.00  0.00    -0.301 NA
ATOM     18  H1  NON d   1     -47.037  17.166  -6.318  0.00  0.00     0.124 HD
ATOM     19  H2  NON d   1     -46.733  15.531  -6.363  0.00  0.00     0.124 HD
ENDBRANCH  16  17
ENDBRANCH   8  11
ENDBRANCH   1   7
BRANCH   4  20
ATOM     20  C12 NON d   1     -40.239  20.093  -5.382  0.00  0.00     0.165 C 
BRANCH  20  21
ATOM     21  N3  NON d   1     -40.272  21.074  -6.454  0.00  0.00    -0.340 N 
ATOM     22  C13 NON d   1     -39.947  20.645  -7.811  0.00  0.00     0.166 C 
ATOM     23  C14 NON d   1     -39.623  21.920  -8.510  0.00  0.00    -0.025 A 
ATOM     24  C15 NON d   1     -39.298  22.152  -9.835  0.00  0.00     0.010 A 
ATOM     25  C19 NON d   1     -39.632  22.968  -7.597  0.00  0.00     0.040 A 
ATOM     26  C16 NON d   1     -39.013  23.466 -10.225  0.00  0.00     0.001 A 
ATOM     27  C17 NON d   1     -39.051  24.522  -9.294  0.00  0.00     0.001 A 
ATOM     28  C18 NON d   1     -39.356  24.275  -7.955  0.00  0.00     0.017 A 
ATOM     29  C20 NON d   1     -39.923  22.411  -6.272  0.00  0.00     0.255 C 
ATOM     30  O2  NON d   1     -39.813  23.044  -5.238  0.00  0.00    -0.267 OA
ENDBRANCH  20  21
ENDBRANCH   4  20
TORSDOF 5
ENDMDL
MODEL 6
REMARK VINA RESULT:   -34.393      0.872      1.277
REMARK INTER + INTRA:         -37.162
REMARK INTER:                 -35.884
REMARK INTRA:                  -1.278
REMARK CONF_INDEPENDENT:        1.492
REMARK UNBOUND:                -1.278
REMARK  5 active torsions:
REMARK  status: ('A' for Active; 'I' for Inactive)
REMARK    1  A    between atoms: N1_1  and  C1_2 
REMARK    2  A    between atoms: C6_7  and  N2_8 
REMARK       I    between atoms: N2_8  and  C7_9 
REMARK    3  A    between atoms: C7_9  and  C8_11 
REMARK    4  A    between atoms: C11_14  and  C12_15 
REMARK    5  A    between atoms: C12_15  and  N3_16 
ROOT
ATOM      1  C8  NON d   1     -43.878  17.760  -5.015  0.00  0.00     0.032 A 
ATOM      2  C9  NON d   1     -42.705  17.148  -4.555  0.00  0.00     0.017 A 
ATOM      3  C10 NON d   1     -41.518  17.875  -4.437  0.00  0.00     0.010 A 
ATOM      4  C11 NON d   1     -41.458  19.236  -4.782  0.00  0.00    -0.040 A 
ATOM      5  C21 NON d   1     -42.613  19.822  -5.314  0.00  0.00     0.010 A 
ATOM      6  C22 NON d   1     -43.813  19.097  -5.425  0.00  0.00     0.017 A 
ENDROOT
BRANCH   1   7
ATOM      7  C7  NON d   1     -45.132  16.937  -5.001  0.00  0.00     0.256 C 
ATOM      8  N2  NON d   1     -46.069  17.253  -4.037  0.00  0.00    -0.321 N 
ATOM      9  H7  NON d   1     -45.923  18.061  -3.449  0.00  0.00     0.169 HD
ATOM     10  O1  NON d   1     -45.220  16.018  -5.810  0.00  0.00    -0.267 OA
BRANCH   8  11
ATOM     11  C6  NON d   1     -47.295  16.592  -3.769  0.00  0.00     0.056 A 
ATOM     12  C5  NON d   1     -47.859  16.483  -2.496  0.00  0.00     0.031 A 
ATOM     13  C4  NON d   1     -49.042  15.762  -2.304  0.00  0.00     0.002 A 
ATOM     14  C3  NON d   1     -49.660  15.129  -3.378  0.00  0.00     0.002 A 
ATOM     15  C2  NON d   1     -49.115  15.239  -4.656  0.00  0.00     0.025 A 
ATOM     16  C1  NON d   1     -47.958  16.002  -4.870  0.00  0.00     0.033 A 
BRANCH  16  17
ATOM     17  N1  NON d   1     -47.440  16.133  -6.182  0.00  0.00    -0.301 NA
ATOM     18  H1  NON d   1     -47.027  17.048  -6.342  0.00  0.00     0.124 HD
ATOM     19  H2  NON d   1     -46.746  15.408  -6.361  0.00  0.00     0.124 HD
ENDBRANCH  16  17
ENDBRANCH   8  11
ENDBRANCH   1   7
BRANCH   4  20
ATOM     20  C12 NON d   1     -40.164  19.965  -4.478  0.00  0.00     0.165 C 
BRANCH  20  21
ATOM     21  N3  NON d   1     -39.563  20.813  -5.493  0.00  0.00    -0.340 N 
ATOM     22  C13 NON d   1     -39.304  22.214  -5.177  0.00  0.00     0.166 C 
ATOM     23  C14 NON d   1     -39.153  22.850  -6.516  0.00  0.00    -0.025 A 
ATOM     24  C15 NON d   1     -38.839  24.155  -6.853  0.00  0.00     0.010 A 
ATOM     25  C19 NON d   1     -39.434  21.917  -7.509  0.00  0.00     0.040 A 
ATOM     26  C16 NON d   1     -38.785  24.491  -8.211  0.00  0.00     0.001 A 
ATOM     27  C17 NON d   1     -39.046  23.530  -9.206  0.00  0.00     0.001 A 
ATOM     28  C18 NON d   1     -39.386  22.223  -8.857  0.00  0.00     0.017 A 
ATOM     29  C20 NON d   1     -39.813  20.661  -6.856  0.00  0.00     0.255 C 
ATOM     30  O2  NON d   1     -40.297  19.714  -7.449  0.00  0.00    -0.267 OA
ENDBRANCH  20  21
ENDBRANCH   4  20
TORSDOF 5
ENDMDL
MODEL 7
REMARK VINA RESULT:   -34.359      3.284      4.587
REMARK INTER + INTRA:         -37.008
REMARK INTER:                 -35.851
REMARK INTRA:                  -1.157
REMARK CONF_INDEPENDENT:        1.492
REMARK UNBOUND:                -1.157
REMARK  5 active torsions:
REMARK  status: ('A' for Active; 'I' for Inactive)
REMARK    1  A    between atoms: N1_1  and  C1_2 
REMARK    2  A    between atoms: C6_7  and  N2_8 
REMARK       I    between atoms: N2_8  and  C7_9 
REMARK    3  A    between atoms: C7_9  and  C8_11 
REMARK    4  A    between atoms: C11_14  and  C12_15 
REMARK    5  A    between atoms: C12_15  and  N3_16 
ROOT
ATOM      1  C8  NON d   1     -43.832  17.768  -4.918  0.00  0.00     0.032 A 
ATOM      2  C9  NON d   1     -42.717  17.158  -4.332  0.00  0.00     0.017 A 
ATOM      3  C10 NON d   1     -41.521  17.861  -4.166  0.00  0.00     0.010 A 
ATOM      4  C11 NON d   1     -41.395  19.196  -4.587  0.00  0.00    -0.040 A 
ATOM      5  C21 NON d   1     -42.489  19.776  -5.241  0.00  0.00     0.010 A 
ATOM      6  C22 NON d   1     -43.698  19.075  -5.402  0.00  0.00     0.017 A 
ENDROOT
BRANCH   1   7
ATOM      7  C7  NON d   1     -45.107  16.978  -4.953  0.00  0.00     0.256 C 
ATOM      8  N2  NON d   1     -46.041  17.268  -3.977  0.00  0.00    -0.321 N 
ATOM      9  H7  NON d   1     -45.878  18.041  -3.347  0.00  0.00     0.169 HD
ATOM     10  O1  NON d   1     -45.215  16.105  -5.809  0.00  0.00    -0.267 OA
BRANCH   8  11
ATOM     11  C6  NON d   1     -47.285  16.626  -3.748  0.00  0.00     0.056 A 
ATOM     12  C5  NON d   1     -47.854  16.456  -2.484  0.00  0.00     0.031 A 
ATOM     13  C4  NON d   1     -49.056  15.757  -2.335  0.00  0.00     0.002 A 
ATOM     14  C3  NON d   1     -49.690  15.208  -3.445  0.00  0.00     0.002 A 
ATOM     15  C2  NON d   1     -49.141  15.380  -4.715  0.00  0.00     0.025 A 
ATOM     16  C1  NON d   1     -47.963  16.123  -4.882  0.00  0.00     0.033 A 
BRANCH  16  17
ATOM     17  N1  NON d   1     -47.440  16.318  -6.185  0.00  0.00    -0.301 NA
ATOM     18  H1  NON d   1     -46.684  16.997  -6.197  0.00  0.00     0.124 HD
ATOM     19  H2  NON d   1     -47.112  15.433  -6.569  0.00  0.00     0.124 HD
ENDBRANCH  16  17
ENDBRANCH   8  11
ENDBRANCH   1   7
BRANCH   4  20
ATOM     20  C12 NON d   1     -40.108  19.910  -4.227  0.00  0.00     0.165 C 
BRANCH  20  21
ATOM     21  N3  NON d   1     -40.069  20.776  -3.061  0.00  0.00    -0.340 N 
ATOM     22  C13 NON d   1     -39.116  21.881  -3.035  0.00  0.00     0.166 C 
ATOM     23  C14 NON d   1     -39.022  22.225  -1.589  0.00  0.00    -0.025 A 
ATOM     24  C15 NON d   1     -38.315  23.234  -0.957  0.00  0.00     0.010 A 
ATOM     25  C19 NON d   1     -39.755  21.309  -0.843  0.00  0.00     0.040 A 
ATOM     26  C16 NON d   1     -38.388  23.316   0.439  0.00  0.00     0.001 A 
ATOM     27  C17 NON d   1     -39.156  22.397   1.179  0.00  0.00     0.001 A 
ATOM     28  C18 NON d   1     -39.846  21.369   0.536  0.00  0.00     0.017 A 
ATOM     29  C20 NON d   1     -40.317  20.320  -1.767  0.00  0.00     0.255 C 
ATOM     30  O2  NON d   1     -40.848  19.286  -1.404  0.00  0.00    -0.267 OA
ENDBRANCH  20  21
ENDBRANCH   4  20
TORSDOF 5
ENDMDL
MODEL 8
REMARK VINA RESULT:   -32.474      1.988      2.768
REMARK INTER + INTRA:         -34.315
REMARK INTER:                 -33.966
REMARK INTRA:                  -0.349
REMARK CONF_INDEPENDENT:        1.492
REMARK UNBOUND:                -0.349
REMARK  5 active torsions:
REMARK  status: ('A' for Active; 'I' for Inactive)
REMARK    1  A    between atoms: N1_1  and  C1_2 
REMARK    2  A    between atoms: C6_7  and  N2_8 
REMARK       I    between atoms: N2_8  and  C7_9 
REMARK    3  A    between atoms: C7_9  and  C8_11 
REMARK    4  A    between atoms: C11_14  and  C12_15 
REMARK    5  A    between atoms: C12_15  and  N3_16 
ROOT
ATOM      1  C8  NON d   1     -44.010  17.489  -4.533  0.00  0.00     0.032 A 
ATOM      2  C9  NON d   1     -42.988  16.784  -3.887  0.00  0.00     0.017 A 
ATOM      3  C10 NON d   1     -41.732  17.364  -3.690  0.00  0.00     0.010 A 
ATOM      4  C11 NON d   1     -41.452  18.666  -4.140  0.00  0.00    -0.040 A 
ATOM      5  C21 NON d   1     -42.453  19.336  -4.853  0.00  0.00     0.010 A 
ATOM      6  C22 NON d   1     -43.721  18.760  -5.045  0.00  0.00     0.017 A 
ENDROOT
BRANCH   1   7
ATOM      7  C7  NON d   1     -45.359  16.835  -4.600  0.00  0.00     0.256 C 
ATOM      8  N2  NON d   1     -46.235  17.118  -3.570  0.00  0.00    -0.321 N 
ATOM      9  H7  NON d   1     -45.980  17.806  -2.876  0.00  0.00     0.169 HD
ATOM     10  O1  NON d   1     -45.575  16.064  -5.530  0.00  0.00    -0.267 OA
BRANCH   8  11
ATOM     11  C6  NON d   1     -47.531  16.581  -3.362  0.00  0.00     0.056 A 
ATOM     12  C5  NON d   1     -48.088  16.356  -2.100  0.00  0.00     0.031 A 
ATOM     13  C4  NON d   1     -49.350  15.766  -1.977  0.00  0.00     0.002 A 
ATOM     14  C3  NON d   1     -50.058  15.380  -3.112  0.00  0.00     0.002 A 
ATOM     15  C2  NON d   1     -49.520  15.610  -4.377  0.00  0.00     0.025 A 
ATOM     16  C1  NON d   1     -48.279  16.247  -4.515  0.00  0.00     0.033 A 
BRANCH  16  17
ATOM     17  N1  NON d   1     -47.765  16.505  -5.810  0.00  0.00    -0.301 NA
ATOM     18  H1  NON d   1     -48.457  16.935  -6.418  0.00  0.00     0.124 HD
ATOM     19  H2  NON d   1     -46.943  17.103  -5.751  0.00  0.00     0.124 HD
ENDBRANCH  16  17
ENDBRANCH   8  11
ENDBRANCH   1   7
BRANCH   4  20
ATOM     20  C12 NON d   1     -40.111  19.254  -3.747  0.00  0.00     0.165 C 
BRANCH  20  21
ATOM     21  N3  NON d   1     -39.768  20.602  -4.166  0.00  0.00    -0.340 N 
ATOM     22  C13 NON d   1     -39.529  20.860  -5.583  0.00  0.00     0.166 C 
ATOM     23  C14 NON d   1     -38.773  22.143  -5.580  0.00  0.00    -0.025 A 
ATOM     24  C15 NON d   1     -38.321  22.914  -6.637  0.00  0.00     0.010 A 
ATOM     25  C19 NON d   1     -38.489  22.514  -4.270  0.00  0.00     0.040 A 
ATOM     26  C16 NON d   1     -37.605  24.080  -6.344  0.00  0.00     0.001 A 
ATOM     27  C17 NON d   1     -37.347  24.458  -5.013  0.00  0.00     0.001 A 
ATOM     28  C18 NON d   1     -37.786  23.662  -3.954  0.00  0.00     0.017 A 
ATOM     29  C20 NON d   1     -39.013  21.473  -3.381  0.00  0.00     0.255 C 
ATOM     30  O2  NON d   1     -38.758  21.413  -2.192  0.00  0.00    -0.267 OA
ENDBRANCH  20  21
ENDBRANCH   4  20
TORSDOF 5
ENDMDL
