MODEL 1
REMARK VINA RESULT:   -32.131      0.000      0.000
REMARK INTER + INTRA:         -36.070
REMARK INTER:                 -34.517
REMARK INTRA:                  -1.553
REMARK CONF_INDEPENDENT:        2.386
REMARK UNBOUND:                -1.553
REMARK  8 active torsions:
REMARK  status: ('A' for Active; 'I' for Inactive)
REMARK       I    between atoms: C1_2  and  N1_3 
REMARK    1  A    between atoms: C1_2  and  C4_7 
REMARK    2  A    between atoms: N1_3  and  C2_4 
REMARK    3  A    between atoms: C2_4  and  C3_5 
REMARK    4  A    between atoms: C3_5  and  S1_6 
REMARK    5  A    between atoms: C4_7  and  C5_8 
REMARK    6  A    between atoms: C5_8  and  C6_9 
REMARK    7  A    between atoms: C10_13  and  N2_14 
REMARK    8  A    between atoms: N3_18  and  O4_19 
ROOT
ATOM      1  C4  NON d   1     -46.670  16.399  -4.618  0.00  0.00     0.133 C 
ATOM      2  N3  NON d   1     -47.087  16.733  -5.810  0.00  0.00    -0.135 NA
ENDROOT
BRANCH   1   3
ATOM      3  C1  NON d   1     -47.627  15.440  -3.869  0.00  0.00     0.268 C 
ATOM      4  O1  NON d   1     -47.296  14.911  -2.820  0.00  0.00    -0.266 OA
ATOM      5  N1  NON d   1     -48.871  15.328  -4.448  0.00  0.00    -0.355 N 
ATOM      6  H1  NON d   1     -48.986  15.757  -5.362  0.00  0.00     0.162 HD
BRANCH   5   7
ATOM      7  C2  NON d   1     -49.944  14.562  -3.850  0.00  0.00     0.133 C 
BRANCH   7   8
ATOM      8  C3  NON d   1     -50.750  15.363  -2.830  0.00  0.00     0.090 C 
BRANCH   8   9
ATOM      9  S1  NON d   1     -49.709  16.572  -1.949  0.00  0.00    -0.181 SA
ATOM     10  H6  NON d   1     -48.750  15.709  -1.579  0.00  0.00     0.101 HD
ENDBRANCH   8   9
ENDBRANCH   7   8
ENDBRANCH   5   7
ENDBRANCH   1   3
BRANCH   1  11
ATOM     11  C5  NON d   1     -45.528  16.881  -3.749  0.00  0.00     0.106 C 
BRANCH  11  12
ATOM     12  C6  NON d   1     -44.325  17.713  -4.151  0.00  0.00    -0.050 A 
ATOM     13  C7  NON d   1     -44.282  18.742  -5.093  0.00  0.00     0.007 A 
ATOM     14  C8  NON d   1     -43.100  19.460  -5.333  0.00  0.00     0.003 A 
ATOM     15  C9  NON d   1     -41.908  19.100  -4.707  0.00  0.00     0.036 A 
ATOM     16  C10 NON d   1     -41.906  18.006  -3.843  0.00  0.00     0.103 A 
ATOM     17  C11 NON d   1     -43.100  17.331  -3.555  0.00  0.00     0.043 A 
BRANCH  16  18
ATOM     18  N2  NON d   1     -40.645  17.539  -3.255  0.00  0.00    -0.116 N 
ATOM     19  O2  NON d   1     -39.591  17.820  -3.845  0.00  0.00    -0.532 OA
ATOM     20  O3  NON d   1     -40.707  16.879  -2.206  0.00  0.00    -0.532 OA
ENDBRANCH  16  18
ENDBRANCH  11  12
ENDBRANCH   1  11
BRANCH   2  21
ATOM     21  O4  NON d   1     -46.390  17.782  -6.389  0.00  0.00    -0.266 OA
ATOM     22  H13 NON d   1     -46.318  17.500  -7.323  0.00  0.00     0.247 HD
ENDBRANCH   2  21
TORSDOF 8
ENDMDL
MODEL 2
REMARK VINA RESULT:   -31.423      1.752      2.176
REMARK INTER + INTRA:         -35.612
REMARK INTER:                 -33.809
REMARK INTRA:                  -1.803
REMARK CONF_INDEPENDENT:        2.386
REMARK UNBOUND:                -1.803
REMARK  8 active torsions:
REMARK  status: ('A' for Active; 'I' for Inactive)
REMARK       I    between atoms: C1_2  and  N1_3 
REMARK    1  A    between atoms: C1_2  and  C4_7 
REMARK    2  A    between atoms: N1_3  and  C2_4 
REMARK    3  A    between atoms: C2_4  and  C3_5 
REMARK    4  A    between atoms: C3_5  and  S1_6 
REMARK    5  A    between atoms: C4_7  and  C5_8 
REMARK    6  A    between atoms: C5_8  and  C6_9 
REMARK    7  A    between atoms: C10_13  and  N2_14 
REMARK    8  A    between atoms: N3_18  and  O4_19 
ROOT
ATOM      1  C4  NON d   1     -46.711  16.580  -4.583  0.00  0.00     0.133 C 
ATOM      2  N3  NON d   1     -47.085  16.826  -5.810  0.00  0.00    -0.135 NA
ENDROOT
BRANCH   1   3
ATOM      3  C1  NON d   1     -47.562  15.496  -3.877  0.00  0.00     0.268 C 
ATOM      4  O1  NON d   1     -47.217  15.021  -2.807  0.00  0.00    -0.266 OA
ATOM      5  N1  NON d   1     -48.744  15.206  -4.521  0.00  0.00    -0.355 N 
ATOM      6  H1  NON d   1     -48.869  15.613  -5.444  0.00  0.00     0.162 HD
BRANCH   5   7
ATOM      7  C2  NON d   1     -49.729  14.297  -3.974  0.00  0.00     0.133 C 
BRANCH   7   8
ATOM      8  C3  NON d   1     -50.786  15.002  -3.129  0.00  0.00     0.090 C 
BRANCH   8   9
ATOM      9  S1  NON d   1     -50.137  16.530  -2.376  0.00  0.00    -0.181 SA
ATOM     10  H6  NON d   1     -48.925  16.046  -2.066  0.00  0.00     0.101 HD
ENDBRANCH   8   9
ENDBRANCH   7   8
ENDBRANCH   5   7
ENDBRANCH   1   3
BRANCH   1  11
ATOM     11  C5  NON d   1     -45.725  17.247  -3.649  0.00  0.00     0.106 C 
BRANCH  11  12
ATOM     12  C6  NON d   1     -44.228  17.419  -3.827  0.00  0.00    -0.050 A 
ATOM     13  C7  NON d   1     -43.211  16.713  -3.184  0.00  0.00     0.007 A 
ATOM     14  C8  NON d   1     -41.859  16.950  -3.482  0.00  0.00     0.003 A 
ATOM     15  C9  NON d   1     -41.491  17.970  -4.360  0.00  0.00     0.036 A 
ATOM     16  C10 NON d   1     -42.489  18.759  -4.930  0.00  0.00     0.103 A 
ATOM     17  C11 NON d   1     -43.840  18.478  -4.681  0.00  0.00     0.043 A 
BRANCH  16  18
ATOM     18  N2  NON d   1     -42.125  19.905  -5.771  0.00  0.00    -0.116 N 
ATOM     19  O2  NON d   1     -42.468  19.881  -6.963  0.00  0.00    -0.532 OA
ATOM     20  O3  NON d   1     -41.483  20.826  -5.244  0.00  0.00    -0.532 OA
ENDBRANCH  16  18
ENDBRANCH  11  12
ENDBRANCH   1  11
BRANCH   2  21
ATOM     21  O4  NON d   1     -46.517  17.960  -6.367  0.00  0.00    -0.266 OA
ATOM     22  H13 NON d   1     -46.206  18.451  -5.580  0.00  0.00     0.247 HD
ENDBRANCH   2  21
TORSDOF 8
ENDMDL
MODEL 3
REMARK VINA RESULT:   -30.982      3.227      7.658
REMARK INTER + INTRA:         -34.914
REMARK INTER:                 -33.369
REMARK INTRA:                  -1.546
REMARK CONF_INDEPENDENT:        2.386
REMARK UNBOUND:                -1.546
REMARK  8 active torsions:
REMARK  status: ('A' for Active; 'I' for Inactive)
REMARK       I    between atoms: C1_2  and  N1_3 
REMARK    1  A    between atoms: C1_2  and  C4_7 
REMARK    2  A    between atoms: N1_3  and  C2_4 
REMARK    3  A    between atoms: C2_4  and  C3_5 
REMARK    4  A    between atoms: C3_5  and  S1_6 
REMARK    5  A    between atoms: C4_7  and  C5_8 
REMARK    6  A    between atoms: C5_8  and  C6_9 
REMARK    7  A    between atoms: C10_13  and  N2_14 
REMARK    8  A    between atoms: N3_18  and  O4_19 
ROOT
ATOM      1  C4  NON d   1     -46.783  16.856  -4.535  0.00  0.00     0.133 C 
ATOM      2  N3  NON d   1     -47.065  16.843  -5.810  0.00  0.00    -0.135 NA
ENDROOT
BRANCH   1   3
ATOM      3  C1  NON d   1     -45.364  17.387  -4.215  0.00  0.00     0.268 C 
ATOM      4  O1  NON d   1     -44.713  16.928  -3.290  0.00  0.00    -0.266 OA
ATOM      5  N1  NON d   1     -44.906  18.329  -5.109  0.00  0.00    -0.355 N 
ATOM      6  H1  NON d   1     -45.581  18.679  -5.783  0.00  0.00     0.162 HD
BRANCH   5   7
ATOM      7  C2  NON d   1     -43.567  18.876  -5.048  0.00  0.00     0.133 C 
BRANCH   7   8
ATOM      8  C3  NON d   1     -42.486  17.800  -4.983  0.00  0.00     0.090 C 
BRANCH   8   9
ATOM      9  S1  NON d   1     -41.838  17.599  -3.292  0.00  0.00    -0.181 SA
ATOM     10  H6  NON d   1     -43.023  17.412  -2.693  0.00  0.00     0.101 HD
ENDBRANCH   8   9
ENDBRANCH   7   8
ENDBRANCH   5   7
ENDBRANCH   1   3
BRANCH   1  11
ATOM     11  C5  NON d   1     -47.490  16.308  -3.313  0.00  0.00     0.106 C 
BRANCH  11  12
ATOM     12  C6  NON d   1     -48.919  15.814  -3.195  0.00  0.00    -0.050 A 
ATOM     13  C7  NON d   1     -49.465  14.656  -3.752  0.00  0.00     0.007 A 
ATOM     14  C8  NON d   1     -50.803  14.299  -3.522  0.00  0.00     0.003 A 
ATOM     15  C9  NON d   1     -51.654  15.143  -2.810  0.00  0.00     0.036 A 
ATOM     16  C10 NON d   1     -51.156  16.357  -2.337  0.00  0.00     0.103 A 
ATOM     17  C11 NON d   1     -49.803  16.681  -2.512  0.00  0.00     0.043 A 
BRANCH  16  18
ATOM     18  N2  NON d   1     -52.056  17.311  -1.679  0.00  0.00    -0.116 N 
ATOM     19  O2  NON d   1     -53.122  17.588  -2.247  0.00  0.00    -0.532 OA
ATOM     20  O3  NON d   1     -51.691  17.796  -0.597  0.00  0.00    -0.532 OA
ENDBRANCH  16  18
ENDBRANCH  11  12
ENDBRANCH   1  11
BRANCH   2  21
ATOM     21  O4  NON d   1     -48.212  16.137  -6.137  0.00  0.00    -0.266 OA
ATOM     22  H13 NON d   1     -48.168  16.100  -7.113  0.00  0.00     0.247 HD
ENDBRANCH   2  21
TORSDOF 8
ENDMDL
MODEL 4
REMARK VINA RESULT:   -30.753      3.293      7.486
REMARK INTER + INTRA:         -34.592
REMARK INTER:                 -33.139
REMARK INTRA:                  -1.453
REMARK CONF_INDEPENDENT:        2.386
REMARK UNBOUND:                -1.453
REMARK  8 active torsions:
REMARK  status: ('A' for Active; 'I' for Inactive)
REMARK       I    between atoms: C1_2  and  N1_3 
REMARK    1  A    between atoms: C1_2  and  C4_7 
REMARK    2  A    between atoms: N1_3  and  C2_4 
REMARK    3  A    between atoms: C2_4  and  C3_5 
REMARK    4  A    between atoms: C3_5  and  S1_6 
REMARK    5  A    between atoms: C4_7  and  C5_8 
REMARK    6  A    between atoms: C5_8  and  C6_9 
REMARK    7  A    between atoms: C10_13  and  N2_14 
REMARK    8  A    between atoms: N3_18  and  O4_19 
ROOT
ATOM      1  C4  NON d   1     -46.744  16.452  -4.583  0.00  0.00     0.133 C 
ATOM      2  N3  NON d   1     -47.065  16.502  -5.848  0.00  0.00    -0.135 NA
ENDROOT
BRANCH   1   3
ATOM      3  C1  NON d   1     -45.345  17.038  -4.271  0.00  0.00     0.268 C 
ATOM      4  O1  NON d   1     -44.628  16.540  -3.417  0.00  0.00    -0.266 OA
ATOM      5  N1  NON d   1     -44.981  18.081  -5.093  0.00  0.00    -0.355 N 
ATOM      6  H1  NON d   1     -45.703  18.448  -5.707  0.00  0.00     0.162 HD
BRANCH   5   7
ATOM      7  C2  NON d   1     -43.674  18.701  -5.035  0.00  0.00     0.133 C 
BRANCH   7   8
ATOM      8  C3  NON d   1     -42.560  17.713  -4.700  0.00  0.00     0.090 C 
BRANCH   8   9
ATOM      9  S1  NON d   1     -41.947  17.940  -2.999  0.00  0.00    -0.181 SA
ATOM     10  H6  NON d   1     -43.098  17.638  -2.379  0.00  0.00     0.101 HD
ENDBRANCH   8   9
ENDBRANCH   7   8
ENDBRANCH   5   7
ENDBRANCH   1   3
BRANCH   1  11
ATOM     11  C5  NON d   1     -47.381  15.793  -3.378  0.00  0.00     0.106 C 
BRANCH  11  12
ATOM     12  C6  NON d   1     -48.472  16.338  -2.475  0.00  0.00    -0.050 A 
ATOM     13  C7  NON d   1     -48.315  16.967  -1.240  0.00  0.00     0.007 A 
ATOM     14  C8  NON d   1     -49.420  17.463  -0.530  0.00  0.00     0.003 A 
ATOM     15  C9  NON d   1     -50.718  17.254  -0.994  0.00  0.00     0.036 A 
ATOM     16  C10 NON d   1     -50.903  16.533  -2.173  0.00  0.00     0.103 A 
ATOM     17  C11 NON d   1     -49.795  16.095  -2.914  0.00  0.00     0.043 A 
BRANCH  16  18
ATOM     18  N2  NON d   1     -52.259  16.206  -2.627  0.00  0.00    -0.116 N 
ATOM     19  O2  NON d   1     -53.057  17.142  -2.790  0.00  0.00    -0.532 OA
ATOM     20  O3  NON d   1     -52.534  15.010  -2.810  0.00  0.00    -0.532 OA
ENDBRANCH  16  18
ENDBRANCH  11  12
ENDBRANCH   1  11
BRANCH   2  21
ATOM     21  O4  NON d   1     -48.184  15.757  -6.185  0.00  0.00    -0.266 OA
ATOM     22  H13 NON d   1     -48.845  16.447  -6.391  0.00  0.00     0.247 HD
ENDBRANCH   2  21
TORSDOF 8
ENDMDL
