MODEL 1
REMARK VINA RESULT:   -34.540      0.000      0.000
REMARK INTER + INTRA:         -39.612
REMARK INTER:                 -37.821
REMARK INTRA:                  -1.791
REMARK CONF_INDEPENDENT:        3.281
REMARK UNBOUND:                -1.791
REMARK  11 active torsions:
REMARK  status: ('A' for Active; 'I' for Inactive)
REMARK    1  A    between atoms: N1_1  and  C1_2 
REMARK    2  A    between atoms: C6_7  and  N2_8 
REMARK       I    between atoms: N2_8  and  C7_9 
REMARK    3  A    between atoms: C7_9  and  C8_11 
REMARK    4  A    between atoms: C8_11  and  C9_12 
REMARK    5  A    between atoms: C9_12  and  C10_13 
REMARK    6  A    between atoms: C10_13  and  C11_14 
REMARK    7  A    between atoms: C11_14  and  C12_15 
REMARK    8  A    between atoms: C12_15  and  C13_16 
REMARK    9  A    between atoms: C13_16  and  C14_17 
REMARK       I    between atoms: C14_17  and  N3_19 
REMARK   10  A    between atoms: N3_19  and  C15_20 
REMARK   11  A    between atoms: C19_24  and  C20_25 
ROOT
ATOM      1  C12 NON d   1     -40.594  18.463  -3.065  0.00  0.00     0.009 C 
ENDROOT
BRANCH   1   2
ATOM      2  C11 NON d   1     -40.991  19.197  -4.344  0.00  0.00     0.000 C 
BRANCH   2   3
ATOM      3  C10 NON d   1     -41.592  18.302  -5.437  0.00  0.00     0.000 C 
BRANCH   3   4
ATOM      4  C9  NON d   1     -42.812  17.505  -4.987  0.00  0.00     0.009 C 
BRANCH   4   5
ATOM      5  C8  NON d   1     -43.976  18.353  -4.469  0.00  0.00     0.103 C 
BRANCH   5   6
ATOM      6  C7  NON d   1     -45.305  17.710  -4.843  0.00  0.00     0.222 C 
ATOM      7  N2  NON d   1     -46.036  17.304  -3.745  0.00  0.00    -0.326 N 
ATOM      8  H7  NON d   1     -45.715  17.638  -2.846  0.00  0.00     0.169 HD
ATOM      9  O1  NON d   1     -45.660  17.611  -6.015  0.00  0.00    -0.273 OA
BRANCH   7  10
ATOM     10  C6  NON d   1     -47.291  16.633  -3.737  0.00  0.00     0.055 A 
ATOM     11  C5  NON d   1     -47.839  16.407  -2.460  0.00  0.00     0.031 A 
ATOM     12  C4  NON d   1     -49.064  15.755  -2.302  0.00  0.00     0.002 A 
ATOM     13  C3  NON d   1     -49.745  15.285  -3.416  0.00  0.00     0.002 A 
ATOM     14  C2  NON d   1     -49.201  15.474  -4.685  0.00  0.00     0.025 A 
ATOM     15  C1  NON d   1     -47.998  16.179  -4.875  0.00  0.00     0.033 A 
BRANCH  15  16
ATOM     16  N1  NON d   1     -47.440  16.131  -6.170  0.00  0.00    -0.301 NA
ATOM     17  H1  NON d   1     -47.724  16.906  -6.758  0.00  0.00     0.124 HD
ATOM     18  H2  NON d   1     -46.416  16.099  -6.123  0.00  0.00     0.124 HD
ENDBRANCH  15  16
ENDBRANCH   7  10
ENDBRANCH   5   6
ENDBRANCH   4   5
ENDBRANCH   3   4
ENDBRANCH   2   3
ENDBRANCH   1   2
BRANCH   1  19
ATOM     19  C13 NON d   1     -41.123  19.068  -1.755  0.00  0.00     0.103 C 
BRANCH  19  20
ATOM     20  C14 NON d   1     -40.280  20.284  -1.387  0.00  0.00     0.222 C 
ATOM     21  O2  NON d   1     -39.636  20.877  -2.250  0.00  0.00    -0.273 OA
ATOM     22  N3  NON d   1     -40.328  20.620  -0.040  0.00  0.00    -0.327 N 
ATOM     23  H20 NON d   1     -40.832  19.998   0.581  0.00  0.00     0.169 HD
BRANCH  22  24
ATOM     24  C15 NON d   1     -39.674  21.730   0.562  0.00  0.00     0.035 A 
ATOM     25  C16 NON d   1     -38.291  21.897   0.524  0.00  0.00     0.029 A 
ATOM     26  C17 NON d   1     -37.693  22.983   1.146  0.00  0.00     0.003 A 
ATOM     27  C18 NON d   1     -38.474  23.926   1.810  0.00  0.00     0.012 A 
ATOM     28  C19 NON d   1     -39.879  23.837   1.861  0.00  0.00    -0.024 A 
ATOM     29  C26 NON d   1     -40.453  22.710   1.215  0.00  0.00     0.042 A 
BRANCH  28  30
ATOM     30  C20 NON d   1     -40.690  24.886   2.569  0.00  0.00    -0.026 A 
ATOM     31  C21 NON d   1     -40.757  24.947   3.980  0.00  0.00     0.012 A 
ATOM     32  C22 NON d   1     -41.517  25.905   4.663  0.00  0.00     0.001 A 
ATOM     33  C23 NON d   1     -42.231  26.857   3.951  0.00  0.00     0.000 A 
ATOM     34  C24 NON d   1     -42.188  26.839   2.564  0.00  0.00     0.001 A 
ATOM     35  C25 NON d   1     -41.433  25.868   1.885  0.00  0.00     0.012 A 
ENDBRANCH  28  30
ENDBRANCH  22  24
ENDBRANCH  19  20
ENDBRANCH   1  19
TORSDOF 11
ENDMDL
MODEL 2
REMARK VINA RESULT:   -34.511      6.030      8.966
REMARK INTER + INTRA:         -39.867
REMARK INTER:                 -37.792
REMARK INTRA:                  -2.075
REMARK CONF_INDEPENDENT:        3.281
REMARK UNBOUND:                -2.075
REMARK  11 active torsions:
REMARK  status: ('A' for Active; 'I' for Inactive)
REMARK    1  A    between atoms: N1_1  and  C1_2 
REMARK    2  A    between atoms: C6_7  and  N2_8 
REMARK       I    between atoms: N2_8  and  C7_9 
REMARK    3  A    between atoms: C7_9  and  C8_11 
REMARK    4  A    between atoms: C8_11  and  C9_12 
REMARK    5  A    between atoms: C9_12  and  C10_13 
REMARK    6  A    between atoms: C10_13  and  C11_14 
REMARK    7  A    between atoms: C11_14  and  C12_15 
REMARK    8  A    between atoms: C12_15  and  C13_16 
REMARK    9  A    between atoms: C13_16  and  C14_17 
REMARK       I    between atoms: C14_17  and  N3_19 
REMARK   10  A    between atoms: N3_19  and  C15_20 
REMARK   11  A    between atoms: C19_24  and  C20_25 
ROOT
ATOM      1  C12 NON d   1     -40.964  18.479  -5.934  0.00  0.00     0.009 C 
ENDROOT
BRANCH   1   2
ATOM      2  C11 NON d   1     -40.840  18.649  -4.422  0.00  0.00     0.000 C 
BRANCH   2   3
ATOM      3  C10 NON d   1     -41.595  17.599  -3.594  0.00  0.00     0.000 C 
BRANCH   3   4
ATOM      4  C9  NON d   1     -42.911  17.145  -4.217  0.00  0.00     0.009 C 
BRANCH   4   5
ATOM      5  C8  NON d   1     -43.700  18.249  -4.925  0.00  0.00     0.103 C 
BRANCH   5   6
ATOM      6  C7  NON d   1     -45.151  17.827  -5.107  0.00  0.00     0.222 C 
ATOM      7  N2  NON d   1     -45.700  17.275  -3.967  0.00  0.00    -0.326 N 
ATOM      8  H7  NON d   1     -45.165  17.385  -3.115  0.00  0.00     0.169 HD
ATOM      9  O1  NON d   1     -45.741  18.005  -6.170  0.00  0.00    -0.273 OA
BRANCH   7  10
ATOM     10  C6  NON d   1     -47.008  16.739  -3.803  0.00  0.00     0.055 A 
ATOM     11  C5  NON d   1     -47.450  16.638  -2.471  0.00  0.00     0.031 A 
ATOM     12  C4  NON d   1     -48.712  16.126  -2.162  0.00  0.00     0.002 A 
ATOM     13  C3  NON d   1     -49.541  15.672  -3.179  0.00  0.00     0.002 A 
ATOM     14  C2  NON d   1     -49.106  15.737  -4.501  0.00  0.00     0.025 A 
ATOM     15  C1  NON d   1     -47.863  16.303  -4.843  0.00  0.00     0.033 A 
BRANCH  15  16
ATOM     16  N1  NON d   1     -47.440  16.130  -6.177  0.00  0.00    -0.301 NA
ATOM     17  H1  NON d   1     -47.588  16.950  -6.754  0.00  0.00     0.124 HD
ATOM     18  H2  NON d   1     -46.450  15.865  -6.213  0.00  0.00     0.124 HD
ENDBRANCH  15  16
ENDBRANCH   7  10
ENDBRANCH   5   6
ENDBRANCH   4   5
ENDBRANCH   3   4
ENDBRANCH   2   3
ENDBRANCH   1   2
BRANCH   1  19
ATOM     19  C13 NON d   1     -39.725  18.868  -6.755  0.00  0.00     0.103 C 
BRANCH  19  20
ATOM     20  C14 NON d   1     -40.060  20.071  -7.631  0.00  0.00     0.222 C 
ATOM     21  O2  NON d   1     -41.008  20.024  -8.414  0.00  0.00    -0.273 OA
ATOM     22  N3  NON d   1     -39.216  21.159  -7.447  0.00  0.00    -0.327 N 
ATOM     23  H20 NON d   1     -38.421  21.036  -6.831  0.00  0.00     0.169 HD
BRANCH  22  24
ATOM     24  C15 NON d   1     -39.328  22.416  -8.102  0.00  0.00     0.035 A 
ATOM     25  C16 NON d   1     -39.296  23.627  -7.412  0.00  0.00     0.029 A 
ATOM     26  C17 NON d   1     -39.433  24.829  -8.090  0.00  0.00     0.003 A 
ATOM     27  C18 NON d   1     -39.596  24.839  -9.474  0.00  0.00     0.012 A 
ATOM     28  C19 NON d   1     -39.606  23.655 -10.237  0.00  0.00    -0.024 A 
ATOM     29  C26 NON d   1     -39.465  22.444  -9.507  0.00  0.00     0.042 A 
BRANCH  28  30
ATOM     30  C20 NON d   1     -39.762  23.705 -11.731  0.00  0.00    -0.026 A 
ATOM     31  C21 NON d   1     -39.087  22.798 -12.580  0.00  0.00     0.012 A 
ATOM     32  C22 NON d   1     -39.206  22.833 -13.975  0.00  0.00     0.001 A 
ATOM     33  C23 NON d   1     -40.026  23.776 -14.576  0.00  0.00     0.000 A 
ATOM     34  C24 NON d   1     -40.714  24.681 -13.780  0.00  0.00     0.001 A 
ATOM     35  C25 NON d   1     -40.581  24.648 -12.382  0.00  0.00     0.012 A 
ENDBRANCH  28  30
ENDBRANCH  22  24
ENDBRANCH  19  20
ENDBRANCH   1  19
TORSDOF 11
ENDMDL
MODEL 3
REMARK VINA RESULT:   -34.390      6.330      9.618
REMARK INTER + INTRA:         -39.798
REMARK INTER:                 -37.671
REMARK INTRA:                  -2.127
REMARK CONF_INDEPENDENT:        3.281
REMARK UNBOUND:                -2.127
REMARK  11 active torsions:
REMARK  status: ('A' for Active; 'I' for Inactive)
REMARK    1  A    between atoms: N1_1  and  C1_2 
REMARK    2  A    between atoms: C6_7  and  N2_8 
REMARK       I    between atoms: N2_8  and  C7_9 
REMARK    3  A    between atoms: C7_9  and  C8_11 
REMARK    4  A    between atoms: C8_11  and  C9_12 
REMARK    5  A    between atoms: C9_12  and  C10_13 
REMARK    6  A    between atoms: C10_13  and  C11_14 
REMARK    7  A    between atoms: C11_14  and  C12_15 
REMARK    8  A    between atoms: C12_15  and  C13_16 
REMARK    9  A    between atoms: C13_16  and  C14_17 
REMARK       I    between atoms: C14_17  and  N3_19 
REMARK   10  A    between atoms: N3_19  and  C15_20 
REMARK   11  A    between atoms: C19_24  and  C20_25 
ROOT
ATOM      1  C12 NON d   1     -39.608  18.952  -6.268  0.00  0.00     0.009 C 
ENDROOT
BRANCH   1   2
ATOM      2  C11 NON d   1     -40.971  18.428  -5.827  0.00  0.00     0.000 C 
BRANCH   2   3
ATOM      3  C10 NON d   1     -41.955  19.511  -5.360  0.00  0.00     0.000 C 
BRANCH   3   4
ATOM      4  C9  NON d   1     -43.363  18.993  -5.079  0.00  0.00     0.009 C 
BRANCH   4   5
ATOM      5  C8  NON d   1     -43.424  17.552  -4.567  0.00  0.00     0.103 C 
BRANCH   5   6
ATOM      6  C7  NON d   1     -44.818  16.976  -4.778  0.00  0.00     0.222 C 
ATOM      7  N2  NON d   1     -45.676  17.241  -3.731  0.00  0.00    -0.326 N 
ATOM      8  H7  NON d   1     -45.359  17.924  -3.055  0.00  0.00     0.169 HD
ATOM      9  O1  NON d   1     -45.111  16.369  -5.806  0.00  0.00    -0.273 OA
BRANCH   7  10
ATOM     10  C6  NON d   1     -47.026  16.816  -3.584  0.00  0.00     0.055 A 
ATOM     11  C5  NON d   1     -47.511  16.812  -2.263  0.00  0.00     0.031 A 
ATOM     12  C4  NON d   1     -48.818  16.414  -1.971  0.00  0.00     0.002 A 
ATOM     13  C3  NON d   1     -49.651  15.979  -2.992  0.00  0.00     0.002 A 
ATOM     14  C2  NON d   1     -49.177  15.948  -4.302  0.00  0.00     0.025 A 
ATOM     15  C1  NON d   1     -47.884  16.399  -4.629  0.00  0.00     0.033 A 
BRANCH  15  16
ATOM     16  N1  NON d   1     -47.439  16.132  -5.941  0.00  0.00    -0.301 NA
ATOM     17  H1  NON d   1     -46.879  16.879  -6.334  0.00  0.00     0.124 HD
ATOM     18  H2  NON d   1     -46.907  15.255  -5.973  0.00  0.00     0.124 HD
ENDBRANCH  15  16
ENDBRANCH   7  10
ENDBRANCH   5   6
ENDBRANCH   4   5
ENDBRANCH   3   4
ENDBRANCH   2   3
ENDBRANCH   1   2
BRANCH   1  19
ATOM     19  C13 NON d   1     -39.290  18.814  -7.765  0.00  0.00     0.103 C 
BRANCH  19  20
ATOM     20  C14 NON d   1     -39.929  19.973  -8.524  0.00  0.00     0.222 C 
ATOM     21  O2  NON d   1     -41.021  19.829  -9.070  0.00  0.00    -0.273 OA
ATOM     22  N3  NON d   1     -39.173  21.138  -8.521  0.00  0.00    -0.327 N 
ATOM     23  H20 NON d   1     -38.250  21.097  -8.105  0.00  0.00     0.169 HD
BRANCH  22  24
ATOM     24  C15 NON d   1     -39.551  22.374  -9.114  0.00  0.00     0.035 A 
ATOM     25  C16 NON d   1     -40.042  23.444  -8.370  0.00  0.00     0.029 A 
ATOM     26  C17 NON d   1     -40.421  24.623  -8.994  0.00  0.00     0.003 A 
ATOM     27  C18 NON d   1     -40.305  24.753 -10.377  0.00  0.00     0.012 A 
ATOM     28  C19 NON d   1     -39.787  23.723 -11.186  0.00  0.00    -0.024 A 
ATOM     29  C26 NON d   1     -39.412  22.531 -10.511  0.00  0.00     0.042 A 
BRANCH  28  30
ATOM     30  C20 NON d   1     -39.656  23.906 -12.672  0.00  0.00    -0.026 A 
ATOM     31  C21 NON d   1     -38.532  23.430 -13.384  0.00  0.00     0.012 A 
ATOM     32  C22 NON d   1     -38.380  23.600 -14.766  0.00  0.00     0.001 A 
ATOM     33  C23 NON d   1     -39.367  24.246 -15.495  0.00  0.00     0.000 A 
ATOM     34  C24 NON d   1     -40.492  24.723 -14.839  0.00  0.00     0.001 A 
ATOM     35  C25 NON d   1     -40.632  24.560 -13.450  0.00  0.00     0.012 A 
ENDBRANCH  28  30
ENDBRANCH  22  24
ENDBRANCH  19  20
ENDBRANCH   1  19
TORSDOF 11
ENDMDL
MODEL 4
REMARK VINA RESULT:   -34.315      1.315      1.614
REMARK INTER + INTRA:         -39.694
REMARK INTER:                 -37.596
REMARK INTRA:                  -2.098
REMARK CONF_INDEPENDENT:        3.281
REMARK UNBOUND:                -2.098
REMARK  11 active torsions:
REMARK  status: ('A' for Active; 'I' for Inactive)
REMARK    1  A    between atoms: N1_1  and  C1_2 
REMARK    2  A    between atoms: C6_7  and  N2_8 
REMARK       I    between atoms: N2_8  and  C7_9 
REMARK    3  A    between atoms: C7_9  and  C8_11 
REMARK    4  A    between atoms: C8_11  and  C9_12 
REMARK    5  A    between atoms: C9_12  and  C10_13 
REMARK    6  A    between atoms: C10_13  and  C11_14 
REMARK    7  A    between atoms: C11_14  and  C12_15 
REMARK    8  A    between atoms: C12_15  and  C13_16 
REMARK    9  A    between atoms: C13_16  and  C14_17 
REMARK       I    between atoms: C14_17  and  N3_19 
REMARK   10  A    between atoms: N3_19  and  C15_20 
REMARK   11  A    between atoms: C19_24  and  C20_25 
ROOT
ATOM      1  C12 NON d   1     -40.650  18.180  -3.236  0.00  0.00     0.009 C 
ENDROOT
BRANCH   1   2
ATOM      2  C11 NON d   1     -40.310  18.018  -4.715  0.00  0.00     0.000 C 
BRANCH   2   3
ATOM      3  C10 NON d   1     -41.511  17.707  -5.620  0.00  0.00     0.000 C 
BRANCH   3   4
ATOM      4  C9  NON d   1     -42.794  17.382  -4.860  0.00  0.00     0.009 C 
BRANCH   4   5
ATOM      5  C8  NON d   1     -43.848  18.492  -4.879  0.00  0.00     0.103 C 
BRANCH   5   6
ATOM      6  C7  NON d   1     -45.236  17.897  -5.072  0.00  0.00     0.222 C 
ATOM      7  N2  NON d   1     -45.816  17.485  -3.890  0.00  0.00    -0.326 N 
ATOM      8  H7  NON d   1     -45.359  17.787  -3.039  0.00  0.00     0.169 HD
ATOM      9  O1  NON d   1     -45.758  17.838  -6.184  0.00  0.00    -0.273 OA
BRANCH   7  10
ATOM     10  C6  NON d   1     -47.078  16.851  -3.715  0.00  0.00     0.055 A 
ATOM     11  C5  NON d   1     -47.520  16.758  -2.383  0.00  0.00     0.031 A 
ATOM     12  C4  NON d   1     -48.740  16.156  -2.063  0.00  0.00     0.002 A 
ATOM     13  C3  NON d   1     -49.521  15.603  -3.069  0.00  0.00     0.002 A 
ATOM     14  C2  NON d   1     -49.082  15.659  -4.390  0.00  0.00     0.025 A 
ATOM     15  C1  NON d   1     -47.887  16.311  -4.744  0.00  0.00     0.033 A 
BRANCH  15  16
ATOM     16  N1  NON d   1     -47.440  16.130  -6.070  0.00  0.00    -0.301 NA
ATOM     17  H1  NON d   1     -47.598  16.938  -6.660  0.00  0.00     0.124 HD
ATOM     18  H2  NON d   1     -46.444  15.886  -6.087  0.00  0.00     0.124 HD
ENDBRANCH  15  16
ENDBRANCH   7  10
ENDBRANCH   5   6
ENDBRANCH   4   5
ENDBRANCH   3   4
ENDBRANCH   2   3
ENDBRANCH   1   2
BRANCH   1  19
ATOM     19  C13 NON d   1     -39.573  18.854  -2.372  0.00  0.00     0.103 C 
BRANCH  19  20
ATOM     20  C14 NON d   1     -39.711  20.369  -2.488  0.00  0.00     0.222 C 
ATOM     21  O2  NON d   1     -39.798  20.901  -3.593  0.00  0.00    -0.273 OA
ATOM     22  N3  NON d   1     -39.727  21.031  -1.267  0.00  0.00    -0.327 N 
ATOM     23  H20 NON d   1     -39.563  20.481  -0.433  0.00  0.00     0.169 HD
BRANCH  22  24
ATOM     24  C15 NON d   1     -39.887  22.433  -1.086  0.00  0.00     0.035 A 
ATOM     25  C16 NON d   1     -39.659  23.352  -2.108  0.00  0.00     0.029 A 
ATOM     26  C17 NON d   1     -39.805  24.712  -1.879  0.00  0.00     0.003 A 
ATOM     27  C18 NON d   1     -40.190  25.174  -0.622  0.00  0.00     0.012 A 
ATOM     28  C19 NON d   1     -40.468  24.299   0.447  0.00  0.00    -0.024 A 
ATOM     29  C26 NON d   1     -40.305  22.914   0.174  0.00  0.00     0.042 A 
BRANCH  28  30
ATOM     30  C20 NON d   1     -40.903  24.832   1.783  0.00  0.00    -0.026 A 
ATOM     31  C21 NON d   1     -41.163  26.207   1.986  0.00  0.00     0.012 A 
ATOM     32  C22 NON d   1     -41.555  26.730   3.225  0.00  0.00     0.001 A 
ATOM     33  C23 NON d   1     -41.720  25.885   4.311  0.00  0.00     0.000 A 
ATOM     34  C24 NON d   1     -41.483  24.526   4.156  0.00  0.00     0.001 A 
ATOM     35  C25 NON d   1     -41.078  24.010   2.913  0.00  0.00     0.012 A 
ENDBRANCH  28  30
ENDBRANCH  22  24
ENDBRANCH  19  20
ENDBRANCH   1  19
TORSDOF 11
ENDMDL
MODEL 5
REMARK VINA RESULT:   -34.217      2.438      3.097
REMARK INTER + INTRA:         -39.169
REMARK INTER:                 -37.498
REMARK INTRA:                  -1.671
REMARK CONF_INDEPENDENT:        3.281
REMARK UNBOUND:                -1.671
REMARK  11 active torsions:
REMARK  status: ('A' for Active; 'I' for Inactive)
REMARK    1  A    between atoms: N1_1  and  C1_2 
REMARK    2  A    between atoms: C6_7  and  N2_8 
REMARK       I    between atoms: N2_8  and  C7_9 
REMARK    3  A    between atoms: C7_9  and  C8_11 
REMARK    4  A    between atoms: C8_11  and  C9_12 
REMARK    5  A    between atoms: C9_12  and  C10_13 
REMARK    6  A    between atoms: C10_13  and  C11_14 
REMARK    7  A    between atoms: C11_14  and  C12_15 
REMARK    8  A    between atoms: C12_15  and  C13_16 
REMARK    9  A    between atoms: C13_16  and  C14_17 
REMARK       I    between atoms: C14_17  and  N3_19 
REMARK   10  A    between atoms: N3_19  and  C15_20 
REMARK   11  A    between atoms: C19_24  and  C20_25 
ROOT
ATOM      1  C12 NON d   1     -39.905  18.746  -5.114  0.00  0.00     0.009 C 
ENDROOT
BRANCH   1   2
ATOM      2  C11 NON d   1     -41.064  17.753  -5.122  0.00  0.00     0.000 C 
BRANCH   2   3
ATOM      3  C10 NON d   1     -41.668  17.460  -3.741  0.00  0.00     0.000 C 
BRANCH   3   4
ATOM      4  C9  NON d   1     -43.149  17.807  -3.624  0.00  0.00     0.009 C 
BRANCH   4   5
ATOM      5  C8  NON d   1     -43.774  18.385  -4.897  0.00  0.00     0.103 C 
BRANCH   5   6
ATOM      6  C7  NON d   1     -45.186  17.846  -5.082  0.00  0.00     0.222 C 
ATOM      7  N2  NON d   1     -45.759  17.417  -3.902  0.00  0.00    -0.326 N 
ATOM      8  H7  NON d   1     -45.277  17.674  -3.051  0.00  0.00     0.169 HD
ATOM      9  O1  NON d   1     -45.730  17.841  -6.184  0.00  0.00    -0.273 OA
BRANCH   7  10
ATOM     10  C6  NON d   1     -47.040  16.822  -3.724  0.00  0.00     0.055 A 
ATOM     11  C5  NON d   1     -47.477  16.735  -2.389  0.00  0.00     0.031 A 
ATOM     12  C4  NON d   1     -48.713  16.170  -2.066  0.00  0.00     0.002 A 
ATOM     13  C3  NON d   1     -49.518  15.649  -3.070  0.00  0.00     0.002 A 
ATOM     14  C2  NON d   1     -49.086  15.700  -4.394  0.00  0.00     0.025 A 
ATOM     15  C1  NON d   1     -47.872  16.316  -4.751  0.00  0.00     0.033 A 
BRANCH  15  16
ATOM     16  N1  NON d   1     -47.440  16.130  -6.081  0.00  0.00    -0.301 NA
ATOM     17  H1  NON d   1     -48.166  15.775  -6.693  0.00  0.00     0.124 HD
ATOM     18  H2  NON d   1     -47.067  17.004  -6.467  0.00  0.00     0.124 HD
ENDBRANCH  15  16
ENDBRANCH   7  10
ENDBRANCH   5   6
ENDBRANCH   4   5
ENDBRANCH   3   4
ENDBRANCH   2   3
ENDBRANCH   1   2
BRANCH   1  19
ATOM     19  C13 NON d   1     -40.209  20.135  -5.697  0.00  0.00     0.103 C 
BRANCH  19  20
ATOM     20  C14 NON d   1     -40.129  21.176  -4.585  0.00  0.00     0.222 C 
ATOM     21  O2  NON d   1     -39.708  20.863  -3.472  0.00  0.00    -0.273 OA
ATOM     22  N3  NON d   1     -40.561  22.441  -4.960  0.00  0.00    -0.327 N 
ATOM     23  H20 NON d   1     -40.963  22.544  -5.884  0.00  0.00     0.169 HD
BRANCH  22  24
ATOM     24  C15 NON d   1     -40.553  23.599  -4.135  0.00  0.00     0.035 A 
ATOM     25  C16 NON d   1     -40.423  24.887  -4.651  0.00  0.00     0.029 A 
ATOM     26  C17 NON d   1     -40.397  25.986  -3.806  0.00  0.00     0.003 A 
ATOM     27  C18 NON d   1     -40.509  25.814  -2.428  0.00  0.00     0.012 A 
ATOM     28  C19 NON d   1     -40.676  24.544  -1.841  0.00  0.00    -0.024 A 
ATOM     29  C26 NON d   1     -40.695  23.443  -2.739  0.00  0.00     0.042 A 
BRANCH  28  30
ATOM     30  C20 NON d   1     -40.815  24.398  -0.352  0.00  0.00    -0.026 A 
ATOM     31  C21 NON d   1     -40.686  23.144   0.287  0.00  0.00     0.012 A 
ATOM     32  C22 NON d   1     -40.825  22.980   1.671  0.00  0.00     0.001 A 
ATOM     33  C23 NON d   1     -41.086  24.079   2.475  0.00  0.00     0.000 A 
ATOM     34  C24 NON d   1     -41.213  25.331   1.891  0.00  0.00     0.001 A 
ATOM     35  C25 NON d   1     -41.084  25.487   0.500  0.00  0.00     0.012 A 
ENDBRANCH  28  30
ENDBRANCH  22  24
ENDBRANCH  19  20
ENDBRANCH   1  19
TORSDOF 11
ENDMDL
MODEL 6
REMARK VINA RESULT:   -34.080      5.549      8.462
REMARK INTER + INTRA:         -39.682
REMARK INTER:                 -37.361
REMARK INTRA:                  -2.320
REMARK CONF_INDEPENDENT:        3.281
REMARK UNBOUND:                -2.320
REMARK  11 active torsions:
REMARK  status: ('A' for Active; 'I' for Inactive)
REMARK    1  A    between atoms: N1_1  and  C1_2 
REMARK    2  A    between atoms: C6_7  and  N2_8 
REMARK       I    between atoms: N2_8  and  C7_9 
REMARK    3  A    between atoms: C7_9  and  C8_11 
REMARK    4  A    between atoms: C8_11  and  C9_12 
REMARK    5  A    between atoms: C9_12  and  C10_13 
REMARK    6  A    between atoms: C10_13  and  C11_14 
REMARK    7  A    between atoms: C11_14  and  C12_15 
REMARK    8  A    between atoms: C12_15  and  C13_16 
REMARK    9  A    between atoms: C13_16  and  C14_17 
REMARK       I    between atoms: C14_17  and  N3_19 
REMARK   10  A    between atoms: N3_19  and  C15_20 
REMARK   11  A    between atoms: C19_24  and  C20_25 
ROOT
ATOM      1  C12 NON d   1     -39.689  18.336  -3.706  0.00  0.00     0.009 C 
ENDROOT
BRANCH   1   2
ATOM      2  C11 NON d   1     -40.592  17.448  -2.853  0.00  0.00     0.000 C 
BRANCH   2   3
ATOM      3  C10 NON d   1     -42.007  17.999  -2.627  0.00  0.00     0.000 C 
BRANCH   3   4
ATOM      4  C9  NON d   1     -43.097  17.238  -3.375  0.00  0.00     0.009 C 
BRANCH   4   5
ATOM      5  C8  NON d   1     -43.594  17.922  -4.652  0.00  0.00     0.103 C 
BRANCH   5   6
ATOM      6  C7  NON d   1     -45.058  17.580  -4.897  0.00  0.00     0.222 C 
ATOM      7  N2  NON d   1     -45.698  17.108  -3.770  0.00  0.00    -0.326 N 
ATOM      8  H7  NON d   1     -45.202  17.219  -2.894  0.00  0.00     0.169 HD
ATOM      9  O1  NON d   1     -45.580  17.752  -5.997  0.00  0.00    -0.273 OA
BRANCH   7  10
ATOM     10  C6  NON d   1     -47.044  16.659  -3.658  0.00  0.00     0.055 A 
ATOM     11  C5  NON d   1     -47.533  16.560  -2.342  0.00  0.00     0.031 A 
ATOM     12  C4  NON d   1     -48.837  16.128  -2.084  0.00  0.00     0.002 A 
ATOM     13  C3  NON d   1     -49.661  15.753  -3.135  0.00  0.00     0.002 A 
ATOM     14  C2  NON d   1     -49.181  15.816  -4.442  0.00  0.00     0.025 A 
ATOM     15  C1  NON d   1     -47.893  16.303  -4.732  0.00  0.00     0.033 A 
BRANCH  15  16
ATOM     16  N1  NON d   1     -47.440  16.130  -6.057  0.00  0.00    -0.301 NA
ATOM     17  H1  NON d   1     -47.471  16.982  -6.606  0.00  0.00     0.124 HD
ATOM     18  H2  NON d   1     -46.486  15.754  -6.069  0.00  0.00     0.124 HD
ENDBRANCH  15  16
ENDBRANCH   7  10
ENDBRANCH   5   6
ENDBRANCH   4   5
ENDBRANCH   3   4
ENDBRANCH   2   3
ENDBRANCH   1   2
BRANCH   1  19
ATOM     19  C13 NON d   1     -40.394  19.465  -4.475  0.00  0.00     0.103 C 
BRANCH  19  20
ATOM     20  C14 NON d   1     -40.024  19.375  -5.951  0.00  0.00     0.222 C 
ATOM     21  O2  NON d   1     -40.713  18.712  -6.724  0.00  0.00    -0.273 OA
ATOM     22  N3  NON d   1     -38.884  20.090  -6.294  0.00  0.00    -0.327 N 
ATOM     23  H20 NON d   1     -38.360  20.526  -5.544  0.00  0.00     0.169 HD
BRANCH  22  24
ATOM     24  C15 NON d   1     -38.343  20.211  -7.604  0.00  0.00     0.035 A 
ATOM     25  C16 NON d   1     -37.239  19.476  -8.031  0.00  0.00     0.029 A 
ATOM     26  C17 NON d   1     -36.731  19.644  -9.310  0.00  0.00     0.003 A 
ATOM     27  C18 NON d   1     -37.327  20.547 -10.188  0.00  0.00     0.012 A 
ATOM     28  C19 NON d   1     -38.464  21.299  -9.834  0.00  0.00    -0.024 A 
ATOM     29  C26 NON d   1     -38.954  21.101  -8.515  0.00  0.00     0.042 A 
BRANCH  28  30
ATOM     30  C20 NON d   1     -39.094  22.248 -10.814  0.00  0.00    -0.026 A 
ATOM     31  C21 NON d   1     -39.632  23.489 -10.406  0.00  0.00     0.012 A 
ATOM     32  C22 NON d   1     -40.237  24.384 -11.298  0.00  0.00     0.001 A 
ATOM     33  C23 NON d   1     -40.309  24.073 -12.647  0.00  0.00     0.000 A 
ATOM     34  C24 NON d   1     -39.786  22.868 -13.094  0.00  0.00     0.001 A 
ATOM     35  C25 NON d   1     -39.193  21.969 -12.192  0.00  0.00     0.012 A 
ENDBRANCH  28  30
ENDBRANCH  22  24
ENDBRANCH  19  20
ENDBRANCH   1  19
TORSDOF 11
ENDMDL
MODEL 7
REMARK VINA RESULT:   -34.022      4.663      7.672
REMARK INTER + INTRA:         -39.528
REMARK INTER:                 -37.304
REMARK INTRA:                  -2.224
REMARK CONF_INDEPENDENT:        3.281
REMARK UNBOUND:                -2.224
REMARK  11 active torsions:
REMARK  status: ('A' for Active; 'I' for Inactive)
REMARK    1  A    between atoms: N1_1  and  C1_2 
REMARK    2  A    between atoms: C6_7  and  N2_8 
REMARK       I    between atoms: N2_8  and  C7_9 
REMARK    3  A    between atoms: C7_9  and  C8_11 
REMARK    4  A    between atoms: C8_11  and  C9_12 
REMARK    5  A    between atoms: C9_12  and  C10_13 
REMARK    6  A    between atoms: C10_13  and  C11_14 
REMARK    7  A    between atoms: C11_14  and  C12_15 
REMARK    8  A    between atoms: C12_15  and  C13_16 
REMARK    9  A    between atoms: C13_16  and  C14_17 
REMARK       I    between atoms: C14_17  and  N3_19 
REMARK   10  A    between atoms: N3_19  and  C15_20 
REMARK   11  A    between atoms: C19_24  and  C20_25 
ROOT
ATOM      1  C12 NON d   1     -39.701  18.788  -2.660  0.00  0.00     0.009 C 
ENDROOT
BRANCH   1   2
ATOM      2  C11 NON d   1     -40.645  17.598  -2.808  0.00  0.00     0.000 C 
BRANCH   2   3
ATOM      3  C10 NON d   1     -42.138  17.947  -2.715  0.00  0.00     0.000 C 
BRANCH   3   4
ATOM      4  C9  NON d   1     -43.006  17.249  -3.759  0.00  0.00     0.009 C 
BRANCH   4   5
ATOM      5  C8  NON d   1     -43.720  18.192  -4.731  0.00  0.00     0.103 C 
BRANCH   5   6
ATOM      6  C7  NON d   1     -45.145  17.715  -4.975  0.00  0.00     0.222 C 
ATOM      7  N2  NON d   1     -45.780  17.297  -3.824  0.00  0.00    -0.326 N 
ATOM      8  H7  NON d   1     -45.320  17.525  -2.952  0.00  0.00     0.169 HD
ATOM      9  O1  NON d   1     -45.647  17.745  -6.097  0.00  0.00    -0.273 OA
BRANCH   7  10
ATOM     10  C6  NON d   1     -47.090  16.754  -3.700  0.00  0.00     0.055 A 
ATOM     11  C5  NON d   1     -47.575  16.657  -2.383  0.00  0.00     0.031 A 
ATOM     12  C4  NON d   1     -48.844  16.139  -2.113  0.00  0.00     0.002 A 
ATOM     13  C3  NON d   1     -49.636  15.676  -3.155  0.00  0.00     0.002 A 
ATOM     14  C2  NON d   1     -49.158  15.737  -4.462  0.00  0.00     0.025 A 
ATOM     15  C1  NON d   1     -47.908  16.307  -4.765  0.00  0.00     0.033 A 
BRANCH  15  16
ATOM     16  N1  NON d   1     -47.440  16.131  -6.084  0.00  0.00    -0.301 NA
ATOM     17  H1  NON d   1     -47.466  16.981  -6.636  0.00  0.00     0.124 HD
ATOM     18  H2  NON d   1     -46.485  15.756  -6.084  0.00  0.00     0.124 HD
ENDBRANCH  15  16
ENDBRANCH   7  10
ENDBRANCH   5   6
ENDBRANCH   4   5
ENDBRANCH   3   4
ENDBRANCH   2   3
ENDBRANCH   1   2
BRANCH   1  19
ATOM     19  C13 NON d   1     -40.299  20.163  -2.999  0.00  0.00     0.103 C 
BRANCH  19  20
ATOM     20  C14 NON d   1     -39.944  20.525  -4.437  0.00  0.00     0.222 C 
ATOM     21  O2  NON d   1     -40.270  21.617  -4.900  0.00  0.00    -0.273 OA
ATOM     22  N3  NON d   1     -39.248  19.533  -5.116  0.00  0.00    -0.327 N 
ATOM     23  H20 NON d   1     -39.117  18.647  -4.645  0.00  0.00     0.169 HD
BRANCH  22  24
ATOM     24  C15 NON d   1     -38.761  19.626  -6.449  0.00  0.00     0.035 A 
ATOM     25  C16 NON d   1     -37.888  18.688  -6.996  0.00  0.00     0.029 A 
ATOM     26  C17 NON d   1     -37.419  18.832  -8.293  0.00  0.00     0.003 A 
ATOM     27  C18 NON d   1     -37.825  19.915  -9.069  0.00  0.00     0.012 A 
ATOM     28  C19 NON d   1     -38.731  20.883  -8.591  0.00  0.00    -0.024 A 
ATOM     29  C26 NON d   1     -39.186  20.703  -7.258  0.00  0.00     0.042 A 
BRANCH  28  30
ATOM     30  C20 NON d   1     -39.164  22.027  -9.464  0.00  0.00    -0.026 A 
ATOM     31  C21 NON d   1     -39.104  21.950 -10.875  0.00  0.00     0.012 A 
ATOM     32  C22 NON d   1     -39.488  23.007 -11.709  0.00  0.00     0.001 A 
ATOM     33  C23 NON d   1     -39.968  24.185 -11.158  0.00  0.00     0.000 A 
ATOM     34  C24 NON d   1     -40.051  24.302  -9.777  0.00  0.00     0.001 A 
ATOM     35  C25 NON d   1     -39.652  23.242  -8.945  0.00  0.00     0.012 A 
ENDBRANCH  28  30
ENDBRANCH  22  24
ENDBRANCH  19  20
ENDBRANCH   1  19
TORSDOF 11
ENDMDL
MODEL 8
REMARK VINA RESULT:   -33.255      2.347      3.058
REMARK INTER + INTRA:         -38.808
REMARK INTER:                 -36.537
REMARK INTRA:                  -2.272
REMARK CONF_INDEPENDENT:        3.281
REMARK UNBOUND:                -2.272
REMARK  11 active torsions:
REMARK  status: ('A' for Active; 'I' for Inactive)
REMARK    1  A    between atoms: N1_1  and  C1_2 
REMARK    2  A    between atoms: C6_7  and  N2_8 
REMARK       I    between atoms: N2_8  and  C7_9 
REMARK    3  A    between atoms: C7_9  and  C8_11 
REMARK    4  A    between atoms: C8_11  and  C9_12 
REMARK    5  A    between atoms: C9_12  and  C10_13 
REMARK    6  A    between atoms: C10_13  and  C11_14 
REMARK    7  A    between atoms: C11_14  and  C12_15 
REMARK    8  A    between atoms: C12_15  and  C13_16 
REMARK    9  A    between atoms: C13_16  and  C14_17 
REMARK       I    between atoms: C14_17  and  N3_19 
REMARK   10  A    between atoms: N3_19  and  C15_20 
REMARK   11  A    between atoms: C19_24  and  C20_25 
ROOT
ATOM      1  C12 NON d   1     -39.562  17.852  -2.867  0.00  0.00     0.009 C 
ENDROOT
BRANCH   1   2
ATOM      2  C11 NON d   1     -40.823  18.563  -3.352  0.00  0.00     0.000 C 
BRANCH   2   3
ATOM      3  C10 NON d   1     -42.125  18.079  -2.697  0.00  0.00     0.000 C 
BRANCH   3   4
ATOM      4  C9  NON d   1     -43.010  17.243  -3.617  0.00  0.00     0.009 C 
BRANCH   4   5
ATOM      5  C8  NON d   1     -43.601  18.006  -4.805  0.00  0.00     0.103 C 
BRANCH   5   6
ATOM      6  C7  NON d   1     -45.053  17.604  -5.020  0.00  0.00     0.222 C 
ATOM      7  N2  NON d   1     -45.672  17.176  -3.863  0.00  0.00    -0.326 N 
ATOM      8  H7  NON d   1     -45.176  17.352  -2.999  0.00  0.00     0.169 HD
ATOM      9  O1  NON d   1     -45.586  17.695  -6.124  0.00  0.00    -0.273 OA
BRANCH   7  10
ATOM     10  C6  NON d   1     -47.001  16.690  -3.716  0.00  0.00     0.055 A 
ATOM     11  C5  NON d   1     -47.457  16.588  -2.389  0.00  0.00     0.031 A 
ATOM     12  C4  NON d   1     -48.742  16.122  -2.097  0.00  0.00     0.002 A 
ATOM     13  C3  NON d   1     -49.579  15.715  -3.126  0.00  0.00     0.002 A 
ATOM     14  C2  NON d   1     -49.131  15.780  -4.444  0.00  0.00     0.025 A 
ATOM     15  C1  NON d   1     -47.865  16.301  -4.768  0.00  0.00     0.033 A 
BRANCH  15  16
ATOM     16  N1  NON d   1     -47.438  16.130  -6.102  0.00  0.00    -0.301 NA
ATOM     17  H1  NON d   1     -47.546  16.964  -6.668  0.00  0.00     0.124 HD
ATOM     18  H2  NON d   1     -46.460  15.823  -6.133  0.00  0.00     0.124 HD
ENDBRANCH  15  16
ENDBRANCH   7  10
ENDBRANCH   5   6
ENDBRANCH   4   5
ENDBRANCH   3   4
ENDBRANCH   2   3
ENDBRANCH   1   2
BRANCH   1  19
ATOM     19  C13 NON d   1     -38.240  18.347  -3.473  0.00  0.00     0.103 C 
BRANCH  19  20
ATOM     20  C14 NON d   1     -37.993  19.787  -3.034  0.00  0.00     0.222 C 
ATOM     21  O2  NON d   1     -37.321  20.542  -3.735  0.00  0.00    -0.273 OA
ATOM     22  N3  NON d   1     -38.585  20.119  -1.823  0.00  0.00    -0.327 N 
ATOM     23  H20 NON d   1     -39.042  19.378  -1.306  0.00  0.00     0.169 HD
BRANCH  22  24
ATOM     24  C15 NON d   1     -38.549  21.400  -1.206  0.00  0.00     0.035 A 
ATOM     25  C16 NON d   1     -37.771  21.671  -0.082  0.00  0.00     0.029 A 
ATOM     26  C17 NON d   1     -37.785  22.929   0.500  0.00  0.00     0.003 A 
ATOM     27  C18 NON d   1     -38.574  23.942  -0.040  0.00  0.00     0.012 A 
ATOM     28  C19 NON d   1     -39.360  23.748  -1.193  0.00  0.00    -0.024 A 
ATOM     29  C26 NON d   1     -39.321  22.446  -1.759  0.00  0.00     0.042 A 
BRANCH  28  30
ATOM     30  C20 NON d   1     -40.182  24.871  -1.761  0.00  0.00    -0.026 A 
ATOM     31  C21 NON d   1     -40.489  24.944  -3.139  0.00  0.00     0.012 A 
ATOM     32  C22 NON d   1     -41.241  25.987  -3.694  0.00  0.00     0.001 A 
ATOM     33  C23 NON d   1     -41.732  26.996  -2.880  0.00  0.00     0.000 A 
ATOM     34  C24 NON d   1     -41.461  26.960  -1.519  0.00  0.00     0.001 A 
ATOM     35  C25 NON d   1     -40.695  25.917  -0.970  0.00  0.00     0.012 A 
ENDBRANCH  28  30
ENDBRANCH  22  24
ENDBRANCH  19  20
ENDBRANCH   1  19
TORSDOF 11
ENDMDL
MODEL 9
REMARK VINA RESULT:   -32.640      4.327      7.025
REMARK INTER + INTRA:         -37.934
REMARK INTER:                 -35.921
REMARK INTRA:                  -2.012
REMARK CONF_INDEPENDENT:        3.281
REMARK UNBOUND:                -2.012
REMARK  11 active torsions:
REMARK  status: ('A' for Active; 'I' for Inactive)
REMARK    1  A    between atoms: N1_1  and  C1_2 
REMARK    2  A    between atoms: C6_7  and  N2_8 
REMARK       I    between atoms: N2_8  and  C7_9 
REMARK    3  A    between atoms: C7_9  and  C8_11 
REMARK    4  A    between atoms: C8_11  and  C9_12 
REMARK    5  A    between atoms: C9_12  and  C10_13 
REMARK    6  A    between atoms: C10_13  and  C11_14 
REMARK    7  A    between atoms: C11_14  and  C12_15 
REMARK    8  A    between atoms: C12_15  and  C13_16 
REMARK    9  A    between atoms: C13_16  and  C14_17 
REMARK       I    between atoms: C14_17  and  N3_19 
REMARK   10  A    between atoms: N3_19  and  C15_20 
REMARK   11  A    between atoms: C19_24  and  C20_25 
ROOT
ATOM      1  C12 NON d   1     -39.376  18.514  -3.447  0.00  0.00     0.009 C 
ENDROOT
BRANCH   1   2
ATOM      2  C11 NON d   1     -40.792  18.044  -3.772  0.00  0.00     0.000 C 
BRANCH   2   3
ATOM      3  C10 NON d   1     -41.550  18.933  -4.769  0.00  0.00     0.000 C 
BRANCH   3   4
ATOM      4  C9  NON d   1     -42.941  18.419  -5.126  0.00  0.00     0.009 C 
BRANCH   4   5
ATOM      5  C8  NON d   1     -43.364  17.147  -4.387  0.00  0.00     0.103 C 
BRANCH   5   6
ATOM      6  C7  NON d   1     -44.824  16.829  -4.679  0.00  0.00     0.222 C 
ATOM      7  N2  NON d   1     -45.635  16.953  -3.570  0.00  0.00    -0.326 N 
ATOM      8  H7  NON d   1     -45.226  17.410  -2.765  0.00  0.00     0.169 HD
ATOM      9  O1  NON d   1     -45.199  16.525  -5.809  0.00  0.00    -0.273 OA
BRANCH   7  10
ATOM     10  C6  NON d   1     -47.031  16.689  -3.479  0.00  0.00     0.055 A 
ATOM     11  C5  NON d   1     -47.558  16.704  -2.175  0.00  0.00     0.031 A 
ATOM     12  C4  NON d   1     -48.913  16.458  -1.937  0.00  0.00     0.002 A 
ATOM     13  C3  NON d   1     -49.756  16.157  -2.998  0.00  0.00     0.002 A 
ATOM     14  C2  NON d   1     -49.243  16.108  -4.292  0.00  0.00     0.025 A 
ATOM     15  C1  NON d   1     -47.896  16.409  -4.564  0.00  0.00     0.033 A 
BRANCH  15  16
ATOM     16  N1  NON d   1     -47.440  16.130  -5.870  0.00  0.00    -0.301 NA
ATOM     17  H1  NON d   1     -46.838  16.853  -6.248  0.00  0.00     0.124 HD
ATOM     18  H2  NON d   1     -46.949  15.230  -5.898  0.00  0.00     0.124 HD
ENDBRANCH  15  16
ENDBRANCH   7  10
ENDBRANCH   5   6
ENDBRANCH   4   5
ENDBRANCH   3   4
ENDBRANCH   2   3
ENDBRANCH   1   2
BRANCH   1  19
ATOM     19  C13 NON d   1     -39.272  19.794  -2.604  0.00  0.00     0.103 C 
BRANCH  19  20
ATOM     20  C14 NON d   1     -38.928  20.969  -3.515  0.00  0.00     0.222 C 
ATOM     21  O2  NON d   1     -37.761  21.177  -3.844  0.00  0.00    -0.273 OA
ATOM     22  N3  NON d   1     -40.026  21.726  -3.902  0.00  0.00    -0.327 N 
ATOM     23  H20 NON d   1     -40.922  21.496  -3.491  0.00  0.00     0.169 HD
BRANCH  22  24
ATOM     24  C15 NON d   1     -39.994  22.846  -4.778  0.00  0.00     0.035 A 
ATOM     25  C16 NON d   1     -40.133  24.157  -4.326  0.00  0.00     0.029 A 
ATOM     26  C17 NON d   1     -40.120  25.217  -5.220  0.00  0.00     0.003 A 
ATOM     27  C18 NON d   1     -39.956  24.982  -6.583  0.00  0.00     0.012 A 
ATOM     28  C19 NON d   1     -39.776  23.686  -7.106  0.00  0.00    -0.024 A 
ATOM     29  C26 NON d   1     -39.799  22.626  -6.159  0.00  0.00     0.042 A 
BRANCH  28  30
ATOM     30  C20 NON d   1     -39.581  23.472  -8.580  0.00  0.00    -0.026 A 
ATOM     31  C21 NON d   1     -40.308  24.211  -9.541  0.00  0.00     0.012 A 
ATOM     32  C22 NON d   1     -40.154  24.020 -10.920  0.00  0.00     0.001 A 
ATOM     33  C23 NON d   1     -39.245  23.086 -11.392  0.00  0.00     0.000 A 
ATOM     34  C24 NON d   1     -38.504  22.343 -10.484  0.00  0.00     0.001 A 
ATOM     35  C25 NON d   1     -38.672  22.530  -9.102  0.00  0.00     0.012 A 
ENDBRANCH  28  30
ENDBRANCH  22  24
ENDBRANCH  19  20
ENDBRANCH   1  19
TORSDOF 11
ENDMDL
