MODEL 1
REMARK VINA RESULT:   -16.113      0.000      0.000
REMARK INTER + INTRA:         -18.938
REMARK INTER:                 -17.604
REMARK INTRA:                  -1.334
REMARK CONF_INDEPENDENT:        1.492
REMARK UNBOUND:                -1.334
REMARK  5 active torsions:
REMARK  status: ('A' for Active; 'I' for Inactive)
REMARK    1  A    between atoms: C2_2  and  N1_3 
REMARK    2  A    between atoms: C2_2  and  C9_15 
REMARK       I    between atoms: N1_3  and  C3_4 
REMARK    3  A    between atoms: C3_4  and  C4_6 
REMARK    4  A    between atoms: C7_9  and  C8_10 
REMARK       I    between atoms: C8_10  and  N2_12 
REMARK    5  A    between atoms: N2_12  and  O3_13 
ROOT
ATOM      1  N1  NON d   1     -42.520  19.169  -4.661  0.00  0.00    -0.348 N 
ATOM      2  C3  NON d   1     -43.750  19.145  -5.316  0.00  0.00     0.259 C 
ATOM      3  O1  NON d   1     -44.001  19.837  -6.295  0.00  0.00    -0.267 OA
ATOM      4  H5  NON d   1     -42.431  18.525  -3.889  0.00  0.00     0.163 HD
ENDROOT
BRANCH   2   5
ATOM      5  C4  NON d   1     -44.672  18.140  -4.812  0.00  0.00     0.073 A 
ATOM      6  C5  NON d   1     -44.687  17.459  -3.613  0.00  0.00     0.026 A 
ATOM      7  C6  NON d   1     -45.751  16.504  -3.552  0.00  0.00     0.026 A 
ATOM      8  C7  NON d   1     -46.501  16.465  -4.715  0.00  0.00     0.075 A 
ATOM      9  S1  NON d   1     -45.940  17.628  -5.841  0.00  0.00    -0.079 SA
BRANCH   8  10
ATOM     10  C8  NON d   1     -47.622  15.615  -5.087  0.00  0.00     0.281 C 
ATOM     11  O2  NON d   1     -47.772  15.075  -6.185  0.00  0.00    -0.265 OA
ATOM     12  N2  NON d   1     -48.583  15.443  -4.108  0.00  0.00    -0.233 N 
ATOM     13  H8  NON d   1     -48.693  16.096  -3.342  0.00  0.00     0.197 HD
BRANCH  12  14
ATOM     14  O3  NON d   1     -49.753  14.751  -4.508  0.00  0.00    -0.287 OA
ATOM     15  H9  NON d   1     -49.613  14.633  -5.475  0.00  0.00     0.244 HD
ENDBRANCH  12  14
ENDBRANCH   8  10
ENDBRANCH   2   5
BRANCH   1  16
ATOM     16  C2  NON d   1     -41.196  19.334  -5.418  0.00  0.00     0.114 C 
ATOM     17  C1  NON d   1     -40.621  20.832  -5.443  0.00  0.00     0.037 C 
BRANCH  16  18
ATOM     18  C9  NON d   1     -40.196  18.842  -4.354  0.00  0.00    -0.036 A 
ATOM     19  C10 NON d   1     -38.840  19.194  -4.520  0.00  0.00     0.009 A 
ATOM     20  C11 NON d   1     -37.859  18.776  -3.615  0.00  0.00     0.001 A 
ATOM     21  C12 NON d   1     -38.199  17.952  -2.547  0.00  0.00     0.000 A 
ATOM     22  C13 NON d   1     -39.522  17.564  -2.374  0.00  0.00     0.001 A 
ATOM     23  C14 NON d   1     -40.510  18.017  -3.255  0.00  0.00     0.009 A 
ENDBRANCH  16  18
ENDBRANCH   1  16
TORSDOF 5
ENDMDL
MODEL 2
REMARK VINA RESULT:   -15.825      1.577      2.610
REMARK INTER + INTRA:         -18.879
REMARK INTER:                 -17.317
REMARK INTRA:                  -1.562
REMARK CONF_INDEPENDENT:        1.492
REMARK UNBOUND:                -1.562
REMARK  5 active torsions:
REMARK  status: ('A' for Active; 'I' for Inactive)
REMARK    1  A    between atoms: C2_2  and  N1_3 
REMARK    2  A    between atoms: C2_2  and  C9_15 
REMARK       I    between atoms: N1_3  and  C3_4 
REMARK    3  A    between atoms: C3_4  and  C4_6 
REMARK    4  A    between atoms: C7_9  and  C8_10 
REMARK       I    between atoms: C8_10  and  N2_12 
REMARK    5  A    between atoms: N2_12  and  O3_13 
ROOT
ATOM      1  N1  NON d   1     -43.063  19.473  -5.109  0.00  0.00    -0.348 N 
ATOM      2  C3  NON d   1     -43.124  18.081  -5.097  0.00  0.00     0.259 C 
ATOM      3  O1  NON d   1     -42.163  17.366  -5.357  0.00  0.00    -0.267 OA
ATOM      4  H5  NON d   1     -43.916  19.942  -4.842  0.00  0.00     0.163 HD
ENDROOT
BRANCH   2   5
ATOM      5  C4  NON d   1     -44.394  17.545  -4.634  0.00  0.00     0.073 A 
ATOM      6  C5  NON d   1     -44.831  17.252  -3.359  0.00  0.00     0.026 A 
ATOM      7  C6  NON d   1     -46.142  16.677  -3.360  0.00  0.00     0.026 A 
ATOM      8  C7  NON d   1     -46.656  16.522  -4.636  0.00  0.00     0.075 A 
ATOM      9  S1  NON d   1     -45.566  17.131  -5.810  0.00  0.00    -0.079 SA
BRANCH   8  10
ATOM     10  C8  NON d   1     -47.912  15.940  -5.083  0.00  0.00     0.281 C 
ATOM     11  O2  NON d   1     -48.433  16.130  -6.185  0.00  0.00    -0.265 OA
ATOM     12  N2  NON d   1     -48.549  15.131  -4.161  0.00  0.00    -0.233 N 
ATOM     13  H8  NON d   1     -48.365  15.199  -3.168  0.00  0.00     0.197 HD
BRANCH  12  14
ATOM     14  O3  NON d   1     -49.846  14.688  -4.523  0.00  0.00    -0.287 OA
ATOM     15  H9  NON d   1     -49.833  14.764  -5.503  0.00  0.00     0.244 HD
ENDBRANCH  12  14
ENDBRANCH   8  10
ENDBRANCH   2   5
BRANCH   1  16
ATOM     16  C2  NON d   1     -41.821  20.239  -4.635  0.00  0.00     0.114 C 
ATOM     17  C1  NON d   1     -40.925  19.460  -3.556  0.00  0.00     0.037 C 
BRANCH  16  18
ATOM     18  C9  NON d   1     -40.857  19.970  -5.805  0.00  0.00    -0.036 A 
ATOM     19  C10 NON d   1     -41.316  20.253  -7.110  0.00  0.00     0.009 A 
ATOM     20  C11 NON d   1     -40.516  20.022  -8.233  0.00  0.00     0.001 A 
ATOM     21  C12 NON d   1     -39.255  19.453  -8.088  0.00  0.00     0.000 A 
ATOM     22  C13 NON d   1     -38.787  19.135  -6.819  0.00  0.00     0.001 A 
ATOM     23  C14 NON d   1     -39.569  19.406  -5.692  0.00  0.00     0.009 A 
ENDBRANCH  16  18
ENDBRANCH   1  16
TORSDOF 5
ENDMDL
MODEL 3
REMARK VINA RESULT:   -15.782      1.008      1.175
REMARK INTER + INTRA:         -18.671
REMARK INTER:                 -17.273
REMARK INTRA:                  -1.398
REMARK CONF_INDEPENDENT:        1.492
REMARK UNBOUND:                -1.398
REMARK  5 active torsions:
REMARK  status: ('A' for Active; 'I' for Inactive)
REMARK    1  A    between atoms: C2_2  and  N1_3 
REMARK    2  A    between atoms: C2_2  and  C9_15 
REMARK       I    between atoms: N1_3  and  C3_4 
REMARK    3  A    between atoms: C3_4  and  C4_6 
REMARK    4  A    between atoms: C7_9  and  C8_10 
REMARK       I    between atoms: C8_10  and  N2_12 
REMARK    5  A    between atoms: N2_12  and  O3_13 
ROOT
ATOM      1  N1  NON d   1     -42.521  18.940  -4.560  0.00  0.00    -0.348 N 
ATOM      2  C3  NON d   1     -43.751  18.998  -5.212  0.00  0.00     0.259 C 
ATOM      3  O1  NON d   1     -43.965  19.724  -6.176  0.00  0.00    -0.267 OA
ATOM      4  H5  NON d   1     -42.468  18.276  -3.802  0.00  0.00     0.163 HD
ENDROOT
BRANCH   2   5
ATOM      5  C4  NON d   1     -44.728  18.037  -4.726  0.00  0.00     0.073 A 
ATOM      6  C5  NON d   1     -44.840  17.416  -3.500  0.00  0.00     0.026 A 
ATOM      7  C6  NON d   1     -45.926  16.484  -3.468  0.00  0.00     0.026 A 
ATOM      8  C7  NON d   1     -46.595  16.402  -4.677  0.00  0.00     0.075 A 
ATOM      9  S1  NON d   1     -45.933  17.498  -5.816  0.00  0.00    -0.079 SA
BRANCH   8  10
ATOM     10  C8  NON d   1     -47.706  15.556  -5.086  0.00  0.00     0.281 C 
ATOM     11  O2  NON d   1     -47.815  15.005  -6.184  0.00  0.00    -0.265 OA
ATOM     12  N2  NON d   1     -48.706  15.400  -4.145  0.00  0.00    -0.233 N 
ATOM     13  H8  NON d   1     -48.844  16.062  -3.391  0.00  0.00     0.197 HD
BRANCH  12  14
ATOM     14  O3  NON d   1     -49.864  14.712  -4.586  0.00  0.00    -0.287 OA
ATOM     15  H9  NON d   1     -49.735  14.676  -5.560  0.00  0.00     0.244 HD
ENDBRANCH  12  14
ENDBRANCH   8  10
ENDBRANCH   2   5
BRANCH   1  16
ATOM     16  C2  NON d   1     -41.191  19.046  -5.317  0.00  0.00     0.114 C 
ATOM     17  C1  NON d   1     -40.963  20.440  -6.078  0.00  0.00     0.037 C 
BRANCH  16  18
ATOM     18  C9  NON d   1     -40.231  19.385  -4.161  0.00  0.00    -0.036 A 
ATOM     19  C10 NON d   1     -40.392  20.633  -3.523  0.00  0.00     0.009 A 
ATOM     20  C11 NON d   1     -39.554  21.034  -2.477  0.00  0.00     0.001 A 
ATOM     21  C12 NON d   1     -38.500  20.220  -2.075  0.00  0.00     0.000 A 
ATOM     22  C13 NON d   1     -38.297  18.998  -2.705  0.00  0.00     0.001 A 
ATOM     23  C14 NON d   1     -39.161  18.578  -3.721  0.00  0.00     0.009 A 
ENDBRANCH  16  18
ENDBRANCH   1  16
TORSDOF 5
ENDMDL
MODEL 4
REMARK VINA RESULT:   -13.883      2.138      3.451
REMARK INTER + INTRA:         -17.046
REMARK INTER:                 -15.374
REMARK INTRA:                  -1.672
REMARK CONF_INDEPENDENT:        1.492
REMARK UNBOUND:                -1.672
REMARK  5 active torsions:
REMARK  status: ('A' for Active; 'I' for Inactive)
REMARK    1  A    between atoms: C2_2  and  N1_3 
REMARK    2  A    between atoms: C2_2  and  C9_15 
REMARK       I    between atoms: N1_3  and  C3_4 
REMARK    3  A    between atoms: C3_4  and  C4_6 
REMARK    4  A    between atoms: C7_9  and  C8_10 
REMARK       I    between atoms: C8_10  and  N2_12 
REMARK    5  A    between atoms: N2_12  and  O3_13 
ROOT
ATOM      1  N1  NON d   1     -40.325  19.196  -3.934  0.00  0.00    -0.348 N 
ATOM      2  C3  NON d   1     -41.622  19.651  -4.163  0.00  0.00     0.259 C 
ATOM      3  O1  NON d   1     -41.899  20.836  -4.313  0.00  0.00    -0.267 OA
ATOM      4  H5  NON d   1     -40.228  18.194  -3.862  0.00  0.00     0.163 HD
ENDROOT
BRANCH   2   5
ATOM      5  C4  NON d   1     -42.604  18.592  -4.326  0.00  0.00     0.073 A 
ATOM      6  C5  NON d   1     -42.531  17.249  -4.023  0.00  0.00     0.026 A 
ATOM      7  C6  NON d   1     -43.718  16.547  -4.407  0.00  0.00     0.026 A 
ATOM      8  C7  NON d   1     -44.651  17.370  -5.016  0.00  0.00     0.075 A 
ATOM      9  S1  NON d   1     -44.098  18.990  -5.060  0.00  0.00    -0.079 SA
BRANCH   8  10
ATOM     10  C8  NON d   1     -45.949  17.057  -5.596  0.00  0.00     0.281 C 
ATOM     11  O2  NON d   1     -46.671  17.856  -6.196  0.00  0.00    -0.265 OA
ATOM     12  N2  NON d   1     -46.377  15.755  -5.418  0.00  0.00    -0.233 N 
ATOM     13  H8  NON d   1     -46.013  15.165  -4.680  0.00  0.00     0.197 HD
BRANCH  12  14
ATOM     14  O3  NON d   1     -47.703  15.480  -5.836  0.00  0.00    -0.287 OA
ATOM     15  H9  NON d   1     -47.835  16.123  -6.569  0.00  0.00     0.244 HD
ENDBRANCH  12  14
ENDBRANCH   8  10
ENDBRANCH   2   5
BRANCH   1  16
ATOM     16  C2  NON d   1     -39.105  19.838  -4.607  0.00  0.00     0.114 C 
ATOM     17  C1  NON d   1     -37.901  18.822  -4.918  0.00  0.00     0.037 C 
BRANCH  16  18
ATOM     18  C9  NON d   1     -39.585  19.901  -6.069  0.00  0.00    -0.036 A 
ATOM     19  C10 NON d   1     -39.347  18.774  -6.885  0.00  0.00     0.009 A 
ATOM     20  C11 NON d   1     -39.730  18.750  -8.229  0.00  0.00     0.001 A 
ATOM     21  C12 NON d   1     -40.317  19.871  -8.809  0.00  0.00     0.000 A 
ATOM     22  C13 NON d   1     -40.538  21.006  -8.039  0.00  0.00     0.001 A 
ATOM     23  C14 NON d   1     -40.193  21.015  -6.683  0.00  0.00     0.009 A 
ENDBRANCH  16  18
ENDBRANCH   1  16
TORSDOF 5
ENDMDL
MODEL 5
REMARK VINA RESULT:   -13.527      1.612      2.032
REMARK INTER + INTRA:         -16.393
REMARK INTER:                 -15.019
REMARK INTRA:                  -1.374
REMARK CONF_INDEPENDENT:        1.492
REMARK UNBOUND:                -1.374
REMARK  5 active torsions:
REMARK  status: ('A' for Active; 'I' for Inactive)
REMARK    1  A    between atoms: C2_2  and  N1_3 
REMARK    2  A    between atoms: C2_2  and  C9_15 
REMARK       I    between atoms: N1_3  and  C3_4 
REMARK    3  A    between atoms: C3_4  and  C4_6 
REMARK    4  A    between atoms: C7_9  and  C8_10 
REMARK       I    between atoms: C8_10  and  N2_12 
REMARK    5  A    between atoms: N2_12  and  O3_13 
ROOT
ATOM      1  N1  NON d   1     -44.184  18.203  -4.722  0.00  0.00    -0.348 N 
ATOM      2  C3  NON d   1     -45.374  17.921  -5.388  0.00  0.00     0.259 C 
ATOM      3  O1  NON d   1     -45.575  18.225  -6.559  0.00  0.00    -0.267 OA
ATOM      4  H5  NON d   1     -44.134  17.869  -3.771  0.00  0.00     0.163 HD
ENDROOT
BRANCH   2   5
ATOM      5  C4  NON d   1     -46.317  17.131  -4.614  0.00  0.00     0.073 A 
ATOM      6  C5  NON d   1     -46.227  16.634  -3.331  0.00  0.00     0.026 A 
ATOM      7  C6  NON d   1     -47.370  15.848  -2.979  0.00  0.00     0.026 A 
ATOM      8  C7  NON d   1     -48.286  15.745  -4.012  0.00  0.00     0.075 A 
ATOM      9  S1  NON d   1     -47.774  16.651  -5.373  0.00  0.00    -0.079 SA
BRANCH   8  10
ATOM     10  C8  NON d   1     -49.538  15.007  -4.093  0.00  0.00     0.281 C 
ATOM     11  O2  NON d   1     -49.863  14.256  -5.015  0.00  0.00    -0.265 OA
ATOM     12  N2  NON d   1     -50.412  15.210  -3.041  0.00  0.00    -0.233 N 
ATOM     13  H8  NON d   1     -50.362  16.032  -2.452  0.00  0.00     0.197 HD
BRANCH  12  14
ATOM     14  O3  NON d   1     -51.695  14.626  -3.186  0.00  0.00    -0.287 OA
ATOM     15  H9  NON d   1     -51.569  14.016  -3.947  0.00  0.00     0.244 HD
ENDBRANCH  12  14
ENDBRANCH   8  10
ENDBRANCH   2   5
BRANCH   1  16
ATOM     16  C2  NON d   1     -42.820  18.129  -5.421  0.00  0.00     0.114 C 
ATOM     17  C1  NON d   1     -42.368  19.485  -6.152  0.00  0.00     0.037 C 
BRANCH  16  18
ATOM     18  C9  NON d   1     -41.873  18.321  -4.221  0.00  0.00    -0.036 A 
ATOM     19  C10 NON d   1     -40.641  18.967  -4.458  0.00  0.00     0.009 A 
ATOM     20  C11 NON d   1     -39.711  19.167  -3.433  0.00  0.00     0.001 A 
ATOM     21  C12 NON d   1     -39.965  18.680  -2.154  0.00  0.00     0.000 A 
ATOM     22  C13 NON d   1     -41.156  18.013  -1.898  0.00  0.00     0.001 A 
ATOM     23  C14 NON d   1     -42.105  17.851  -2.912  0.00  0.00     0.009 A 
ENDBRANCH  16  18
ENDBRANCH   1  16
TORSDOF 5
ENDMDL
MODEL 6
REMARK VINA RESULT:   -13.197      2.776      3.052
REMARK INTER + INTRA:         -16.039
REMARK INTER:                 -14.688
REMARK INTRA:                  -1.351
REMARK CONF_INDEPENDENT:        1.492
REMARK UNBOUND:                -1.351
REMARK  5 active torsions:
REMARK  status: ('A' for Active; 'I' for Inactive)
REMARK    1  A    between atoms: C2_2  and  N1_3 
REMARK    2  A    between atoms: C2_2  and  C9_15 
REMARK       I    between atoms: N1_3  and  C3_4 
REMARK    3  A    between atoms: C3_4  and  C4_6 
REMARK    4  A    between atoms: C7_9  and  C8_10 
REMARK       I    between atoms: C8_10  and  N2_12 
REMARK    5  A    between atoms: N2_12  and  O3_13 
ROOT
ATOM      1  N1  NON d   1     -41.061  19.906  -3.373  0.00  0.00    -0.348 N 
ATOM      2  C3  NON d   1     -41.808  19.813  -4.546  0.00  0.00     0.259 C 
ATOM      3  O1  NON d   1     -41.572  20.482  -5.545  0.00  0.00    -0.267 OA
ATOM      4  H5  NON d   1     -41.338  19.274  -2.636  0.00  0.00     0.163 HD
ENDROOT
BRANCH   2   5
ATOM      5  C4  NON d   1     -42.818  18.767  -4.526  0.00  0.00     0.073 A 
ATOM      6  C5  NON d   1     -42.803  17.518  -3.942  0.00  0.00     0.026 A 
ATOM      7  C6  NON d   1     -43.997  16.780  -4.224  0.00  0.00     0.026 A 
ATOM      8  C7  NON d   1     -44.875  17.476  -5.037  0.00  0.00     0.075 A 
ATOM      9  S1  NON d   1     -44.266  19.036  -5.398  0.00  0.00    -0.079 SA
BRANCH   8  10
ATOM     10  C8  NON d   1     -46.158  17.078  -5.597  0.00  0.00     0.281 C 
ATOM     11  O2  NON d   1     -46.941  17.829  -6.185  0.00  0.00    -0.265 OA
ATOM     12  N2  NON d   1     -46.496  15.751  -5.416  0.00  0.00    -0.233 N 
ATOM     13  H8  NON d   1     -46.082  15.185  -4.685  0.00  0.00     0.197 HD
BRANCH  12  14
ATOM     14  O3  NON d   1     -47.807  15.389  -5.814  0.00  0.00    -0.287 OA
ATOM     15  H9  NON d   1     -47.969  15.981  -6.583  0.00  0.00     0.244 HD
ENDBRANCH  12  14
ENDBRANCH   8  10
ENDBRANCH   2   5
BRANCH   1  16
ATOM     16  C2  NON d   1     -39.544  20.131  -3.388  0.00  0.00     0.114 C 
ATOM     17  C1  NON d   1     -39.057  21.351  -4.310  0.00  0.00     0.037 C 
BRANCH  16  18
ATOM     18  C9  NON d   1     -39.356  20.900  -2.066  0.00  0.00    -0.036 A 
ATOM     19  C10 NON d   1     -38.176  20.656  -1.331  0.00  0.00     0.009 A 
ATOM     20  C11 NON d   1     -37.930  21.294  -0.110  0.00  0.00     0.001 A 
ATOM     21  C12 NON d   1     -38.880  22.154   0.433  0.00  0.00     0.000 A 
ATOM     22  C13 NON d   1     -40.065  22.390  -0.254  0.00  0.00     0.001 A 
ATOM     23  C14 NON d   1     -40.292  21.786  -1.494  0.00  0.00     0.009 A 
ENDBRANCH  16  18
ENDBRANCH   1  16
TORSDOF 5
ENDMDL
