MODEL 1
REMARK VINA RESULT:   -17.389      0.000      0.000
REMARK INTER + INTRA:         -20.862
REMARK INTER:                 -19.478
REMARK INTRA:                  -1.385
REMARK CONF_INDEPENDENT:        2.088
REMARK UNBOUND:                -1.385
REMARK  7 active torsions:
REMARK  status: ('A' for Active; 'I' for Inactive)
REMARK       I    between atoms: C1_2  and  N1_3 
REMARK    1  A    between atoms: C1_2  and  C2_5 
REMARK    2  A    between atoms: N1_3  and  O2_4 
REMARK    3  A    between atoms: C7_10  and  C8_11 
REMARK    4  A    between atoms: C8_11  and  N2_12 
REMARK    5  A    between atoms: N2_12  and  C9_13 
REMARK    6  A    between atoms: C9_13  and  C10_14 
REMARK    7  A    between atoms: C10_14  and  C11_15 
ROOT
ATOM      1  C2  NON d   1     -46.208  16.499  -4.596  0.00  0.00     0.076 A 
ATOM      2  C3  NON d   1     -45.256  16.505  -3.592  0.00  0.00     0.037 A 
ATOM      3  C4  NON d   1     -44.195  17.448  -3.809  0.00  0.00    -0.018 A 
ATOM      4  C5  NON d   1     -43.062  17.765  -3.023  0.00  0.00     0.013 A 
ATOM      5  C6  NON d   1     -42.154  18.755  -3.432  0.00  0.00     0.010 A 
ATOM      6  C7  NON d   1     -42.343  19.438  -4.634  0.00  0.00    -0.031 A 
ATOM      7  C17 NON d   1     -43.470  19.129  -5.423  0.00  0.00     0.028 A 
ATOM      8  C18 NON d   1     -44.379  18.140  -5.002  0.00  0.00     0.016 A 
ATOM      9  S1  NON d   1     -45.801  17.630  -5.816  0.00  0.00    -0.084 SA
ENDROOT
BRANCH   6  10
ATOM     10  C8  NON d   1     -41.432  20.514  -5.166  0.00  0.00     0.270 C 
BRANCH  10  11
ATOM     11  N2  NON d   1     -39.985  20.167  -5.282  0.00  0.00    -0.071 N 
ATOM     12  H8  NON d   1     -39.569  20.264  -4.347  0.00  0.00     0.277 HD
ATOM     13  H9  NON d   1     -39.528  20.865  -5.881  0.00  0.00     0.277 HD
BRANCH  11  14
ATOM     14  C9  NON d   1     -39.674  18.778  -5.763  0.00  0.00     0.237 C 
BRANCH  14  15
ATOM     15  C10 NON d   1     -39.928  18.564  -7.263  0.00  0.00     0.066 C 
BRANCH  15  16
ATOM     16  C11 NON d   1     -39.381  19.576  -8.245  0.00  0.00    -0.057 A 
ATOM     17  C12 NON d   1     -38.058  19.421  -8.689  0.00  0.00     0.007 A 
ATOM     18  C13 NON d   1     -37.493  20.321  -9.596  0.00  0.00     0.001 A 
ATOM     19  C14 NON d   1     -38.240  21.395 -10.068  0.00  0.00     0.000 A 
ATOM     20  C15 NON d   1     -39.565  21.541  -9.670  0.00  0.00     0.001 A 
ATOM     21  C16 NON d   1     -40.143  20.618  -8.793  0.00  0.00     0.007 A 
ENDBRANCH  15  16
ENDBRANCH  14  15
ENDBRANCH  11  14
ENDBRANCH  10  11
ENDBRANCH   6  10
BRANCH   1  22
ATOM     22  C1  NON d   1     -47.440  15.720  -4.735  0.00  0.00     0.281 C 
ATOM     23  O1  NON d   1     -47.923  15.380  -5.810  0.00  0.00    -0.265 OA
ATOM     24  N1  NON d   1     -48.045  15.400  -3.528  0.00  0.00    -0.233 N 
ATOM     25  H1  NON d   1     -47.512  15.394  -2.670  0.00  0.00     0.197 HD
BRANCH  24  26
ATOM     26  O2  NON d   1     -49.069  14.428  -3.590  0.00  0.00    -0.287 OA
ATOM     27  H2  NON d   1     -49.422  14.559  -4.492  0.00  0.00     0.244 HD
ENDBRANCH  24  26
ENDBRANCH   1  22
TORSDOF 7
ENDMDL
MODEL 2
REMARK VINA RESULT:   -17.386      2.996      5.336
REMARK INTER + INTRA:         -20.703
REMARK INTER:                 -19.474
REMARK INTRA:                  -1.229
REMARK CONF_INDEPENDENT:        2.088
REMARK UNBOUND:                -1.229
REMARK  7 active torsions:
REMARK  status: ('A' for Active; 'I' for Inactive)
REMARK       I    between atoms: C1_2  and  N1_3 
REMARK    1  A    between atoms: C1_2  and  C2_5 
REMARK    2  A    between atoms: N1_3  and  O2_4 
REMARK    3  A    between atoms: C7_10  and  C8_11 
REMARK    4  A    between atoms: C8_11  and  N2_12 
REMARK    5  A    between atoms: N2_12  and  C9_13 
REMARK    6  A    between atoms: C9_13  and  C10_14 
REMARK    7  A    between atoms: C10_14  and  C11_15 
ROOT
ATOM      1  C2  NON d   1     -46.364  16.526  -4.601  0.00  0.00     0.076 A 
ATOM      2  C3  NON d   1     -45.415  16.487  -3.595  0.00  0.00     0.037 A 
ATOM      3  C4  NON d   1     -44.306  17.373  -3.815  0.00  0.00    -0.018 A 
ATOM      4  C5  NON d   1     -43.159  17.634  -3.028  0.00  0.00     0.013 A 
ATOM      5  C6  NON d   1     -42.200  18.574  -3.440  0.00  0.00     0.010 A 
ATOM      6  C7  NON d   1     -42.352  19.261  -4.645  0.00  0.00    -0.031 A 
ATOM      7  C17 NON d   1     -43.493  19.008  -5.434  0.00  0.00     0.028 A 
ATOM      8  C18 NON d   1     -44.452  18.069  -5.011  0.00  0.00     0.016 A 
ATOM      9  S1  NON d   1     -45.898  17.630  -5.825  0.00  0.00    -0.084 SA
ENDROOT
BRANCH   6  10
ATOM     10  C8  NON d   1     -41.387  20.287  -5.179  0.00  0.00     0.270 C 
BRANCH  10  11
ATOM     11  N2  NON d   1     -40.662  21.113  -4.168  0.00  0.00    -0.071 N 
ATOM     12  H8  NON d   1     -39.697  21.229  -4.501  0.00  0.00     0.277 HD
ATOM     13  H9  NON d   1     -40.610  20.584  -3.290  0.00  0.00     0.277 HD
BRANCH  11  14
ATOM     14  C9  NON d   1     -41.214  22.489  -3.920  0.00  0.00     0.237 C 
BRANCH  14  15
ATOM     15  C10 NON d   1     -40.382  23.328  -2.940  0.00  0.00     0.066 C 
BRANCH  15  16
ATOM     16  C11 NON d   1     -40.465  23.018  -1.462  0.00  0.00    -0.057 A 
ATOM     17  C12 NON d   1     -41.191  23.894  -0.640  0.00  0.00     0.007 A 
ATOM     18  C13 NON d   1     -41.306  23.664   0.734  0.00  0.00     0.001 A 
ATOM     19  C14 NON d   1     -40.690  22.558   1.307  0.00  0.00     0.000 A 
ATOM     20  C15 NON d   1     -40.000  21.656   0.502  0.00  0.00     0.001 A 
ATOM     21  C16 NON d   1     -39.919  21.865  -0.878  0.00  0.00     0.007 A 
ENDBRANCH  15  16
ENDBRANCH  14  15
ENDBRANCH  11  14
ENDBRANCH  10  11
ENDBRANCH   6  10
BRANCH   1  22
ATOM     22  C1  NON d   1     -47.635  15.812  -4.738  0.00  0.00     0.281 C 
ATOM     23  O1  NON d   1     -48.190  15.594  -5.810  0.00  0.00    -0.265 OA
ATOM     24  N1  NON d   1     -48.187  15.403  -3.533  0.00  0.00    -0.233 N 
ATOM     25  H1  NON d   1     -47.608  15.296  -2.711  0.00  0.00     0.197 HD
BRANCH  24  26
ATOM     26  O2  NON d   1     -49.254  14.481  -3.624  0.00  0.00    -0.287 OA
ATOM     27  H2  NON d   1     -49.500  14.544  -4.567  0.00  0.00     0.244 HD
ENDBRANCH  24  26
ENDBRANCH   1  22
TORSDOF 7
ENDMDL
MODEL 3
REMARK VINA RESULT:   -17.307      0.371      1.058
REMARK INTER + INTRA:         -20.793
REMARK INTER:                 -19.395
REMARK INTRA:                  -1.398
REMARK CONF_INDEPENDENT:        2.088
REMARK UNBOUND:                -1.398
REMARK  7 active torsions:
REMARK  status: ('A' for Active; 'I' for Inactive)
REMARK       I    between atoms: C1_2  and  N1_3 
REMARK    1  A    between atoms: C1_2  and  C2_5 
REMARK    2  A    between atoms: N1_3  and  O2_4 
REMARK    3  A    between atoms: C7_10  and  C8_11 
REMARK    4  A    between atoms: C8_11  and  N2_12 
REMARK    5  A    between atoms: N2_12  and  C9_13 
REMARK    6  A    between atoms: C9_13  and  C10_14 
REMARK    7  A    between atoms: C10_14  and  C11_15 
ROOT
ATOM      1  C2  NON d   1     -46.371  16.536  -4.588  0.00  0.00     0.076 A 
ATOM      2  C3  NON d   1     -45.432  16.497  -3.573  0.00  0.00     0.037 A 
ATOM      3  C4  NON d   1     -44.316  17.375  -3.786  0.00  0.00    -0.018 A 
ATOM      4  C5  NON d   1     -43.175  17.634  -2.990  0.00  0.00     0.013 A 
ATOM      5  C6  NON d   1     -42.207  18.566  -3.397  0.00  0.00     0.010 A 
ATOM      6  C7  NON d   1     -42.342  19.247  -4.607  0.00  0.00    -0.031 A 
ATOM      7  C17 NON d   1     -43.477  18.996  -5.406  0.00  0.00     0.028 A 
ATOM      8  C18 NON d   1     -44.446  18.065  -4.987  0.00  0.00     0.016 A 
ATOM      9  S1  NON d   1     -45.887  17.630  -5.813  0.00  0.00    -0.084 SA
ENDROOT
BRANCH   6  10
ATOM     10  C8  NON d   1     -41.366  20.263  -5.138  0.00  0.00     0.270 C 
BRANCH  10  11
ATOM     11  N2  NON d   1     -39.916  19.960  -4.947  0.00  0.00    -0.071 N 
ATOM     12  H8  NON d   1     -39.766  19.800  -3.943  0.00  0.00     0.277 HD
ATOM     13  H9  NON d   1     -39.371  20.794  -5.197  0.00  0.00     0.277 HD
BRANCH  11  14
ATOM     14  C9  NON d   1     -39.391  18.753  -5.672  0.00  0.00     0.237 C 
BRANCH  14  15
ATOM     15  C10 NON d   1     -39.827  18.668  -7.142  0.00  0.00     0.066 C 
BRANCH  15  16
ATOM     16  C11 NON d   1     -39.428  19.782  -8.085  0.00  0.00    -0.057 A 
ATOM     17  C12 NON d   1     -40.353  20.811  -8.325  0.00  0.00     0.007 A 
ATOM     18  C13 NON d   1     -40.047  21.867  -9.185  0.00  0.00     0.001 A 
ATOM     19  C14 NON d   1     -38.814  21.908  -9.826  0.00  0.00     0.000 A 
ATOM     20  C15 NON d   1     -37.870  20.919  -9.569  0.00  0.00     0.001 A 
ATOM     21  C16 NON d   1     -38.161  19.883  -8.677  0.00  0.00     0.007 A 
ENDBRANCH  15  16
ENDBRANCH  14  15
ENDBRANCH  11  14
ENDBRANCH  10  11
ENDBRANCH   6  10
BRANCH   1  22
ATOM     22  C1  NON d   1     -47.645  15.828  -4.734  0.00  0.00     0.281 C 
ATOM     23  O1  NON d   1     -48.190  15.606  -5.810  0.00  0.00    -0.265 OA
ATOM     24  N1  NON d   1     -48.212  15.431  -3.532  0.00  0.00    -0.233 N 
ATOM     25  H1  NON d   1     -47.643  15.327  -2.703  0.00  0.00     0.197 HD
BRANCH  24  26
ATOM     26  O2  NON d   1     -49.284  14.516  -3.627  0.00  0.00    -0.287 OA
ATOM     27  H2  NON d   1     -49.376  14.408  -4.594  0.00  0.00     0.244 HD
ENDBRANCH  24  26
ENDBRANCH   1  22
TORSDOF 7
ENDMDL
MODEL 4
REMARK VINA RESULT:   -16.571      1.526      2.120
REMARK INTER + INTRA:         -19.858
REMARK INTER:                 -18.659
REMARK INTRA:                  -1.199
REMARK CONF_INDEPENDENT:        2.088
REMARK UNBOUND:                -1.199
REMARK  7 active torsions:
REMARK  status: ('A' for Active; 'I' for Inactive)
REMARK       I    between atoms: C1_2  and  N1_3 
REMARK    1  A    between atoms: C1_2  and  C2_5 
REMARK    2  A    between atoms: N1_3  and  O2_4 
REMARK    3  A    between atoms: C7_10  and  C8_11 
REMARK    4  A    between atoms: C8_11  and  N2_12 
REMARK    5  A    between atoms: N2_12  and  C9_13 
REMARK    6  A    between atoms: C9_13  and  C10_14 
REMARK    7  A    between atoms: C10_14  and  C11_15 
ROOT
ATOM      1  C2  NON d   1     -46.324  16.542  -4.587  0.00  0.00     0.076 A 
ATOM      2  C3  NON d   1     -45.395  16.504  -3.562  0.00  0.00     0.037 A 
ATOM      3  C4  NON d   1     -44.274  17.378  -3.768  0.00  0.00    -0.018 A 
ATOM      4  C5  NON d   1     -43.141  17.637  -2.961  0.00  0.00     0.013 A 
ATOM      5  C6  NON d   1     -42.166  18.564  -3.362  0.00  0.00     0.010 A 
ATOM      6  C7  NON d   1     -42.288  19.241  -4.576  0.00  0.00    -0.031 A 
ATOM      7  C17 NON d   1     -43.415  18.991  -5.385  0.00  0.00     0.028 A 
ATOM      8  C18 NON d   1     -44.391  18.064  -4.973  0.00  0.00     0.016 A 
ATOM      9  S1  NON d   1     -45.825  17.630  -5.811  0.00  0.00    -0.084 SA
ENDROOT
BRANCH   6  10
ATOM     10  C8  NON d   1     -41.303  20.253  -5.101  0.00  0.00     0.270 C 
BRANCH  10  11
ATOM     11  N2  NON d   1     -40.716  21.195  -4.102  0.00  0.00    -0.071 N 
ATOM     12  H8  NON d   1     -39.751  20.892  -3.923  0.00  0.00     0.277 HD
ATOM     13  H9  NON d   1     -41.226  21.092  -3.216  0.00  0.00     0.277 HD
BRANCH  11  14
ATOM     14  C9  NON d   1     -40.659  22.641  -4.508  0.00  0.00     0.237 C 
BRANCH  14  15
ATOM     15  C10 NON d   1     -39.449  22.996  -5.384  0.00  0.00     0.066 C 
BRANCH  15  16
ATOM     16  C11 NON d   1     -39.623  23.028  -6.887  0.00  0.00    -0.057 A 
ATOM     17  C12 NON d   1     -39.715  21.804  -7.570  0.00  0.00     0.007 A 
ATOM     18  C13 NON d   1     -39.875  21.764  -8.957  0.00  0.00     0.001 A 
ATOM     19  C14 NON d   1     -39.938  22.948  -9.684  0.00  0.00     0.000 A 
ATOM     20  C15 NON d   1     -39.889  24.170  -9.020  0.00  0.00     0.001 A 
ATOM     21  C16 NON d   1     -39.769  24.209  -7.628  0.00  0.00     0.007 A 
ENDBRANCH  15  16
ENDBRANCH  14  15
ENDBRANCH  11  14
ENDBRANCH  10  11
ENDBRANCH   6  10
BRANCH   1  22
ATOM     22  C1  NON d   1     -47.598  15.838  -4.743  0.00  0.00     0.281 C 
ATOM     23  O1  NON d   1     -48.190  15.713  -5.810  0.00  0.00    -0.265 OA
ATOM     24  N1  NON d   1     -48.107  15.321  -3.560  0.00  0.00    -0.233 N 
ATOM     25  H1  NON d   1     -47.500  15.144  -2.772  0.00  0.00     0.197 HD
BRANCH  24  26
ATOM     26  O2  NON d   1     -49.176  14.407  -3.695  0.00  0.00    -0.287 OA
ATOM     27  H2  NON d   1     -49.277  14.352  -4.665  0.00  0.00     0.244 HD
ENDBRANCH  24  26
ENDBRANCH   1  22
TORSDOF 7
ENDMDL
MODEL 5
REMARK VINA RESULT:   -16.301      3.479      5.728
REMARK INTER + INTRA:         -19.927
REMARK INTER:                 -18.389
REMARK INTRA:                  -1.538
REMARK CONF_INDEPENDENT:        2.088
REMARK UNBOUND:                -1.538
REMARK  7 active torsions:
REMARK  status: ('A' for Active; 'I' for Inactive)
REMARK       I    between atoms: C1_2  and  N1_3 
REMARK    1  A    between atoms: C1_2  and  C2_5 
REMARK    2  A    between atoms: N1_3  and  O2_4 
REMARK    3  A    between atoms: C7_10  and  C8_11 
REMARK    4  A    between atoms: C8_11  and  N2_12 
REMARK    5  A    between atoms: N2_12  and  C9_13 
REMARK    6  A    between atoms: C9_13  and  C10_14 
REMARK    7  A    between atoms: C10_14  and  C11_15 
ROOT
ATOM      1  C2  NON d   1     -44.989  17.715  -5.128  0.00  0.00     0.076 A 
ATOM      2  C3  NON d   1     -44.355  18.933  -5.294  0.00  0.00     0.037 A 
ATOM      3  C4  NON d   1     -43.042  18.984  -4.714  0.00  0.00    -0.018 A 
ATOM      4  C5  NON d   1     -42.082  20.023  -4.683  0.00  0.00     0.013 A 
ATOM      5  C6  NON d   1     -40.834  19.835  -4.067  0.00  0.00     0.010 A 
ATOM      6  C7  NON d   1     -40.520  18.620  -3.456  0.00  0.00    -0.031 A 
ATOM      7  C17 NON d   1     -41.470  17.579  -3.484  0.00  0.00     0.028 A 
ATOM      8  C18 NON d   1     -42.716  17.773  -4.110  0.00  0.00     0.016 A 
ATOM      9  S1  NON d   1     -43.992  16.633  -4.251  0.00  0.00    -0.084 SA
ENDROOT
BRANCH   6  10
ATOM     10  C8  NON d   1     -39.216  18.313  -2.768  0.00  0.00     0.270 C 
BRANCH  10  11
ATOM     11  N2  NON d   1     -38.744  19.306  -1.758  0.00  0.00    -0.071 N 
ATOM     12  H8  NON d   1     -38.070  18.827  -1.147  0.00  0.00     0.277 HD
ATOM     13  H9  NON d   1     -39.539  19.574  -1.166  0.00  0.00     0.277 HD
BRANCH  11  14
ATOM     14  C9  NON d   1     -38.058  20.528  -2.301  0.00  0.00     0.237 C 
BRANCH  14  15
ATOM     15  C10 NON d   1     -38.954  21.774  -2.357  0.00  0.00     0.066 C 
BRANCH  15  16
ATOM     16  C11 NON d   1     -39.666  22.216  -1.098  0.00  0.00    -0.057 A 
ATOM     17  C12 NON d   1     -40.696  23.165  -1.216  0.00  0.00     0.007 A 
ATOM     18  C13 NON d   1     -41.392  23.615  -0.092  0.00  0.00     0.001 A 
ATOM     19  C14 NON d   1     -41.065  23.129   1.169  0.00  0.00     0.000 A 
ATOM     20  C15 NON d   1     -40.076  22.160   1.301  0.00  0.00     0.001 A 
ATOM     21  C16 NON d   1     -39.406  21.680   0.171  0.00  0.00     0.007 A 
ENDBRANCH  15  16
ENDBRANCH  14  15
ENDBRANCH  11  14
ENDBRANCH  10  11
ENDBRANCH   6  10
BRANCH   1  22
ATOM     22  C1  NON d   1     -46.300  17.254  -5.588  0.00  0.00     0.281 C 
ATOM     23  O1  NON d   1     -47.066  17.926  -6.270  0.00  0.00    -0.265 OA
ATOM     24  N1  NON d   1     -46.626  15.971  -5.173  0.00  0.00    -0.233 N 
ATOM     25  H1  NON d   1     -45.903  15.319  -4.900  0.00  0.00     0.197 HD
BRANCH  24  26
ATOM     26  O2  NON d   1     -47.740  15.380  -5.810  0.00  0.00    -0.287 OA
ATOM     27  H2  NON d   1     -47.881  15.976  -6.571  0.00  0.00     0.244 HD
ENDBRANCH  24  26
ENDBRANCH   1  22
TORSDOF 7
ENDMDL
MODEL 6
REMARK VINA RESULT:   -16.199      4.291      6.312
REMARK INTER + INTRA:         -19.450
REMARK INTER:                 -18.288
REMARK INTRA:                  -1.162
REMARK CONF_INDEPENDENT:        2.088
REMARK UNBOUND:                -1.162
REMARK  7 active torsions:
REMARK  status: ('A' for Active; 'I' for Inactive)
REMARK       I    between atoms: C1_2  and  N1_3 
REMARK    1  A    between atoms: C1_2  and  C2_5 
REMARK    2  A    between atoms: N1_3  and  O2_4 
REMARK    3  A    between atoms: C7_10  and  C8_11 
REMARK    4  A    between atoms: C8_11  and  N2_12 
REMARK    5  A    between atoms: N2_12  and  C9_13 
REMARK    6  A    between atoms: C9_13  and  C10_14 
REMARK    7  A    between atoms: C10_14  and  C11_15 
ROOT
ATOM      1  C2  NON d   1     -44.783  17.493  -4.982  0.00  0.00     0.076 A 
ATOM      2  C3  NON d   1     -43.982  16.788  -4.101  0.00  0.00     0.037 A 
ATOM      3  C4  NON d   1     -42.790  17.492  -3.717  0.00  0.00    -0.018 A 
ATOM      4  C5  NON d   1     -41.742  17.128  -2.839  0.00  0.00     0.013 A 
ATOM      5  C6  NON d   1     -40.669  18.001  -2.596  0.00  0.00     0.010 A 
ATOM      6  C7  NON d   1     -40.606  19.242  -3.229  0.00  0.00    -0.031 A 
ATOM      7  C17 NON d   1     -41.647  19.613  -4.104  0.00  0.00     0.028 A 
ATOM      8  C18 NON d   1     -42.723  18.736  -4.337  0.00  0.00     0.016 A 
ATOM      9  S1  NON d   1     -44.077  19.007  -5.357  0.00  0.00    -0.084 SA
ENDROOT
BRANCH   6  10
ATOM     10  C8  NON d   1     -39.504  20.252  -3.040  0.00  0.00     0.270 C 
BRANCH  10  11
ATOM     11  N2  NON d   1     -38.665  20.103  -1.814  0.00  0.00    -0.071 N 
ATOM     12  H8  NON d   1     -37.700  19.925  -2.121  0.00  0.00     0.277 HD
ATOM     13  H9  NON d   1     -38.971  19.264  -1.307  0.00  0.00     0.277 HD
BRANCH  11  14
ATOM     14  C9  NON d   1     -38.625  21.288  -0.891  0.00  0.00     0.237 C 
BRANCH  14  15
ATOM     15  C10 NON d   1     -39.866  21.426   0.002  0.00  0.00     0.066 C 
BRANCH  15  16
ATOM     16  C11 NON d   1     -40.203  22.785   0.576  0.00  0.00    -0.057 A 
ATOM     17  C12 NON d   1     -39.475  23.233   1.691  0.00  0.00     0.007 A 
ATOM     18  C13 NON d   1     -39.738  24.477   2.268  0.00  0.00     0.001 A 
ATOM     19  C14 NON d   1     -40.736  25.291   1.745  0.00  0.00     0.000 A 
ATOM     20  C15 NON d   1     -41.440  24.881   0.616  0.00  0.00     0.001 A 
ATOM     21  C16 NON d   1     -41.150  23.653   0.015  0.00  0.00     0.007 A 
ENDBRANCH  15  16
ENDBRANCH  14  15
ENDBRANCH  11  14
ENDBRANCH  10  11
ENDBRANCH   6  10
BRANCH   1  22
ATOM     22  C1  NON d   1     -46.075  17.147  -5.578  0.00  0.00     0.281 C 
ATOM     23  O1  NON d   1     -46.643  17.822  -6.430  0.00  0.00    -0.265 OA
ATOM     24  N1  NON d   1     -46.630  15.975  -5.084  0.00  0.00    -0.233 N 
ATOM     25  H1  NON d   1     -46.049  15.276  -4.642  0.00  0.00     0.197 HD
BRANCH  24  26
ATOM     26  O2  NON d   1     -47.724  15.455  -5.813  0.00  0.00    -0.287 OA
ATOM     27  H2  NON d   1     -47.798  16.090  -6.552  0.00  0.00     0.244 HD
ENDBRANCH  24  26
ENDBRANCH   1  22
TORSDOF 7
ENDMDL
MODEL 7
REMARK VINA RESULT:   -16.053      2.743      3.876
REMARK INTER + INTRA:         -19.256
REMARK INTER:                 -18.141
REMARK INTRA:                  -1.116
REMARK CONF_INDEPENDENT:        2.088
REMARK UNBOUND:                -1.116
REMARK  7 active torsions:
REMARK  status: ('A' for Active; 'I' for Inactive)
REMARK       I    between atoms: C1_2  and  N1_3 
REMARK    1  A    between atoms: C1_2  and  C2_5 
REMARK    2  A    between atoms: N1_3  and  O2_4 
REMARK    3  A    between atoms: C7_10  and  C8_11 
REMARK    4  A    between atoms: C8_11  and  N2_12 
REMARK    5  A    between atoms: N2_12  and  C9_13 
REMARK    6  A    between atoms: C9_13  and  C10_14 
REMARK    7  A    between atoms: C10_14  and  C11_15 
ROOT
ATOM      1  C2  NON d   1     -46.363  16.544  -4.584  0.00  0.00     0.076 A 
ATOM      2  C3  NON d   1     -45.429  16.504  -3.563  0.00  0.00     0.037 A 
ATOM      3  C4  NON d   1     -44.307  17.374  -3.774  0.00  0.00    -0.018 A 
ATOM      4  C5  NON d   1     -43.169  17.629  -2.972  0.00  0.00     0.013 A 
ATOM      5  C6  NON d   1     -42.193  18.553  -3.378  0.00  0.00     0.010 A 
ATOM      6  C7  NON d   1     -42.317  19.229  -4.592  0.00  0.00    -0.031 A 
ATOM      7  C17 NON d   1     -43.448  18.982  -5.396  0.00  0.00     0.028 A 
ATOM      8  C18 NON d   1     -44.425  18.059  -4.979  0.00  0.00     0.016 A 
ATOM      9  S1  NON d   1     -45.864  17.629  -5.811  0.00  0.00    -0.084 SA
ENDROOT
BRANCH   6  10
ATOM     10  C8  NON d   1     -41.330  20.237  -5.122  0.00  0.00     0.270 C 
BRANCH  10  11
ATOM     11  N2  NON d   1     -39.956  20.197  -4.540  0.00  0.00    -0.071 N 
ATOM     12  H8  NON d   1     -39.379  19.609  -5.154  0.00  0.00     0.277 HD
ATOM     13  H9  NON d   1     -39.999  19.720  -3.631  0.00  0.00     0.277 HD
BRANCH  11  14
ATOM     14  C9  NON d   1     -39.255  21.519  -4.405  0.00  0.00     0.237 C 
BRANCH  14  15
ATOM     15  C10 NON d   1     -39.733  22.585  -5.402  0.00  0.00     0.066 C 
BRANCH  15  16
ATOM     16  C11 NON d   1     -40.010  23.983  -4.897  0.00  0.00    -0.057 A 
ATOM     17  C12 NON d   1     -41.124  24.179  -4.065  0.00  0.00     0.007 A 
ATOM     18  C13 NON d   1     -41.436  25.446  -3.565  0.00  0.00     0.001 A 
ATOM     19  C14 NON d   1     -40.641  26.538  -3.894  0.00  0.00     0.000 A 
ATOM     20  C15 NON d   1     -39.510  26.356  -4.684  0.00  0.00     0.001 A 
ATOM     21  C16 NON d   1     -39.176  25.081  -5.152  0.00  0.00     0.007 A 
ENDBRANCH  15  16
ENDBRANCH  14  15
ENDBRANCH  11  14
ENDBRANCH  10  11
ENDBRANCH   6  10
BRANCH   1  22
ATOM     22  C1  NON d   1     -47.639  15.844  -4.734  0.00  0.00     0.281 C 
ATOM     23  O1  NON d   1     -48.190  15.638  -5.810  0.00  0.00    -0.265 OA
ATOM     24  N1  NON d   1     -48.203  15.433  -3.535  0.00  0.00    -0.233 N 
ATOM     25  H1  NON d   1     -47.631  15.315  -2.710  0.00  0.00     0.197 HD
BRANCH  24  26
ATOM     26  O2  NON d   1     -49.280  14.523  -3.638  0.00  0.00    -0.287 OA
ATOM     27  H2  NON d   1     -49.140  14.140  -4.526  0.00  0.00     0.244 HD
ENDBRANCH  24  26
ENDBRANCH   1  22
TORSDOF 7
ENDMDL
MODEL 8
REMARK VINA RESULT:   -15.996      2.134      3.054
REMARK INTER + INTRA:         -19.735
REMARK INTER:                 -18.084
REMARK INTRA:                  -1.652
REMARK CONF_INDEPENDENT:        2.088
REMARK UNBOUND:                -1.652
REMARK  7 active torsions:
REMARK  status: ('A' for Active; 'I' for Inactive)
REMARK       I    between atoms: C1_2  and  N1_3 
REMARK    1  A    between atoms: C1_2  and  C2_5 
REMARK    2  A    between atoms: N1_3  and  O2_4 
REMARK    3  A    between atoms: C7_10  and  C8_11 
REMARK    4  A    between atoms: C8_11  and  N2_12 
REMARK    5  A    between atoms: N2_12  and  C9_13 
REMARK    6  A    between atoms: C9_13  and  C10_14 
REMARK    7  A    between atoms: C10_14  and  C11_15 
ROOT
ATOM      1  C2  NON d   1     -45.012  17.599  -5.064  0.00  0.00     0.076 A 
ATOM      2  C3  NON d   1     -44.288  18.762  -5.259  0.00  0.00     0.037 A 
ATOM      3  C4  NON d   1     -43.005  18.758  -4.614  0.00  0.00    -0.018 A 
ATOM      4  C5  NON d   1     -41.979  19.732  -4.587  0.00  0.00     0.013 A 
ATOM      5  C6  NON d   1     -40.779  19.497  -3.896  0.00  0.00     0.010 A 
ATOM      6  C7  NON d   1     -40.580  18.301  -3.207  0.00  0.00    -0.031 A 
ATOM      7  C17 NON d   1     -41.597  17.324  -3.230  0.00  0.00     0.028 A 
ATOM      8  C18 NON d   1     -42.793  17.565  -3.931  0.00  0.00     0.016 A 
ATOM      9  S1  NON d   1     -44.136  16.505  -4.079  0.00  0.00    -0.084 SA
ENDROOT
BRANCH   6  10
ATOM     10  C8  NON d   1     -39.335  17.947  -2.435  0.00  0.00     0.270 C 
BRANCH  10  11
ATOM     11  N2  NON d   1     -38.471  19.086  -2.005  0.00  0.00    -0.071 N 
ATOM     12  H8  NON d   1     -37.806  18.722  -1.311  0.00  0.00     0.277 HD
ATOM     13  H9  NON d   1     -39.056  19.776  -1.518  0.00  0.00     0.277 HD
BRANCH  11  14
ATOM     14  C9  NON d   1     -37.665  19.751  -3.085  0.00  0.00     0.237 C 
BRANCH  14  15
ATOM     15  C10 NON d   1     -36.891  18.772  -3.980  0.00  0.00     0.066 C 
BRANCH  15  16
ATOM     16  C11 NON d   1     -37.237  18.701  -5.451  0.00  0.00    -0.057 A 
ATOM     17  C12 NON d   1     -36.310  18.107  -6.323  0.00  0.00     0.007 A 
ATOM     18  C13 NON d   1     -36.569  18.011  -7.692  0.00  0.00     0.001 A 
ATOM     19  C14 NON d   1     -37.755  18.514  -8.213  0.00  0.00     0.000 A 
ATOM     20  C15 NON d   1     -38.703  19.070  -7.359  0.00  0.00     0.001 A 
ATOM     21  C16 NON d   1     -38.462  19.130  -5.983  0.00  0.00     0.007 A 
ENDBRANCH  15  16
ENDBRANCH  14  15
ENDBRANCH  11  14
ENDBRANCH  10  11
ENDBRANCH   6  10
BRANCH   1  22
ATOM     22  C1  NON d   1     -46.327  17.200  -5.568  0.00  0.00     0.281 C 
ATOM     23  O1  NON d   1     -47.068  17.933  -6.214  0.00  0.00    -0.265 OA
ATOM     24  N1  NON d   1     -46.688  15.901  -5.240  0.00  0.00    -0.233 N 
ATOM     25  H1  NON d   1     -45.985  15.216  -5.001  0.00  0.00     0.197 HD
BRANCH  24  26
ATOM     26  O2  NON d   1     -47.808  15.380  -5.927  0.00  0.00    -0.287 OA
ATOM     27  H2  NON d   1     -48.100  16.148  -6.455  0.00  0.00     0.244 HD
ENDBRANCH  24  26
ENDBRANCH   1  22
TORSDOF 7
ENDMDL
MODEL 9
REMARK VINA RESULT:   -15.307      3.248      4.378
REMARK INTER + INTRA:         -19.267
REMARK INTER:                 -17.395
REMARK INTRA:                  -1.872
REMARK CONF_INDEPENDENT:        2.088
REMARK UNBOUND:                -1.872
REMARK  7 active torsions:
REMARK  status: ('A' for Active; 'I' for Inactive)
REMARK       I    between atoms: C1_2  and  N1_3 
REMARK    1  A    between atoms: C1_2  and  C2_5 
REMARK    2  A    between atoms: N1_3  and  O2_4 
REMARK    3  A    between atoms: C7_10  and  C8_11 
REMARK    4  A    between atoms: C8_11  and  N2_12 
REMARK    5  A    between atoms: N2_12  and  C9_13 
REMARK    6  A    between atoms: C9_13  and  C10_14 
REMARK    7  A    between atoms: C10_14  and  C11_15 
ROOT
ATOM      1  C2  NON d   1     -44.998  17.652  -5.181  0.00  0.00     0.076 A 
ATOM      2  C3  NON d   1     -44.390  18.894  -5.241  0.00  0.00     0.037 A 
ATOM      3  C4  NON d   1     -43.058  18.910  -4.706  0.00  0.00    -0.018 A 
ATOM      4  C5  NON d   1     -42.114  19.960  -4.600  0.00  0.00     0.013 A 
ATOM      5  C6  NON d   1     -40.842  19.734  -4.050  0.00  0.00     0.010 A 
ATOM      6  C7  NON d   1     -40.486  18.469  -3.580  0.00  0.00    -0.031 A 
ATOM      7  C17 NON d   1     -41.420  17.417  -3.683  0.00  0.00     0.028 A 
ATOM      8  C18 NON d   1     -42.690  17.650  -4.242  0.00  0.00     0.016 A 
ATOM      9  S1  NON d   1     -43.952  16.506  -4.456  0.00  0.00    -0.084 SA
ENDROOT
BRANCH   6  10
ATOM     10  C8  NON d   1     -39.153  18.118  -2.974  0.00  0.00     0.270 C 
BRANCH  10  11
ATOM     11  N2  NON d   1     -38.605  19.075  -1.967  0.00  0.00    -0.071 N 
ATOM     12  H8  NON d   1     -38.079  18.526  -1.276  0.00  0.00     0.277 HD
ATOM     13  H9  NON d   1     -39.390  19.507  -1.464  0.00  0.00     0.277 HD
BRANCH  11  14
ATOM     14  C9  NON d   1     -37.675  20.131  -2.495  0.00  0.00     0.237 C 
BRANCH  14  15
ATOM     15  C10 NON d   1     -38.046  21.560  -2.071  0.00  0.00     0.066 C 
BRANCH  15  16
ATOM     16  C11 NON d   1     -39.200  22.249  -2.765  0.00  0.00    -0.057 A 
ATOM     17  C12 NON d   1     -40.308  22.631  -1.991  0.00  0.00     0.007 A 
ATOM     18  C13 NON d   1     -41.405  23.271  -2.572  0.00  0.00     0.001 A 
ATOM     19  C14 NON d   1     -41.416  23.531  -3.937  0.00  0.00     0.000 A 
ATOM     20  C15 NON d   1     -40.311  23.196  -4.713  0.00  0.00     0.001 A 
ATOM     21  C16 NON d   1     -39.196  22.592  -4.125  0.00  0.00     0.007 A 
ENDBRANCH  15  16
ENDBRANCH  14  15
ENDBRANCH  11  14
ENDBRANCH  10  11
ENDBRANCH   6  10
BRANCH   1  22
ATOM     22  C1  NON d   1     -46.317  17.215  -5.641  0.00  0.00     0.281 C 
ATOM     23  O1  NON d   1     -47.053  17.885  -6.358  0.00  0.00    -0.265 OA
ATOM     24  N1  NON d   1     -46.689  15.960  -5.181  0.00  0.00    -0.233 N 
ATOM     25  H1  NON d   1     -45.991  15.297  -4.873  0.00  0.00     0.197 HD
BRANCH  24  26
ATOM     26  O2  NON d   1     -47.814  15.381  -5.810  0.00  0.00    -0.287 OA
ATOM     27  H2  NON d   1     -47.977  15.998  -6.549  0.00  0.00     0.244 HD
ENDBRANCH  24  26
ENDBRANCH   1  22
TORSDOF 7
ENDMDL
