MODEL 1
REMARK VINA RESULT:   -33.822      0.000      0.000
REMARK INTER + INTRA:         -36.852
REMARK INTER:                 -36.507
REMARK INTRA:                  -0.345
REMARK CONF_INDEPENDENT:        2.685
REMARK UNBOUND:                -0.345
REMARK  9 active torsions:
REMARK  status: ('A' for Active; 'I' for Inactive)
REMARK    1  A    between atoms: S1_2  and  C2_3 
REMARK    2  A    between atoms: C5_6  and  C6_7 
REMARK    3  A    between atoms: C6_7  and  C7_8 
REMARK    4  A    between atoms: C7_8  and  N1_9 
REMARK    5  A    between atoms: C7_8  and  C8_11 
REMARK    6  A    between atoms: N1_9  and  O1_10 
REMARK       I    between atoms: C8_11  and  N2_13 
REMARK    7  A    between atoms: N2_13  and  C9_14 
REMARK    8  A    between atoms: C9_14  and  C10_15 
REMARK    9  A    between atoms: C10_15  and  S2_16 
ROOT
ATOM      1  C7  non d   1     -47.306  16.257  -4.289  0.00  0.00     0.119 C 
ENDROOT
BRANCH   1   2
ATOM      2  C6  non d   1     -46.225  16.828  -3.352  0.00  0.00     0.104 C 
BRANCH   2   3
ATOM      3  C5  non d   1     -44.895  17.342  -3.934  0.00  0.00    -0.052 A 
ATOM      4  C4  non d   1     -43.574  16.641  -3.569  0.00  0.00     0.009 A 
ATOM      5  C3  non d   1     -42.243  17.154  -4.150  0.00  0.00     0.019 A 
ATOM      6  C2  non d   1     -42.235  18.369  -5.097  0.00  0.00    -0.000 A 
ATOM      7  C12 non d   1     -43.557  19.070  -5.461  0.00  0.00     0.019 A 
ATOM      8  C11 non d   1     -44.886  18.557  -4.880  0.00  0.00     0.009 A 
BRANCH   6   9
ATOM      9  S1  non d   1     -40.904  18.883  -5.678  0.00  0.00    -0.134 SA
ATOM     10  C1  non d   1     -40.737  20.377  -6.014  0.00  0.00     0.095 C 
ENDBRANCH   6   9
ENDBRANCH   2   3
ENDBRANCH   1   2
BRANCH   1  11
ATOM     11  N1  non d   1     -47.071  16.232  -5.811  0.00  0.00    -0.136 NA
BRANCH  11  12
ATOM     12  O1  non d   1     -46.412  15.005  -6.468  0.00  0.00    -0.266 OA
ATOM     13  H8  non d   1     -45.939  15.076  -7.932  0.00  0.00     0.247 HD
ENDBRANCH  11  12
ENDBRANCH   1  11
BRANCH   1  14
ATOM     14  C8  non d   1     -48.621  15.711  -3.704  0.00  0.00     0.202 C 
ATOM     15  O2  non d   1     -48.793  14.198  -3.474  0.00  0.00    -0.170 OA
ATOM     16  N2  non d   1     -49.766  16.678  -3.349  0.00  0.00    -0.366 N 
ATOM     17  H9  non d   1     -49.595  18.191  -3.578  0.00  0.00     0.161 HD
BRANCH  16  18
ATOM     18  C9  non d   1     -51.082  16.132  -2.763  0.00  0.00     0.132 C 
BRANCH  18  19
ATOM     19  C10 non d   1     -52.135  17.103  -2.198  0.00  0.00     0.090 C 
BRANCH  19  20
ATOM     20  S2  non d   1     -53.630  16.871  -2.486  0.00  0.00    -0.181 SA
ATOM     21  H14 non d   1     -54.106  15.516  -3.043  0.00  0.00     0.101 HD
ENDBRANCH  19  20
ENDBRANCH  18  19
ENDBRANCH  16  18
ENDBRANCH   1  14
TORSDOF 9
ENDMDL
MODEL 2
REMARK VINA RESULT:   -31.689      2.063      7.955
REMARK INTER + INTRA:         -35.792
REMARK INTER:                 -34.373
REMARK INTRA:                  -1.418
REMARK CONF_INDEPENDENT:        2.685
REMARK UNBOUND:                -1.418
REMARK  9 active torsions:
REMARK  status: ('A' for Active; 'I' for Inactive)
REMARK    1  A    between atoms: S1_2  and  C2_3 
REMARK    2  A    between atoms: C5_6  and  C6_7 
REMARK    3  A    between atoms: C6_7  and  C7_8 
REMARK    4  A    between atoms: C7_8  and  N1_9 
REMARK    5  A    between atoms: C7_8  and  C8_11 
REMARK    6  A    between atoms: N1_9  and  O1_10 
REMARK       I    between atoms: C8_11  and  N2_13 
REMARK    7  A    between atoms: N2_13  and  C9_14 
REMARK    8  A    between atoms: C9_14  and  C10_15 
REMARK    9  A    between atoms: C10_15  and  S2_16 
ROOT
ATOM      1  C7  non d   1     -46.324  16.519  -4.493  0.00  0.00     0.119 C 
ENDROOT
BRANCH   1   2
ATOM      2  C6  non d   1     -46.921  15.847  -3.242  0.00  0.00     0.104 C 
BRANCH   2   3
ATOM      3  C5  non d   1     -48.447  15.811  -3.041  0.00  0.00    -0.052 A 
ATOM      4  C4  non d   1     -49.133  16.877  -2.167  0.00  0.00     0.009 A 
ATOM      5  C3  non d   1     -50.660  16.841  -1.966  0.00  0.00     0.019 A 
ATOM      6  C2  non d   1     -51.500  15.740  -2.639  0.00  0.00    -0.000 A 
ATOM      7  C12 non d   1     -50.813  14.674  -3.514  0.00  0.00     0.019 A 
ATOM      8  C11 non d   1     -49.287  14.710  -3.714  0.00  0.00     0.009 A 
BRANCH   6   9
ATOM      9  S1  non d   1     -53.027  15.704  -2.438  0.00  0.00    -0.134 SA
ATOM     10  C1  non d   1     -53.831  17.017  -2.415  0.00  0.00     0.095 C 
ENDBRANCH   6   9
ENDBRANCH   2   3
ENDBRANCH   1   2
BRANCH   1  11
ATOM     11  N1  non d   1     -47.088  16.475  -5.829  0.00  0.00    -0.136 NA
BRANCH  11  12
ATOM     12  O1  non d   1     -47.437  17.785  -6.560  0.00  0.00    -0.266 OA
ATOM     13  H8  non d   1     -46.316  18.748  -6.992  0.00  0.00     0.247 HD
ENDBRANCH  11  12
ENDBRANCH   1  11
BRANCH   1  14
ATOM     14  C8  non d   1     -44.963  17.234  -4.407  0.00  0.00     0.202 C 
ATOM     15  O2  non d   1     -44.655  18.418  -5.343  0.00  0.00    -0.170 OA
ATOM     16  N2  non d   1     -43.911  16.767  -3.385  0.00  0.00    -0.366 N 
ATOM     17  H9  non d   1     -44.219  15.584  -2.448  0.00  0.00     0.161 HD
BRANCH  16  18
ATOM     18  C9  non d   1     -42.549  17.482  -3.298  0.00  0.00     0.132 C 
BRANCH  18  19
ATOM     19  C10 non d   1     -41.727  17.729  -4.576  0.00  0.00     0.090 C 
BRANCH  19  20
ATOM     20  S2  non d   1     -41.843  19.074  -5.319  0.00  0.00    -0.181 SA
ATOM     21  H14 non d   1     -43.223  19.593  -5.762  0.00  0.00     0.101 HD
ENDBRANCH  19  20
ENDBRANCH  18  19
ENDBRANCH  16  18
ENDBRANCH   1  14
TORSDOF 9
ENDMDL
