MODEL 1
REMARK VINA RESULT:   -18.419      0.000      0.000
REMARK INTER + INTRA:         -22.328
REMARK INTER:                 -20.507
REMARK INTRA:                  -1.821
REMARK CONF_INDEPENDENT:        2.088
REMARK UNBOUND:                -1.821
REMARK  7 active torsions:
REMARK  status: ('A' for Active; 'I' for Inactive)
REMARK    1  A    between atoms: N1_2  and  C2_3 
REMARK    2  A    between atoms: N1_2  and  C22_26 
REMARK    3  A    between atoms: C2_3  and  C3_4 
REMARK    4  A    between atoms: C6_7  and  C7_8 
REMARK       I    between atoms: C7_8  and  N2_10 
REMARK    5  A    between atoms: N2_10  and  C8_11 
REMARK    6  A    between atoms: C10_13  and  C11_14 
REMARK    7  A    between atoms: C19_22  and  N3_23 
ROOT
ATOM      1  C7  NON d   1     -45.250  17.927  -4.886  0.00  0.00     0.256 C 
ATOM      2  O1  NON d   1     -45.763  18.040  -5.998  0.00  0.00    -0.267 OA
ATOM      3  N2  NON d   1     -45.928  17.573  -3.733  0.00  0.00    -0.321 N 
ATOM      4  H8  NON d   1     -45.426  17.534  -2.858  0.00  0.00     0.169 HD
ENDROOT
BRANCH   1   5
ATOM      5  C6  NON d   1     -43.780  18.232  -4.759  0.00  0.00     0.032 A 
ATOM      6  C5  NON d   1     -42.968  17.271  -4.147  0.00  0.00     0.017 A 
ATOM      7  C4  NON d   1     -41.588  17.479  -3.981  0.00  0.00     0.010 A 
ATOM      8  C3  NON d   1     -40.961  18.666  -4.404  0.00  0.00    -0.040 A 
ATOM      9  C21 NON d   1     -41.800  19.653  -4.948  0.00  0.00     0.010 A 
ATOM     10  C20 NON d   1     -43.182  19.432  -5.156  0.00  0.00     0.017 A 
BRANCH   8  11
ATOM     11  C2  NON d   1     -39.468  18.856  -4.082  0.00  0.00     0.161 C 
BRANCH  11  12
ATOM     12  N1  NON d   1     -38.497  19.281  -5.155  0.00  0.00    -0.381 N 
ATOM     13  C1  NON d   1     -37.138  18.560  -5.078  0.00  0.00     0.150 C 
BRANCH  12  14
ATOM     14  C22 NON d   1     -39.013  19.817  -6.332  0.00  0.00     0.032 A 
ATOM     15  C23 NON d   1     -39.090  21.194  -6.574  0.00  0.00     0.046 A 
ATOM     16  C24 NON d   1     -39.692  21.690  -7.729  0.00  0.00     0.089 A 
ATOM     17  N4  NON d   1     -40.195  20.848  -8.639  0.00  0.00    -0.375 N 
ATOM     18  C25 NON d   1     -40.139  19.523  -8.477  0.00  0.00     0.089 A 
ATOM     19  H23 NON d   1     -40.644  21.227  -9.473  0.00  0.00     0.164 HD
ATOM     20  C26 NON d   1     -39.555  18.991  -7.332  0.00  0.00     0.046 A 
ENDBRANCH  12  14
ENDBRANCH  11  12
ENDBRANCH   8  11
ENDBRANCH   1   5
BRANCH   3  21
ATOM     21  C8  NON d   1     -47.289  17.171  -3.600  0.00  0.00     0.057 A 
ATOM     22  C9  NON d   1     -48.091  17.450  -2.480  0.00  0.00     0.043 A 
ATOM     23  C10 NON d   1     -49.470  17.121  -2.417  0.00  0.00    -0.024 A 
ATOM     24  C17 NON d   1     -50.005  16.503  -3.564  0.00  0.00     0.014 A 
ATOM     25  C18 NON d   1     -49.218  16.191  -4.680  0.00  0.00     0.026 A 
ATOM     26  C19 NON d   1     -47.857  16.489  -4.693  0.00  0.00     0.033 A 
BRANCH  23  27
ATOM     27  C11 NON d   1     -50.316  17.425  -1.212  0.00  0.00    -0.026 A 
ATOM     28  C12 NON d   1     -49.756  17.733   0.045  0.00  0.00     0.012 A 
ATOM     29  C13 NON d   1     -50.544  18.013   1.171  0.00  0.00     0.001 A 
ATOM     30  C14 NON d   1     -51.928  18.005   1.077  0.00  0.00     0.000 A 
ATOM     31  C15 NON d   1     -52.522  17.711  -0.141  0.00  0.00     0.001 A 
ATOM     32  C16 NON d   1     -51.729  17.421  -1.261  0.00  0.00     0.012 A 
ENDBRANCH  23  27
BRANCH  26  33
ATOM     33  N3  NON d   1     -47.066  16.130  -5.811  0.00  0.00    -0.301 NA
ATOM     34  H17 NON d   1     -47.180  16.824  -6.547  0.00  0.00     0.124 HD
ATOM     35  H18 NON d   1     -46.080  16.053  -5.568  0.00  0.00     0.124 HD
ENDBRANCH  26  33
ENDBRANCH   3  21
TORSDOF 7
ENDMDL
MODEL 2
REMARK VINA RESULT:   -17.852      1.903      2.690
REMARK INTER + INTRA:         -21.350
REMARK INTER:                 -19.940
REMARK INTRA:                  -1.410
REMARK CONF_INDEPENDENT:        2.088
REMARK UNBOUND:                -1.410
REMARK  7 active torsions:
REMARK  status: ('A' for Active; 'I' for Inactive)
REMARK    1  A    between atoms: N1_2  and  C2_3 
REMARK    2  A    between atoms: N1_2  and  C22_26 
REMARK    3  A    between atoms: C2_3  and  C3_4 
REMARK    4  A    between atoms: C6_7  and  C7_8 
REMARK       I    between atoms: C7_8  and  N2_10 
REMARK    5  A    between atoms: N2_10  and  C8_11 
REMARK    6  A    between atoms: C10_13  and  C11_14 
REMARK    7  A    between atoms: C19_22  and  N3_23 
ROOT
ATOM      1  C7  NON d   1     -45.215  17.856  -4.868  0.00  0.00     0.256 C 
ATOM      2  O1  NON d   1     -45.715  17.956  -5.987  0.00  0.00    -0.267 OA
ATOM      3  N2  NON d   1     -45.909  17.531  -3.716  0.00  0.00    -0.321 N 
ATOM      4  H8  NON d   1     -45.416  17.501  -2.836  0.00  0.00     0.169 HD
ENDROOT
BRANCH   1   5
ATOM      5  C6  NON d   1     -43.742  18.144  -4.731  0.00  0.00     0.032 A 
ATOM      6  C5  NON d   1     -42.991  17.305  -3.901  0.00  0.00     0.017 A 
ATOM      7  C4  NON d   1     -41.613  17.508  -3.711  0.00  0.00     0.010 A 
ATOM      8  C3  NON d   1     -40.928  18.570  -4.331  0.00  0.00    -0.040 A 
ATOM      9  C21 NON d   1     -41.708  19.449  -5.101  0.00  0.00     0.010 A 
ATOM     10  C20 NON d   1     -43.086  19.225  -5.330  0.00  0.00     0.017 A 
BRANCH   8  11
ATOM     11  C2  NON d   1     -39.445  18.784  -3.980  0.00  0.00     0.161 C 
BRANCH  11  12
ATOM     12  N1  NON d   1     -39.050  19.555  -2.746  0.00  0.00    -0.381 N 
ATOM     13  C1  NON d   1     -37.634  19.223  -2.237  0.00  0.00     0.150 C 
BRANCH  12  14
ATOM     14  C22 NON d   1     -39.686  20.769  -2.498  0.00  0.00     0.032 A 
ATOM     15  C23 NON d   1     -40.141  21.615  -3.517  0.00  0.00     0.046 A 
ATOM     16  C24 NON d   1     -40.695  22.860  -3.227  0.00  0.00     0.089 A 
ATOM     17  N4  NON d   1     -40.816  23.262  -1.956  0.00  0.00    -0.375 N 
ATOM     18  C25 NON d   1     -40.417  22.496  -0.936  0.00  0.00     0.089 A 
ATOM     19  H23 NON d   1     -41.212  24.182  -1.760  0.00  0.00     0.164 HD
ATOM     20  C26 NON d   1     -39.850  21.251  -1.188  0.00  0.00     0.046 A 
ENDBRANCH  12  14
ENDBRANCH  11  12
ENDBRANCH   8  11
ENDBRANCH   1   5
BRANCH   3  21
ATOM     21  C8  NON d   1     -47.276  17.150  -3.589  0.00  0.00     0.057 A 
ATOM     22  C9  NON d   1     -48.075  17.429  -2.468  0.00  0.00     0.043 A 
ATOM     23  C10 NON d   1     -49.459  17.121  -2.410  0.00  0.00    -0.024 A 
ATOM     24  C17 NON d   1     -50.002  16.525  -3.565  0.00  0.00     0.014 A 
ATOM     25  C18 NON d   1     -49.218  16.213  -4.683  0.00  0.00     0.026 A 
ATOM     26  C19 NON d   1     -47.852  16.489  -4.690  0.00  0.00     0.033 A 
BRANCH  23  27
ATOM     27  C11 NON d   1     -50.303  17.425  -1.203  0.00  0.00    -0.026 A 
ATOM     28  C12 NON d   1     -49.740  17.758   0.046  0.00  0.00     0.012 A 
ATOM     29  C13 NON d   1     -50.524  18.038   1.175  0.00  0.00     0.001 A 
ATOM     30  C14 NON d   1     -51.909  18.005   1.090  0.00  0.00     0.000 A 
ATOM     31  C15 NON d   1     -52.505  17.685  -0.120  0.00  0.00     0.001 A 
ATOM     32  C16 NON d   1     -51.715  17.395  -1.242  0.00  0.00     0.012 A 
ENDBRANCH  23  27
BRANCH  26  33
ATOM     33  N3  NON d   1     -47.065  16.130  -5.811  0.00  0.00    -0.301 NA
ATOM     34  H17 NON d   1     -47.341  16.690  -6.616  0.00  0.00     0.124 HD
ATOM     35  H18 NON d   1     -46.072  16.260  -5.633  0.00  0.00     0.124 HD
ENDBRANCH  26  33
ENDBRANCH   3  21
TORSDOF 7
ENDMDL
