MODEL 1
REMARK VINA RESULT:   -13.988      0.000      0.000
REMARK INTER + INTRA:         -18.030
REMARK INTER:                 -16.375
REMARK INTRA:                  -1.655
REMARK CONF_INDEPENDENT:        2.386
REMARK UNBOUND:                -1.655
REMARK  8 active torsions:
REMARK  status: ('A' for Active; 'I' for Inactive)
REMARK    1  A    between atoms: N1_1  and  C1_2 
REMARK    2  A    between atoms: C6_7  and  N2_8 
REMARK       I    between atoms: N2_8  and  C7_9 
REMARK    3  A    between atoms: C7_9  and  C8_11 
REMARK    4  A    between atoms: C8_11  and  C9_12 
REMARK    5  A    between atoms: C9_12  and  C10_13 
REMARK    6  A    between atoms: C10_13  and  C11_14 
REMARK    7  A    between atoms: C11_14  and  C12_15 
REMARK    8  A    between atoms: C12_15  and  N3_16 
ROOT
ATOM      1  C11 NON d   1     -42.037  18.279  -2.532  0.00  0.00     0.020 C 
ENDROOT
BRANCH   1   2
ATOM      2  C10 NON d   1     -42.632  17.040  -3.222  0.00  0.00     0.002 C 
BRANCH   2   3
ATOM      3  C9  NON d   1     -43.027  17.197  -4.698  0.00  0.00     0.009 C 
BRANCH   3   4
ATOM      4  C8  NON d   1     -44.384  17.856  -4.945  0.00  0.00     0.103 C 
BRANCH   4   5
ATOM      5  C7  NON d   1     -45.547  16.881  -4.876  0.00  0.00     0.222 C 
ATOM      6  N2  NON d   1     -46.222  16.964  -3.677  0.00  0.00    -0.325 N 
ATOM      7  H7  NON d   1     -45.747  17.481  -2.949  0.00  0.00     0.169 HD
ATOM      8  O1  NON d   1     -45.808  16.134  -5.810  0.00  0.00    -0.273 OA
BRANCH   6   9
ATOM      9  C6  NON d   1     -47.513  16.487  -3.320  0.00  0.00     0.061 A 
ATOM     10  C5  NON d   1     -47.907  16.826  -2.009  0.00  0.00     0.032 A 
ATOM     11  C4  NON d   1     -49.175  16.508  -1.520  0.00  0.00     0.002 A 
ATOM     12  C3  NON d   1     -50.077  15.853  -2.340  0.00  0.00     0.002 A 
ATOM     13  C2  NON d   1     -49.707  15.502  -3.636  0.00  0.00     0.031 A 
ATOM     14  C1  NON d   1     -48.435  15.815  -4.152  0.00  0.00     0.052 A 
BRANCH  14  15
ATOM     15  N1  NON d   1     -48.138  15.282  -5.407  0.00  0.00    -0.397 N 
ATOM     16  H1  NON d   1     -48.164  15.916  -6.191  0.00  0.00     0.156 HD
ATOM     17  H2  NON d   1     -47.351  14.630  -5.428  0.00  0.00     0.156 HD
ENDBRANCH  14  15
ENDBRANCH   6   9
ENDBRANCH   4   5
ENDBRANCH   3   4
ENDBRANCH   2   3
ENDBRANCH   1   2
BRANCH   1  18
ATOM     18  C12 NON d   1     -40.517  18.394  -2.713  0.00  0.00     0.135 C 
BRANCH  18  19
ATOM     19  N3  NON d   1     -39.991  18.632  -4.064  0.00  0.00    -0.280 N 
ATOM     20  C13 NON d   1     -40.804  19.429  -4.881  0.00  0.00     0.261 C 
ATOM     21  O2  NON d   1     -41.874  19.912  -4.511  0.00  0.00    -0.267 OA
ATOM     22  C14 NON d   1     -40.308  19.757  -6.238  0.00  0.00     0.044 A 
ATOM     23  C15 NON d   1     -41.150  20.442  -7.123  0.00  0.00     0.018 A 
ATOM     24  C23 NON d   1     -39.004  19.413  -6.612  0.00  0.00     0.007 A 
ATOM     25  C16 NON d   1     -40.694  20.792  -8.387  0.00  0.00     0.002 A 
ATOM     26  C17 NON d   1     -39.395  20.462  -8.770  0.00  0.00     0.014 A 
ATOM     27  C18 NON d   1     -38.518  19.769  -7.902  0.00  0.00    -0.006 A 
ATOM     28  C19 NON d   1     -37.183  19.422  -8.236  0.00  0.00     0.022 A 
ATOM     29 Br1  NON d   1     -36.394  19.861  -9.914  0.00  0.00    -0.050 Br
ATOM     30  C20 NON d   1     -36.366  18.743  -7.329  0.00  0.00     0.021 A 
ATOM     31  C21 NON d   1     -36.857  18.405  -6.074  0.00  0.00     0.019 A 
ATOM     32  C22 NON d   1     -38.169  18.742  -5.714  0.00  0.00     0.044 A 
ATOM     33  C24 NON d   1     -38.645  18.408  -4.349  0.00  0.00     0.261 C 
ATOM     34  O3  NON d   1     -37.816  17.992  -3.547  0.00  0.00    -0.267 OA
ENDBRANCH  18  19
ENDBRANCH   1  18
TORSDOF 8
ENDMDL
MODEL 2
REMARK VINA RESULT:   -13.912      2.423      3.293
REMARK INTER + INTRA:         -17.680
REMARK INTER:                 -16.298
REMARK INTRA:                  -1.381
REMARK CONF_INDEPENDENT:        2.386
REMARK UNBOUND:                -1.381
REMARK  8 active torsions:
REMARK  status: ('A' for Active; 'I' for Inactive)
REMARK    1  A    between atoms: N1_1  and  C1_2 
REMARK    2  A    between atoms: C6_7  and  N2_8 
REMARK       I    between atoms: N2_8  and  C7_9 
REMARK    3  A    between atoms: C7_9  and  C8_11 
REMARK    4  A    between atoms: C8_11  and  C9_12 
REMARK    5  A    between atoms: C9_12  and  C10_13 
REMARK    6  A    between atoms: C10_13  and  C11_14 
REMARK    7  A    between atoms: C11_14  and  C12_15 
REMARK    8  A    between atoms: C12_15  and  N3_16 
ROOT
ATOM      1  C11 NON d   1     -41.602  18.992  -4.753  0.00  0.00     0.020 C 
ENDROOT
BRANCH   1   2
ATOM      2  C10 NON d   1     -41.844  17.618  -4.105  0.00  0.00     0.002 C 
BRANCH   2   3
ATOM      3  C9  NON d   1     -43.296  17.274  -3.744  0.00  0.00     0.009 C 
BRANCH   3   4
ATOM      4  C8  NON d   1     -44.347  17.729  -4.758  0.00  0.00     0.103 C 
BRANCH   4   5
ATOM      5  C7  NON d   1     -45.572  16.831  -4.798  0.00  0.00     0.222 C 
ATOM      6  N2  NON d   1     -46.249  16.824  -3.598  0.00  0.00    -0.325 N 
ATOM      7  H7  NON d   1     -45.747  17.224  -2.816  0.00  0.00     0.169 HD
ATOM      8  O1  NON d   1     -45.874  16.211  -5.810  0.00  0.00    -0.273 OA
BRANCH   6   9
ATOM      9  C6  NON d   1     -47.571  16.396  -3.297  0.00  0.00     0.061 A 
ATOM     10  C5  NON d   1     -48.017  16.771  -2.013  0.00  0.00     0.032 A 
ATOM     11  C4  NON d   1     -49.318  16.504  -1.582  0.00  0.00     0.002 A 
ATOM     12  C3  NON d   1     -50.200  15.864  -2.435  0.00  0.00     0.002 A 
ATOM     13  C2  NON d   1     -49.779  15.478  -3.705  0.00  0.00     0.031 A 
ATOM     14  C1  NON d   1     -48.474  15.739  -4.162  0.00  0.00     0.052 A 
BRANCH  14  15
ATOM     15  N1  NON d   1     -48.134  15.174  -5.392  0.00  0.00    -0.397 N 
ATOM     16  H1  NON d   1     -48.234  15.759  -6.208  0.00  0.00     0.156 HD
ATOM     17  H2  NON d   1     -47.283  14.607  -5.390  0.00  0.00     0.156 HD
ENDBRANCH  14  15
ENDBRANCH   6   9
ENDBRANCH   4   5
ENDBRANCH   3   4
ENDBRANCH   2   3
ENDBRANCH   1   2
BRANCH   1  18
ATOM     18  C12 NON d   1     -40.748  18.912  -6.027  0.00  0.00     0.135 C 
BRANCH  18  19
ATOM     19  N3  NON d   1     -40.501  20.150  -6.780  0.00  0.00    -0.280 N 
ATOM     20  C13 NON d   1     -40.297  21.289  -5.990  0.00  0.00     0.261 C 
ATOM     21  O2  NON d   1     -40.308  21.274  -4.759  0.00  0.00    -0.267 OA
ATOM     22  C14 NON d   1     -39.985  22.561  -6.682  0.00  0.00     0.044 A 
ATOM     23  C15 NON d   1     -39.903  23.741  -5.932  0.00  0.00     0.018 A 
ATOM     24  C23 NON d   1     -39.746  22.571  -8.061  0.00  0.00     0.007 A 
ATOM     25  C16 NON d   1     -39.575  24.939  -6.554  0.00  0.00     0.002 A 
ATOM     26  C17 NON d   1     -39.328  24.962  -7.926  0.00  0.00     0.014 A 
ATOM     27  C18 NON d   1     -39.404  23.789  -8.714  0.00  0.00    -0.006 A 
ATOM     28  C19 NON d   1     -39.147  23.754 -10.110  0.00  0.00     0.022 A 
ATOM     29 Br1  NON d   1     -38.652  25.302 -11.104  0.00  0.00    -0.050 Br
ATOM     30  C20 NON d   1     -39.232  22.560 -10.829  0.00  0.00     0.021 A 
ATOM     31  C21 NON d   1     -39.566  21.380 -10.174  0.00  0.00     0.019 A 
ATOM     32  C22 NON d   1     -39.817  21.384  -8.796  0.00  0.00     0.044 A 
ATOM     33  C24 NON d   1     -40.124  20.099  -8.121  0.00  0.00     0.261 C 
ATOM     34  O3  NON d   1     -39.989  19.070  -8.775  0.00  0.00    -0.267 OA
ENDBRANCH  18  19
ENDBRANCH   1  18
TORSDOF 8
ENDMDL
MODEL 3
REMARK VINA RESULT:   -13.901      2.515      3.364
REMARK INTER + INTRA:         -17.973
REMARK INTER:                 -16.287
REMARK INTRA:                  -1.686
REMARK CONF_INDEPENDENT:        2.386
REMARK UNBOUND:                -1.686
REMARK  8 active torsions:
REMARK  status: ('A' for Active; 'I' for Inactive)
REMARK    1  A    between atoms: N1_1  and  C1_2 
REMARK    2  A    between atoms: C6_7  and  N2_8 
REMARK       I    between atoms: N2_8  and  C7_9 
REMARK    3  A    between atoms: C7_9  and  C8_11 
REMARK    4  A    between atoms: C8_11  and  C9_12 
REMARK    5  A    between atoms: C9_12  and  C10_13 
REMARK    6  A    between atoms: C10_13  and  C11_14 
REMARK    7  A    between atoms: C11_14  and  C12_15 
REMARK    8  A    between atoms: C12_15  and  N3_16 
ROOT
ATOM      1  C11 NON d   1     -41.610  17.997  -5.457  0.00  0.00     0.020 C 
ENDROOT
BRANCH   1   2
ATOM      2  C10 NON d   1     -41.930  17.647  -3.994  0.00  0.00     0.002 C 
BRANCH   2   3
ATOM      3  C9  NON d   1     -43.414  17.482  -3.635  0.00  0.00     0.009 C 
BRANCH   3   4
ATOM      4  C8  NON d   1     -44.400  17.828  -4.751  0.00  0.00     0.103 C 
BRANCH   4   5
ATOM      5  C7  NON d   1     -45.606  16.905  -4.796  0.00  0.00     0.222 C 
ATOM      6  N2  NON d   1     -46.281  16.877  -3.595  0.00  0.00    -0.325 N 
ATOM      7  H7  NON d   1     -45.786  17.282  -2.811  0.00  0.00     0.169 HD
ATOM      8  O1  NON d   1     -45.896  16.285  -5.812  0.00  0.00    -0.273 OA
BRANCH   6   9
ATOM      9  C6  NON d   1     -47.593  16.420  -3.295  0.00  0.00     0.061 A 
ATOM     10  C5  NON d   1     -48.052  16.793  -2.015  0.00  0.00     0.032 A 
ATOM     11  C4  NON d   1     -49.347  16.499  -1.586  0.00  0.00     0.002 A 
ATOM     12  C3  NON d   1     -50.212  15.833  -2.437  0.00  0.00     0.002 A 
ATOM     13  C2  NON d   1     -49.778  15.448  -3.703  0.00  0.00     0.031 A 
ATOM     14  C1  NON d   1     -48.478  15.737  -4.158  0.00  0.00     0.052 A 
BRANCH  14  15
ATOM     15  N1  NON d   1     -48.121  15.171  -5.383  0.00  0.00    -0.397 N 
ATOM     16  H1  NON d   1     -48.240  15.745  -6.204  0.00  0.00     0.156 HD
ATOM     17  H2  NON d   1     -47.252  14.632  -5.377  0.00  0.00     0.156 HD
ENDBRANCH  14  15
ENDBRANCH   6   9
ENDBRANCH   4   5
ENDBRANCH   3   4
ENDBRANCH   2   3
ENDBRANCH   1   2
BRANCH   1  18
ATOM     18  C12 NON d   1     -40.175  18.507  -5.652  0.00  0.00     0.135 C 
BRANCH  18  19
ATOM     19  N3  NON d   1     -39.983  19.864  -6.182  0.00  0.00    -0.280 N 
ATOM     20  C13 NON d   1     -39.927  19.948  -7.579  0.00  0.00     0.261 C 
ATOM     21  O2  NON d   1     -40.041  18.975  -8.325  0.00  0.00    -0.267 OA
ATOM     22  C14 NON d   1     -39.793  21.294  -8.185  0.00  0.00     0.044 A 
ATOM     23  C15 NON d   1     -39.606  21.401  -9.569  0.00  0.00     0.018 A 
ATOM     24  C23 NON d   1     -39.884  22.437  -7.384  0.00  0.00     0.007 A 
ATOM     25  C16 NON d   1     -39.514  22.653 -10.163  0.00  0.00     0.002 A 
ATOM     26  C17 NON d   1     -39.610  23.801  -9.377  0.00  0.00     0.014 A 
ATOM     27  C18 NON d   1     -39.797  23.729  -7.976  0.00  0.00    -0.006 A 
ATOM     28  C19 NON d   1     -39.917  24.864  -7.133  0.00  0.00     0.022 A 
ATOM     29 Br1  NON d   1     -39.848  26.650  -7.796  0.00  0.00    -0.050 Br
ATOM     30  C20 NON d   1     -40.108  24.724  -5.757  0.00  0.00     0.021 A 
ATOM     31  C21 NON d   1     -40.192  23.455  -5.196  0.00  0.00     0.019 A 
ATOM     32  C22 NON d   1     -40.085  22.316  -6.006  0.00  0.00     0.044 A 
ATOM     33  C24 NON d   1     -40.227  20.978  -5.381  0.00  0.00     0.261 C 
ATOM     34  O3  NON d   1     -40.587  20.936  -4.209  0.00  0.00    -0.267 OA
ENDBRANCH  18  19
ENDBRANCH   1  18
TORSDOF 8
ENDMDL
MODEL 4
REMARK VINA RESULT:   -13.766      3.887      5.045
REMARK INTER + INTRA:         -17.892
REMARK INTER:                 -16.152
REMARK INTRA:                  -1.740
REMARK CONF_INDEPENDENT:        2.386
REMARK UNBOUND:                -1.740
REMARK  8 active torsions:
REMARK  status: ('A' for Active; 'I' for Inactive)
REMARK    1  A    between atoms: N1_1  and  C1_2 
REMARK    2  A    between atoms: C6_7  and  N2_8 
REMARK       I    between atoms: N2_8  and  C7_9 
REMARK    3  A    between atoms: C7_9  and  C8_11 
REMARK    4  A    between atoms: C8_11  and  C9_12 
REMARK    5  A    between atoms: C9_12  and  C10_13 
REMARK    6  A    between atoms: C10_13  and  C11_14 
REMARK    7  A    between atoms: C11_14  and  C12_15 
REMARK    8  A    between atoms: C12_15  and  N3_16 
ROOT
ATOM      1  C11 NON d   1     -41.570  18.627  -4.895  0.00  0.00     0.020 C 
ENDROOT
BRANCH   1   2
ATOM      2  C10 NON d   1     -41.903  17.547  -3.852  0.00  0.00     0.002 C 
BRANCH   2   3
ATOM      3  C9  NON d   1     -43.392  17.294  -3.575  0.00  0.00     0.009 C 
BRANCH   3   4
ATOM      4  C8  NON d   1     -44.345  17.697  -4.701  0.00  0.00     0.103 C 
BRANCH   4   5
ATOM      5  C7  NON d   1     -45.591  16.832  -4.773  0.00  0.00     0.222 C 
ATOM      6  N2  NON d   1     -46.261  16.787  -3.569  0.00  0.00    -0.325 N 
ATOM      7  H7  NON d   1     -45.745  17.139  -2.774  0.00  0.00     0.169 HD
ATOM      8  O1  NON d   1     -45.914  16.266  -5.810  0.00  0.00    -0.273 OA
BRANCH   6   9
ATOM      9  C6  NON d   1     -47.592  16.378  -3.279  0.00  0.00     0.061 A 
ATOM     10  C5  NON d   1     -48.040  16.754  -1.996  0.00  0.00     0.032 A 
ATOM     11  C4  NON d   1     -49.347  16.505  -1.574  0.00  0.00     0.002 A 
ATOM     12  C3  NON d   1     -50.234  15.883  -2.435  0.00  0.00     0.002 A 
ATOM     13  C2  NON d   1     -49.811  15.497  -3.704  0.00  0.00     0.031 A 
ATOM     14  C1  NON d   1     -48.499  15.740  -4.153  0.00  0.00     0.052 A 
BRANCH  14  15
ATOM     15  N1  NON d   1     -48.161  15.176  -5.383  0.00  0.00    -0.397 N 
ATOM     16  H1  NON d   1     -48.286  15.753  -6.202  0.00  0.00     0.156 HD
ATOM     17  H2  NON d   1     -47.295  14.632  -5.389  0.00  0.00     0.156 HD
ENDBRANCH  14  15
ENDBRANCH   6   9
ENDBRANCH   4   5
ENDBRANCH   3   4
ENDBRANCH   2   3
ENDBRANCH   1   2
BRANCH   1  18
ATOM     18  C12 NON d   1     -40.245  19.347  -4.610  0.00  0.00     0.135 C 
BRANCH  18  19
ATOM     19  N3  NON d   1     -40.242  20.440  -3.627  0.00  0.00    -0.280 N 
ATOM     20  C13 NON d   1     -40.625  21.689  -4.134  0.00  0.00     0.261 C 
ATOM     21  O2  NON d   1     -40.954  21.876  -5.305  0.00  0.00    -0.267 OA
ATOM     22  C14 NON d   1     -40.700  22.824  -3.185  0.00  0.00     0.044 A 
ATOM     23  C15 NON d   1     -40.954  24.110  -3.680  0.00  0.00     0.018 A 
ATOM     24  C23 NON d   1     -40.549  22.603  -1.811  0.00  0.00     0.007 A 
ATOM     25  C16 NON d   1     -41.065  25.183  -2.806  0.00  0.00     0.002 A 
ATOM     26  C17 NON d   1     -40.924  24.976  -1.434  0.00  0.00     0.014 A 
ATOM     27  C18 NON d   1     -40.666  23.691  -0.900  0.00  0.00    -0.006 A 
ATOM     28  C19 NON d   1     -40.529  23.423   0.487  0.00  0.00     0.022 A 
ATOM     29 Br1  NON d   1     -40.689  24.778   1.818  0.00  0.00    -0.050 Br
ATOM     30  C20 NON d   1     -40.282  22.129   0.951  0.00  0.00     0.021 A 
ATOM     31  C21 NON d   1     -40.173  21.079   0.047  0.00  0.00     0.019 A 
ATOM     32  C22 NON d   1     -40.311  21.313  -1.328  0.00  0.00     0.044 A 
ATOM     33  C24 NON d   1     -40.237  20.163  -2.262  0.00  0.00     0.261 C 
ATOM     34  O3  NON d   1     -40.214  19.038  -1.772  0.00  0.00    -0.267 OA
ENDBRANCH  18  19
ENDBRANCH   1  18
TORSDOF 8
ENDMDL
MODEL 5
REMARK VINA RESULT:   -13.759      1.999      2.633
REMARK INTER + INTRA:         -18.049
REMARK INTER:                 -16.146
REMARK INTRA:                  -1.903
REMARK CONF_INDEPENDENT:        2.386
REMARK UNBOUND:                -1.903
REMARK  8 active torsions:
REMARK  status: ('A' for Active; 'I' for Inactive)
REMARK    1  A    between atoms: N1_1  and  C1_2 
REMARK    2  A    between atoms: C6_7  and  N2_8 
REMARK       I    between atoms: N2_8  and  C7_9 
REMARK    3  A    between atoms: C7_9  and  C8_11 
REMARK    4  A    between atoms: C8_11  and  C9_12 
REMARK    5  A    between atoms: C9_12  and  C10_13 
REMARK    6  A    between atoms: C10_13  and  C11_14 
REMARK    7  A    between atoms: C11_14  and  C12_15 
REMARK    8  A    between atoms: C12_15  and  N3_16 
ROOT
ATOM      1  C11 NON d   1     -41.673  18.261  -2.647  0.00  0.00     0.020 C 
ENDROOT
BRANCH   1   2
ATOM      2  C10 NON d   1     -42.871  17.460  -3.185  0.00  0.00     0.002 C 
BRANCH   2   3
ATOM      3  C9  NON d   1     -43.151  17.569  -4.691  0.00  0.00     0.009 C 
BRANCH   3   4
ATOM      4  C8  NON d   1     -44.551  18.062  -5.062  0.00  0.00     0.103 C 
BRANCH   4   5
ATOM      5  C7  NON d   1     -45.618  16.989  -4.937  0.00  0.00     0.222 C 
ATOM      6  N2  NON d   1     -46.336  17.106  -3.766  0.00  0.00    -0.325 N 
ATOM      7  H7  NON d   1     -45.935  17.725  -3.074  0.00  0.00     0.169 HD
ATOM      8  O1  NON d   1     -45.778  16.144  -5.810  0.00  0.00    -0.273 OA
BRANCH   6   9
ATOM      9  C6  NON d   1     -47.587  16.538  -3.401  0.00  0.00     0.061 A 
ATOM     10  C5  NON d   1     -48.027  16.902  -2.111  0.00  0.00     0.032 A 
ATOM     11  C4  NON d   1     -49.271  16.501  -1.621  0.00  0.00     0.002 A 
ATOM     12  C3  NON d   1     -50.103  15.735  -2.419  0.00  0.00     0.002 A 
ATOM     13  C2  NON d   1     -49.686  15.358  -3.693  0.00  0.00     0.031 A 
ATOM     14  C1  NON d   1     -48.438  15.753  -4.210  0.00  0.00     0.052 A 
BRANCH  14  15
ATOM     15  N1  NON d   1     -48.079  15.190  -5.435  0.00  0.00    -0.397 N 
ATOM     16  H1  NON d   1     -48.168  15.776  -6.252  0.00  0.00     0.156 HD
ATOM     17  H2  NON d   1     -47.227  14.625  -5.422  0.00  0.00     0.156 HD
ENDBRANCH  14  15
ENDBRANCH   6   9
ENDBRANCH   4   5
ENDBRANCH   3   4
ENDBRANCH   2   3
ENDBRANCH   1   2
BRANCH   1  18
ATOM     18  C12 NON d   1     -40.444  18.191  -3.565  0.00  0.00     0.135 C 
BRANCH  18  19
ATOM     19  N3  NON d   1     -40.216  19.292  -4.511  0.00  0.00    -0.280 N 
ATOM     20  C13 NON d   1     -40.376  18.952  -5.861  0.00  0.00     0.261 C 
ATOM     21  O2  NON d   1     -40.694  17.827  -6.245  0.00  0.00    -0.267 OA
ATOM     22  C14 NON d   1     -40.217  20.027  -6.867  0.00  0.00     0.044 A 
ATOM     23  C15 NON d   1     -40.243  19.696  -8.228  0.00  0.00     0.018 A 
ATOM     24  C23 NON d   1     -40.075  21.358  -6.457  0.00  0.00     0.007 A 
ATOM     25  C16 NON d   1     -40.133  20.692  -9.189  0.00  0.00     0.002 A 
ATOM     26  C17 NON d   1     -39.998  22.023  -8.794  0.00  0.00     0.014 A 
ATOM     27  C18 NON d   1     -39.966  22.393  -7.429  0.00  0.00    -0.006 A 
ATOM     28  C19 NON d   1     -39.846  23.732  -6.974  0.00  0.00     0.022 A 
ATOM     29 Br1  NON d   1     -39.721  25.216  -8.162  0.00  0.00    -0.050 Br
ATOM     30  C20 NON d   1     -39.828  24.031  -5.609  0.00  0.00     0.021 A 
ATOM     31  C21 NON d   1     -39.937  23.008  -4.675  0.00  0.00     0.019 A 
ATOM     32  C22 NON d   1     -40.065  21.677  -5.096  0.00  0.00     0.044 A 
ATOM     33  C24 NON d   1     -40.227  20.615  -4.073  0.00  0.00     0.261 C 
ATOM     34  O3  NON d   1     -40.398  20.970  -2.912  0.00  0.00    -0.267 OA
ENDBRANCH  18  19
ENDBRANCH   1  18
TORSDOF 8
ENDMDL
MODEL 6
REMARK VINA RESULT:   -13.753      4.205      5.686
REMARK INTER + INTRA:         -17.807
REMARK INTER:                 -16.139
REMARK INTRA:                  -1.668
REMARK CONF_INDEPENDENT:        2.386
REMARK UNBOUND:                -1.668
REMARK  8 active torsions:
REMARK  status: ('A' for Active; 'I' for Inactive)
REMARK    1  A    between atoms: N1_1  and  C1_2 
REMARK    2  A    between atoms: C6_7  and  N2_8 
REMARK       I    between atoms: N2_8  and  C7_9 
REMARK    3  A    between atoms: C7_9  and  C8_11 
REMARK    4  A    between atoms: C8_11  and  C9_12 
REMARK    5  A    between atoms: C9_12  and  C10_13 
REMARK    6  A    between atoms: C10_13  and  C11_14 
REMARK    7  A    between atoms: C11_14  and  C12_15 
REMARK    8  A    between atoms: C12_15  and  N3_16 
ROOT
ATOM      1  C11 NON d   1     -41.852  19.285  -4.813  0.00  0.00     0.020 C 
ENDROOT
BRANCH   1   2
ATOM      2  C10 NON d   1     -41.873  18.010  -3.953  0.00  0.00     0.002 C 
BRANCH   2   3
ATOM      3  C9  NON d   1     -43.225  17.293  -3.818  0.00  0.00     0.009 C 
BRANCH   3   4
ATOM      4  C8  NON d   1     -44.326  17.793  -4.754  0.00  0.00     0.103 C 
BRANCH   4   5
ATOM      5  C7  NON d   1     -45.539  16.880  -4.796  0.00  0.00     0.222 C 
ATOM      6  N2  NON d   1     -46.216  16.861  -3.595  0.00  0.00    -0.325 N 
ATOM      7  H7  NON d   1     -45.718  17.265  -2.813  0.00  0.00     0.169 HD
ATOM      8  O1  NON d   1     -45.834  16.259  -5.810  0.00  0.00    -0.273 OA
BRANCH   6   9
ATOM      9  C6  NON d   1     -47.532  16.415  -3.296  0.00  0.00     0.061 A 
ATOM     10  C5  NON d   1     -47.985  16.789  -2.014  0.00  0.00     0.032 A 
ATOM     11  C4  NON d   1     -49.283  16.505  -1.584  0.00  0.00     0.002 A 
ATOM     12  C3  NON d   1     -50.155  15.849  -2.435  0.00  0.00     0.002 A 
ATOM     13  C2  NON d   1     -49.726  15.465  -3.703  0.00  0.00     0.031 A 
ATOM     14  C1  NON d   1     -48.424  15.743  -4.159  0.00  0.00     0.052 A 
BRANCH  14  15
ATOM     15  N1  NON d   1     -48.074  15.178  -5.386  0.00  0.00    -0.397 N 
ATOM     16  H1  NON d   1     -48.190  15.755  -6.206  0.00  0.00     0.156 HD
ATOM     17  H2  NON d   1     -47.210  14.631  -5.384  0.00  0.00     0.156 HD
ENDBRANCH  14  15
ENDBRANCH   6   9
ENDBRANCH   4   5
ENDBRANCH   3   4
ENDBRANCH   2   3
ENDBRANCH   1   2
BRANCH   1  18
ATOM     18  C12 NON d   1     -40.624  20.166  -4.548  0.00  0.00     0.135 C 
BRANCH  18  19
ATOM     19  N3  NON d   1     -40.712  21.185  -3.492  0.00  0.00    -0.280 N 
ATOM     20  C13 NON d   1     -40.305  20.755  -2.222  0.00  0.00     0.261 C 
ATOM     21  O2  NON d   1     -39.890  19.620  -1.989  0.00  0.00    -0.267 OA
ATOM     22  C14 NON d   1     -40.313  21.747  -1.122  0.00  0.00     0.044 A 
ATOM     23  C15 NON d   1     -40.035  21.319   0.182  0.00  0.00     0.018 A 
ATOM     24  C23 NON d   1     -40.565  23.097  -1.394  0.00  0.00     0.007 A 
ATOM     25  C16 NON d   1     -40.001  22.238   1.224  0.00  0.00     0.002 A 
ATOM     26  C17 NON d   1     -40.243  23.586   0.965  0.00  0.00     0.014 A 
ATOM     27  C18 NON d   1     -40.528  24.053  -0.340  0.00  0.00    -0.006 A 
ATOM     28  C19 NON d   1     -40.767  25.415  -0.660  0.00  0.00     0.022 A 
ATOM     29 Br1  NON d   1     -40.722  26.802   0.646  0.00  0.00    -0.050 Br
ATOM     30  C20 NON d   1     -41.036  25.811  -1.972  0.00  0.00     0.021 A 
ATOM     31  C21 NON d   1     -41.065  24.864  -2.989  0.00  0.00     0.019 A 
ATOM     32  C22 NON d   1     -40.826  23.513  -2.703  0.00  0.00     0.044 A 
ATOM     33  C24 NON d   1     -40.818  22.536  -3.819  0.00  0.00     0.261 C 
ATOM     34  O3  NON d   1     -40.866  22.981  -4.961  0.00  0.00    -0.267 OA
ENDBRANCH  18  19
ENDBRANCH   1  18
TORSDOF 8
ENDMDL
MODEL 7
REMARK VINA RESULT:   -13.696      1.982      2.636
REMARK INTER + INTRA:         -17.990
REMARK INTER:                 -16.083
REMARK INTRA:                  -1.907
REMARK CONF_INDEPENDENT:        2.386
REMARK UNBOUND:                -1.907
REMARK  8 active torsions:
REMARK  status: ('A' for Active; 'I' for Inactive)
REMARK    1  A    between atoms: N1_1  and  C1_2 
REMARK    2  A    between atoms: C6_7  and  N2_8 
REMARK       I    between atoms: N2_8  and  C7_9 
REMARK    3  A    between atoms: C7_9  and  C8_11 
REMARK    4  A    between atoms: C8_11  and  C9_12 
REMARK    5  A    between atoms: C9_12  and  C10_13 
REMARK    6  A    between atoms: C10_13  and  C11_14 
REMARK    7  A    between atoms: C11_14  and  C12_15 
REMARK    8  A    between atoms: C12_15  and  N3_16 
ROOT
ATOM      1  C11 NON d   1     -41.607  17.987  -2.643  0.00  0.00     0.020 C 
ENDROOT
BRANCH   1   2
ATOM      2  C10 NON d   1     -42.957  17.489  -3.187  0.00  0.00     0.002 C 
BRANCH   2   3
ATOM      3  C9  NON d   1     -43.202  17.672  -4.692  0.00  0.00     0.009 C 
BRANCH   3   4
ATOM      4  C8  NON d   1     -44.610  18.130  -5.074  0.00  0.00     0.103 C 
BRANCH   4   5
ATOM      5  C7  NON d   1     -45.654  17.035  -4.944  0.00  0.00     0.222 C 
ATOM      6  N2  NON d   1     -46.379  17.147  -3.777  0.00  0.00    -0.325 N 
ATOM      7  H7  NON d   1     -45.996  17.781  -3.089  0.00  0.00     0.169 HD
ATOM      8  O1  NON d   1     -45.791  16.180  -5.810  0.00  0.00    -0.273 OA
BRANCH   6   9
ATOM      9  C6  NON d   1     -47.620  16.555  -3.413  0.00  0.00     0.061 A 
ATOM     10  C5  NON d   1     -48.074  16.921  -2.129  0.00  0.00     0.032 A 
ATOM     11  C4  NON d   1     -49.311  16.497  -1.640  0.00  0.00     0.002 A 
ATOM     12  C3  NON d   1     -50.121  15.705  -2.434  0.00  0.00     0.002 A 
ATOM     13  C2  NON d   1     -49.690  15.325  -3.703  0.00  0.00     0.031 A 
ATOM     14  C1  NON d   1     -48.448  15.743  -4.217  0.00  0.00     0.052 A 
BRANCH  14  15
ATOM     15  N1  NON d   1     -48.071  15.176  -5.435  0.00  0.00    -0.397 N 
ATOM     16  H1  NON d   1     -48.167  15.752  -6.258  0.00  0.00     0.156 HD
ATOM     17  H2  NON d   1     -47.207  14.629  -5.412  0.00  0.00     0.156 HD
ENDBRANCH  14  15
ENDBRANCH   6   9
ENDBRANCH   4   5
ENDBRANCH   3   4
ENDBRANCH   2   3
ENDBRANCH   1   2
BRANCH   1  18
ATOM     18  C12 NON d   1     -40.516  18.058  -3.721  0.00  0.00     0.135 C 
BRANCH  18  19
ATOM     19  N3  NON d   1     -40.480  19.235  -4.600  0.00  0.00    -0.280 N 
ATOM     20  C13 NON d   1     -40.158  20.439  -3.960  0.00  0.00     0.261 C 
ATOM     21  O2  NON d   1     -39.908  20.525  -2.758  0.00  0.00    -0.267 OA
ATOM     22  C14 NON d   1     -40.046  21.657  -4.797  0.00  0.00     0.044 A 
ATOM     23  C15 NON d   1     -39.853  22.896  -4.173  0.00  0.00     0.018 A 
ATOM     24  C23 NON d   1     -40.104  21.559  -6.192  0.00  0.00     0.007 A 
ATOM     25  C16 NON d   1     -39.710  24.046  -4.938  0.00  0.00     0.002 A 
ATOM     26  C17 NON d   1     -39.758  23.961  -6.330  0.00  0.00     0.014 A 
ATOM     27  C18 NON d   1     -39.953  22.726  -6.992  0.00  0.00    -0.006 A 
ATOM     28  C19 NON d   1     -39.995  22.583  -8.404  0.00  0.00     0.022 A 
ATOM     29 Br1  NON d   1     -39.780  24.055  -9.595  0.00  0.00    -0.050 Br
ATOM     30  C20 NON d   1     -40.184  21.332  -8.997  0.00  0.00     0.021 A 
ATOM     31  C21 NON d   1     -40.328  20.203  -8.199  0.00  0.00     0.019 A 
ATOM     32  C22 NON d   1     -40.283  20.314  -6.803  0.00  0.00     0.044 A 
ATOM     33  C24 NON d   1     -40.392  19.083  -5.983  0.00  0.00     0.261 C 
ATOM     34  O3  NON d   1     -40.358  18.007  -6.572  0.00  0.00    -0.267 OA
ENDBRANCH  18  19
ENDBRANCH   1  18
TORSDOF 8
ENDMDL
MODEL 8
REMARK VINA RESULT:   -13.459      1.620      2.178
REMARK INTER + INTRA:         -17.083
REMARK INTER:                 -15.845
REMARK INTRA:                  -1.237
REMARK CONF_INDEPENDENT:        2.386
REMARK UNBOUND:                -1.237
REMARK  8 active torsions:
REMARK  status: ('A' for Active; 'I' for Inactive)
REMARK    1  A    between atoms: N1_1  and  C1_2 
REMARK    2  A    between atoms: C6_7  and  N2_8 
REMARK       I    between atoms: N2_8  and  C7_9 
REMARK    3  A    between atoms: C7_9  and  C8_11 
REMARK    4  A    between atoms: C8_11  and  C9_12 
REMARK    5  A    between atoms: C9_12  and  C10_13 
REMARK    6  A    between atoms: C10_13  and  C11_14 
REMARK    7  A    between atoms: C11_14  and  C12_15 
REMARK    8  A    between atoms: C12_15  and  N3_16 
ROOT
ATOM      1  C11 NON d   1     -41.361  18.138  -5.320  0.00  0.00     0.020 C 
ENDROOT
BRANCH   1   2
ATOM      2  C10 NON d   1     -41.818  17.883  -3.874  0.00  0.00     0.002 C 
BRANCH   2   3
ATOM      3  C9  NON d   1     -43.262  17.396  -3.684  0.00  0.00     0.009 C 
BRANCH   3   4
ATOM      4  C8  NON d   1     -44.200  17.655  -4.865  0.00  0.00     0.103 C 
BRANCH   4   5
ATOM      5  C7  NON d   1     -45.452  16.795  -4.838  0.00  0.00     0.222 C 
ATOM      6  N2  NON d   1     -46.110  16.875  -3.630  0.00  0.00    -0.325 N 
ATOM      7  H7  NON d   1     -45.584  17.302  -2.879  0.00  0.00     0.169 HD
ATOM      8  O1  NON d   1     -45.788  16.129  -5.810  0.00  0.00    -0.273 OA
BRANCH   6   9
ATOM      9  C6  NON d   1     -47.440  16.506  -3.288  0.00  0.00     0.061 A 
ATOM     10  C5  NON d   1     -47.815  16.865  -1.977  0.00  0.00     0.032 A 
ATOM     11  C4  NON d   1     -49.110  16.652  -1.500  0.00  0.00     0.002 A 
ATOM     12  C3  NON d   1     -50.056  16.082  -2.334  0.00  0.00     0.002 A 
ATOM     13  C2  NON d   1     -49.706  15.713  -3.630  0.00  0.00     0.031 A 
ATOM     14  C1  NON d   1     -48.408  15.921  -4.133  0.00  0.00     0.052 A 
BRANCH  14  15
ATOM     15  N1  NON d   1     -48.146  15.376  -5.390  0.00  0.00    -0.397 N 
ATOM     16  H1  NON d   1     -47.390  14.711  -5.452  0.00  0.00     0.156 HD
ATOM     17  H2  NON d   1     -48.972  15.115  -5.933  0.00  0.00     0.156 HD
ENDBRANCH  14  15
ENDBRANCH   6   9
ENDBRANCH   4   5
ENDBRANCH   3   4
ENDBRANCH   2   3
ENDBRANCH   1   2
BRANCH   1  18
ATOM     18  C12 NON d   1     -39.911  18.634  -5.412  0.00  0.00     0.135 C 
BRANCH  18  19
ATOM     19  N3  NON d   1     -39.465  19.258  -6.666  0.00  0.00    -0.280 N 
ATOM     20  C13 NON d   1     -40.099  20.467  -6.979  0.00  0.00     0.261 C 
ATOM     21  O2  NON d   1     -40.956  20.991  -6.268  0.00  0.00    -0.267 OA
ATOM     22  C14 NON d   1     -39.657  21.182  -8.200  0.00  0.00     0.044 A 
ATOM     23  C15 NON d   1     -40.356  22.324  -8.611  0.00  0.00     0.018 A 
ATOM     24  C23 NON d   1     -38.538  20.733  -8.911  0.00  0.00     0.007 A 
ATOM     25  C16 NON d   1     -39.938  23.030  -9.731  0.00  0.00     0.002 A 
ATOM     26  C17 NON d   1     -38.820  22.599 -10.444  0.00  0.00     0.014 A 
ATOM     27  C18 NON d   1     -38.092  21.448 -10.058  0.00  0.00    -0.006 A 
ATOM     28  C19 NON d   1     -36.940  20.974 -10.739  0.00  0.00     0.022 A 
ATOM     29 Br1  NON d   1     -36.218  21.848 -12.271  0.00  0.00    -0.050 Br
ATOM     30  C20 NON d   1     -36.262  19.834 -10.302  0.00  0.00     0.021 A 
ATOM     31  C21 NON d   1     -36.711  19.150  -9.179  0.00  0.00     0.019 A 
ATOM     32  C22 NON d   1     -37.841  19.600  -8.483  0.00  0.00     0.044 A 
ATOM     33  C24 NON d   1     -38.265  18.873  -7.260  0.00  0.00     0.261 C 
ATOM     34  O3  NON d   1     -37.512  18.006  -6.828  0.00  0.00    -0.267 OA
ENDBRANCH  18  19
ENDBRANCH   1  18
TORSDOF 8
ENDMDL
MODEL 9
REMARK VINA RESULT:   -13.368      0.924      2.497
REMARK INTER + INTRA:         -17.497
REMARK INTER:                 -15.754
REMARK INTRA:                  -1.743
REMARK CONF_INDEPENDENT:        2.386
REMARK UNBOUND:                -1.743
REMARK  8 active torsions:
REMARK  status: ('A' for Active; 'I' for Inactive)
REMARK    1  A    between atoms: N1_1  and  C1_2 
REMARK    2  A    between atoms: C6_7  and  N2_8 
REMARK       I    between atoms: N2_8  and  C7_9 
REMARK    3  A    between atoms: C7_9  and  C8_11 
REMARK    4  A    between atoms: C8_11  and  C9_12 
REMARK    5  A    between atoms: C9_12  and  C10_13 
REMARK    6  A    between atoms: C10_13  and  C11_14 
REMARK    7  A    between atoms: C11_14  and  C12_15 
REMARK    8  A    between atoms: C12_15  and  N3_16 
ROOT
ATOM      1  C11 NON d   1     -41.348  18.459  -2.986  0.00  0.00     0.020 C 
ENDROOT
BRANCH   1   2
ATOM      2  C10 NON d   1     -41.808  17.839  -4.316  0.00  0.00     0.002 C 
BRANCH   2   3
ATOM      3  C9  NON d   1     -43.105  17.017  -4.280  0.00  0.00     0.009 C 
BRANCH   3   4
ATOM      4  C8  NON d   1     -44.359  17.755  -4.752  0.00  0.00     0.103 C 
BRANCH   4   5
ATOM      5  C7  NON d   1     -45.596  16.873  -4.791  0.00  0.00     0.222 C 
ATOM      6  N2  NON d   1     -46.267  16.869  -3.588  0.00  0.00    -0.325 N 
ATOM      7  H7  NON d   1     -45.757  17.258  -2.806  0.00  0.00     0.169 HD
ATOM      8  O1  NON d   1     -45.910  16.262  -5.805  0.00  0.00    -0.273 OA
BRANCH   6   9
ATOM      9  C6  NON d   1     -47.594  16.456  -3.284  0.00  0.00     0.061 A 
ATOM     10  C5  NON d   1     -48.002  16.765  -1.970  0.00  0.00     0.032 A 
ATOM     11  C4  NON d   1     -49.300  16.505  -1.526  0.00  0.00     0.002 A 
ATOM     12  C3  NON d   1     -50.217  15.940  -2.395  0.00  0.00     0.002 A 
ATOM     13  C2  NON d   1     -49.833  15.620  -3.695  0.00  0.00     0.031 A 
ATOM     14  C1  NON d   1     -48.531  15.876  -4.165  0.00  0.00     0.052 A 
BRANCH  14  15
ATOM     15  N1  NON d   1     -48.232  15.378  -5.434  0.00  0.00    -0.397 N 
ATOM     16  H1  NON d   1     -48.256  16.033  -6.201  0.00  0.00     0.156 HD
ATOM     17  H2  NON d   1     -47.447  14.725  -5.472  0.00  0.00     0.156 HD
ENDBRANCH  14  15
ENDBRANCH   6   9
ENDBRANCH   4   5
ENDBRANCH   3   4
ENDBRANCH   2   3
ENDBRANCH   1   2
BRANCH   1  18
ATOM     18  C12 NON d   1     -39.937  19.059  -3.059  0.00  0.00     0.135 C 
BRANCH  18  19
ATOM     19  N3  NON d   1     -39.431  19.492  -4.369  0.00  0.00    -0.280 N 
ATOM     20  C13 NON d   1     -38.378  18.721  -4.878  0.00  0.00     0.261 C 
ATOM     21  O2  NON d   1     -37.906  17.745  -4.296  0.00  0.00    -0.267 OA
ATOM     22  C14 NON d   1     -37.856  19.066  -6.222  0.00  0.00     0.044 A 
ATOM     23  C15 NON d   1     -36.723  18.399  -6.703  0.00  0.00     0.018 A 
ATOM     24  C23 NON d   1     -38.511  20.024  -7.005  0.00  0.00     0.007 A 
ATOM     25  C16 NON d   1     -36.238  18.680  -7.974  0.00  0.00     0.002 A 
ATOM     26  C17 NON d   1     -36.885  19.627  -8.768  0.00  0.00     0.014 A 
ATOM     27  C18 NON d   1     -38.031  20.320  -8.312  0.00  0.00    -0.006 A 
ATOM     28  C19 NON d   1     -38.735  21.281  -9.084  0.00  0.00     0.022 A 
ATOM     29 Br1  NON d   1     -38.221  21.753 -10.857  0.00  0.00    -0.050 Br
ATOM     30  C20 NON d   1     -39.866  21.925  -8.577  0.00  0.00     0.021 A 
ATOM     31  C21 NON d   1     -40.321  21.621  -7.299  0.00  0.00     0.019 A 
ATOM     32  C22 NON d   1     -39.650  20.671  -6.518  0.00  0.00     0.044 A 
ATOM     33  C24 NON d   1     -40.190  20.337  -5.177  0.00  0.00     0.261 C 
ATOM     34  O3  NON d   1     -41.289  20.794  -4.880  0.00  0.00    -0.267 OA
ENDBRANCH  18  19
ENDBRANCH   1  18
TORSDOF 8
ENDMDL
