MODEL 1
REMARK VINA RESULT:   -33.683      0.000      0.000
REMARK INTER + INTRA:         -37.549
REMARK INTER:                 -36.368
REMARK INTRA:                  -1.181
REMARK CONF_INDEPENDENT:        2.685
REMARK UNBOUND:                -1.181
REMARK  9 active torsions:
REMARK  status: ('A' for Active; 'I' for Inactive)
REMARK    1  A    between atoms: N1_1  and  C1_2 
REMARK    2  A    between atoms: C6_7  and  N2_8 
REMARK       I    between atoms: N2_8  and  C7_9 
REMARK    3  A    between atoms: C7_9  and  C8_11 
REMARK    4  A    between atoms: C11_14  and  C12_15 
REMARK    5  A    between atoms: C12_15  and  N3_16 
REMARK    6  A    between atoms: N3_16  and  C13_17 
REMARK    7  A    between atoms: C13_17  and  O2_18 
REMARK    8  A    between atoms: O2_18  and  C14_19 
REMARK    9  A    between atoms: C14_19  and  C15_21 
ROOT
ATOM      1  C8  NON d   1     -43.830  17.996  -4.915  0.00  0.00     0.032 A 
ATOM      2  C9  NON d   1     -43.496  19.253  -5.441  0.00  0.00     0.017 A 
ATOM      3  C10 NON d   1     -42.172  19.703  -5.455  0.00  0.00     0.010 A 
ATOM      4  C11 NON d   1     -41.135  18.908  -4.946  0.00  0.00    -0.030 A 
ATOM      5  C20 NON d   1     -41.464  17.637  -4.457  0.00  0.00     0.010 A 
ATOM      6  C21 NON d   1     -42.795  17.188  -4.427  0.00  0.00     0.017 A 
ENDROOT
BRANCH   1   7
ATOM      7  C7  NON d   1     -45.287  17.625  -4.889  0.00  0.00     0.256 C 
ATOM      8  N2  NON d   1     -45.782  17.091  -3.715  0.00  0.00    -0.321 N 
ATOM      9  H7  NON d   1     -45.151  16.869  -2.960  0.00  0.00     0.169 HD
ATOM     10  O1  NON d   1     -45.948  17.846  -5.899  0.00  0.00    -0.267 OA
BRANCH   8  11
ATOM     11  C6  NON d   1     -47.118  16.716  -3.430  0.00  0.00     0.056 A 
ATOM     12  C5  NON d   1     -47.699  16.802  -2.162  0.00  0.00     0.031 A 
ATOM     13  C4  NON d   1     -49.046  16.479  -1.976  0.00  0.00     0.002 A 
ATOM     14  C3  NON d   1     -49.828  16.083  -3.057  0.00  0.00     0.002 A 
ATOM     15  C2  NON d   1     -49.259  15.983  -4.327  0.00  0.00     0.025 A 
ATOM     16  C1  NON d   1     -47.898  16.250  -4.516  0.00  0.00     0.033 A 
BRANCH  16  17
ATOM     17  N1  NON d   1     -47.333  16.130  -5.810  0.00  0.00    -0.301 NA
ATOM     18  H1  NON d   1     -46.388  15.755  -5.781  0.00  0.00     0.124 HD
ATOM     19  H2  NON d   1     -47.327  17.033  -6.278  0.00  0.00     0.124 HD
ENDBRANCH  16  17
ENDBRANCH   8  11
ENDBRANCH   1   7
BRANCH   4  20
ATOM     20  C12 NON d   1     -39.720  19.450  -5.003  0.00  0.00     0.310 C 
BRANCH  20  21
ATOM     21  N3  NON d   1     -39.489  20.730  -4.329  0.00  0.00     0.111 N 
ATOM     22  H12 NON d   1     -38.653  20.644  -3.755  0.00  0.00     0.319 HD
BRANCH  21  23
ATOM     23  C13 NON d   1     -39.242  21.814  -5.273  0.00  0.00     0.448 C 
BRANCH  23  24
ATOM     24  O2  NON d   1     -40.315  21.847  -6.215  0.00  0.00    -0.287 OA
BRANCH  24  25
ATOM     25  C14 NON d   1     -39.903  21.888  -7.505  0.00  0.00     0.296 C 
ATOM     26  O3  NON d   1     -40.075  22.818  -8.278  0.00  0.00    -0.259 OA
BRANCH  25  27
ATOM     27  C15 NON d   1     -39.196  20.647  -7.888  0.00  0.00     0.057 A 
ATOM     28  C16 NON d   1     -39.934  19.475  -8.086  0.00  0.00     0.020 A 
ATOM     29  C17 NON d   1     -39.277  18.296  -8.433  0.00  0.00     0.020 A 
ATOM     30  C18 NON d   1     -37.898  18.328  -8.566  0.00  0.00     0.116 A 
ATOM     31  N4  NON d   1     -37.153  19.442  -8.383  0.00  0.00    -0.272 NA
ATOM     32  C19 NON d   1     -37.819  20.578  -8.051  0.00  0.00     0.133 A 
ENDBRANCH  25  27
ENDBRANCH  24  25
ENDBRANCH  23  24
ENDBRANCH  21  23
ENDBRANCH  20  21
ENDBRANCH   4  20
TORSDOF 9
ENDMDL
MODEL 2
REMARK VINA RESULT:   -33.681      1.658      2.193
REMARK INTER + INTRA:         -37.609
REMARK INTER:                 -36.365
REMARK INTRA:                  -1.244
REMARK CONF_INDEPENDENT:        2.685
REMARK UNBOUND:                -1.244
REMARK  9 active torsions:
REMARK  status: ('A' for Active; 'I' for Inactive)
REMARK    1  A    between atoms: N1_1  and  C1_2 
REMARK    2  A    between atoms: C6_7  and  N2_8 
REMARK       I    between atoms: N2_8  and  C7_9 
REMARK    3  A    between atoms: C7_9  and  C8_11 
REMARK    4  A    between atoms: C11_14  and  C12_15 
REMARK    5  A    between atoms: C12_15  and  N3_16 
REMARK    6  A    between atoms: N3_16  and  C13_17 
REMARK    7  A    between atoms: C13_17  and  O2_18 
REMARK    8  A    between atoms: O2_18  and  C14_19 
REMARK    9  A    between atoms: C14_19  and  C15_21 
ROOT
ATOM      1  C8  NON d   1     -43.746  18.006  -4.713  0.00  0.00     0.032 A 
ATOM      2  C9  NON d   1     -43.400  19.264  -5.229  0.00  0.00     0.017 A 
ATOM      3  C10 NON d   1     -42.083  19.731  -5.176  0.00  0.00     0.010 A 
ATOM      4  C11 NON d   1     -41.064  18.951  -4.610  0.00  0.00    -0.030 A 
ATOM      5  C20 NON d   1     -41.403  17.678  -4.131  0.00  0.00     0.010 A 
ATOM      6  C21 NON d   1     -42.728  17.213  -4.169  0.00  0.00     0.017 A 
ENDROOT
BRANCH   1   7
ATOM      7  C7  NON d   1     -45.198  17.617  -4.761  0.00  0.00     0.256 C 
ATOM      8  N2  NON d   1     -45.738  17.049  -3.623  0.00  0.00    -0.321 N 
ATOM      9  H7  NON d   1     -45.137  16.817  -2.846  0.00  0.00     0.169 HD
ATOM     10  O1  NON d   1     -45.817  17.853  -5.794  0.00  0.00    -0.267 OA
BRANCH   8  11
ATOM     11  C6  NON d   1     -47.080  16.652  -3.406  0.00  0.00     0.056 A 
ATOM     12  C5  NON d   1     -47.714  16.693  -2.162  0.00  0.00     0.031 A 
ATOM     13  C4  NON d   1     -49.064  16.351  -2.043  0.00  0.00     0.002 A 
ATOM     14  C3  NON d   1     -49.795  15.979  -3.167  0.00  0.00     0.002 A 
ATOM     15  C2  NON d   1     -49.172  15.923  -4.414  0.00  0.00     0.025 A 
ATOM     16  C1  NON d   1     -47.807  16.210  -4.537  0.00  0.00     0.033 A 
BRANCH  16  17
ATOM     17  N1  NON d   1     -47.187  16.136  -5.810  0.00  0.00    -0.301 NA
ATOM     18  H1  NON d   1     -46.205  15.881  -5.740  0.00  0.00     0.124 HD
ATOM     19  H2  NON d   1     -47.275  17.023  -6.298  0.00  0.00     0.124 HD
ENDBRANCH  16  17
ENDBRANCH   8  11
ENDBRANCH   1   7
BRANCH   4  20
ATOM     20  C12 NON d   1     -39.656  19.511  -4.597  0.00  0.00     0.310 C 
BRANCH  20  21
ATOM     21  N3  NON d   1     -38.576  18.554  -4.856  0.00  0.00     0.111 N 
ATOM     22  H12 NON d   1     -38.655  18.235  -5.819  0.00  0.00     0.319 HD
BRANCH  21  23
ATOM     23  C13 NON d   1     -37.257  19.161  -4.719  0.00  0.00     0.448 C 
BRANCH  23  24
ATOM     24  O2  NON d   1     -36.884  19.720  -5.980  0.00  0.00    -0.287 OA
BRANCH  24  25
ATOM     25  C14 NON d   1     -37.406  19.060  -7.041  0.00  0.00     0.296 C 
ATOM     26  O3  NON d   1     -37.039  17.971  -7.455  0.00  0.00    -0.259 OA
BRANCH  25  27
ATOM     27  C15 NON d   1     -38.509  19.824  -7.665  0.00  0.00     0.057 A 
ATOM     28  C16 NON d   1     -38.572  21.209  -7.477  0.00  0.00     0.020 A 
ATOM     29  C17 NON d   1     -39.614  21.936  -8.047  0.00  0.00     0.020 A 
ATOM     30  C18 NON d   1     -40.566  21.250  -8.783  0.00  0.00     0.116 A 
ATOM     31  N4  NON d   1     -40.538  19.914  -8.986  0.00  0.00    -0.272 NA
ATOM     32  C19 NON d   1     -39.508  19.230  -8.424  0.00  0.00     0.133 A 
ENDBRANCH  25  27
ENDBRANCH  24  25
ENDBRANCH  23  24
ENDBRANCH  21  23
ENDBRANCH  20  21
ENDBRANCH   4  20
TORSDOF 9
ENDMDL
MODEL 3
REMARK VINA RESULT:   -33.643      1.825      2.336
REMARK INTER + INTRA:         -38.295
REMARK INTER:                 -36.328
REMARK INTRA:                  -1.967
REMARK CONF_INDEPENDENT:        2.685
REMARK UNBOUND:                -1.967
REMARK  9 active torsions:
REMARK  status: ('A' for Active; 'I' for Inactive)
REMARK    1  A    between atoms: N1_1  and  C1_2 
REMARK    2  A    between atoms: C6_7  and  N2_8 
REMARK       I    between atoms: N2_8  and  C7_9 
REMARK    3  A    between atoms: C7_9  and  C8_11 
REMARK    4  A    between atoms: C11_14  and  C12_15 
REMARK    5  A    between atoms: C12_15  and  N3_16 
REMARK    6  A    between atoms: N3_16  and  C13_17 
REMARK    7  A    between atoms: C13_17  and  O2_18 
REMARK    8  A    between atoms: O2_18  and  C14_19 
REMARK    9  A    between atoms: C14_19  and  C15_21 
ROOT
ATOM      1  C8  NON d   1     -43.779  17.987  -4.810  0.00  0.00     0.032 A 
ATOM      2  C9  NON d   1     -43.412  19.190  -5.432  0.00  0.00     0.017 A 
ATOM      3  C10 NON d   1     -42.084  19.631  -5.429  0.00  0.00     0.010 A 
ATOM      4  C11 NON d   1     -41.077  18.879  -4.806  0.00  0.00    -0.030 A 
ATOM      5  C20 NON d   1     -41.439  17.659  -4.220  0.00  0.00     0.010 A 
ATOM      6  C21 NON d   1     -42.773  17.221  -4.208  0.00  0.00     0.017 A 
ENDROOT
BRANCH   1   7
ATOM      7  C7  NON d   1     -45.240  17.627  -4.814  0.00  0.00     0.256 C 
ATOM      8  N2  NON d   1     -45.748  17.037  -3.673  0.00  0.00    -0.321 N 
ATOM      9  H7  NON d   1     -45.124  16.772  -2.926  0.00  0.00     0.169 HD
ATOM     10  O1  NON d   1     -45.891  17.905  -5.817  0.00  0.00    -0.267 OA
BRANCH   8  11
ATOM     11  C6  NON d   1     -47.089  16.660  -3.418  0.00  0.00     0.056 A 
ATOM     12  C5  NON d   1     -47.689  16.717  -2.157  0.00  0.00     0.031 A 
ATOM     13  C4  NON d   1     -49.039  16.393  -1.999  0.00  0.00     0.002 A 
ATOM     14  C3  NON d   1     -49.805  16.026  -3.101  0.00  0.00     0.002 A 
ATOM     15  C2  NON d   1     -49.217  15.954  -4.364  0.00  0.00     0.025 A 
ATOM     16  C1  NON d   1     -47.853  16.222  -4.526  0.00  0.00     0.033 A 
BRANCH  16  17
ATOM     17  N1  NON d   1     -47.269  16.132  -5.815  0.00  0.00    -0.301 NA
ATOM     18  H1  NON d   1     -46.323  15.761  -5.779  0.00  0.00     0.124 HD
ATOM     19  H2  NON d   1     -47.260  17.045  -6.263  0.00  0.00     0.124 HD
ENDBRANCH  16  17
ENDBRANCH   8  11
ENDBRANCH   1   7
BRANCH   4  20
ATOM     20  C12 NON d   1     -39.657  19.407  -4.851  0.00  0.00     0.310 C 
BRANCH  20  21
ATOM     21  N3  NON d   1     -38.784  18.832  -5.878  0.00  0.00     0.111 N 
ATOM     22  H12 NON d   1     -39.368  18.391  -6.585  0.00  0.00     0.319 HD
BRANCH  21  23
ATOM     23  C13 NON d   1     -37.991  19.849  -6.560  0.00  0.00     0.448 C 
BRANCH  23  24
ATOM     24  O2  NON d   1     -38.290  19.793  -7.956  0.00  0.00    -0.287 OA
BRANCH  24  25
ATOM     25  C14 NON d   1     -39.573  20.114  -8.248  0.00  0.00     0.296 C 
ATOM     26  O3  NON d   1     -40.556  19.446  -7.966  0.00  0.00    -0.259 OA
BRANCH  25  27
ATOM     27  C15 NON d   1     -39.660  21.404  -8.967  0.00  0.00     0.057 A 
ATOM     28  C16 NON d   1     -39.151  21.497 -10.267  0.00  0.00     0.020 A 
ATOM     29  C17 NON d   1     -39.213  22.710 -10.947  0.00  0.00     0.020 A 
ATOM     30  C18 NON d   1     -39.780  23.797 -10.300  0.00  0.00     0.116 A 
ATOM     31  N4  NON d   1     -40.282  23.744  -9.046  0.00  0.00    -0.272 NA
ATOM     32  C19 NON d   1     -40.213  22.547  -8.408  0.00  0.00     0.133 A 
ENDBRANCH  25  27
ENDBRANCH  24  25
ENDBRANCH  23  24
ENDBRANCH  21  23
ENDBRANCH  20  21
ENDBRANCH   4  20
TORSDOF 9
ENDMDL
MODEL 4
REMARK VINA RESULT:   -33.563      3.047      4.948
REMARK INTER + INTRA:         -37.734
REMARK INTER:                 -36.247
REMARK INTRA:                  -1.486
REMARK CONF_INDEPENDENT:        2.685
REMARK UNBOUND:                -1.486
REMARK  9 active torsions:
REMARK  status: ('A' for Active; 'I' for Inactive)
REMARK    1  A    between atoms: N1_1  and  C1_2 
REMARK    2  A    between atoms: C6_7  and  N2_8 
REMARK       I    between atoms: N2_8  and  C7_9 
REMARK    3  A    between atoms: C7_9  and  C8_11 
REMARK    4  A    between atoms: C11_14  and  C12_15 
REMARK    5  A    between atoms: C12_15  and  N3_16 
REMARK    6  A    between atoms: N3_16  and  C13_17 
REMARK    7  A    between atoms: C13_17  and  O2_18 
REMARK    8  A    between atoms: O2_18  and  C14_19 
REMARK    9  A    between atoms: C14_19  and  C15_21 
ROOT
ATOM      1  C8  NON d   1     -43.861  18.171  -4.846  0.00  0.00     0.032 A 
ATOM      2  C9  NON d   1     -42.899  17.250  -4.405  0.00  0.00     0.017 A 
ATOM      3  C10 NON d   1     -41.536  17.565  -4.417  0.00  0.00     0.010 A 
ATOM      4  C11 NON d   1     -41.090  18.816  -4.868  0.00  0.00    -0.030 A 
ATOM      5  C20 NON d   1     -42.055  19.749  -5.271  0.00  0.00     0.010 A 
ATOM      6  C21 NON d   1     -43.422  19.430  -5.274  0.00  0.00     0.017 A 
ENDROOT
BRANCH   1   7
ATOM      7  C7  NON d   1     -45.296  17.719  -4.851  0.00  0.00     0.256 C 
ATOM      8  N2  NON d   1     -45.790  17.172  -3.683  0.00  0.00    -0.321 N 
ATOM      9  H7  NON d   1     -45.167  16.995  -2.910  0.00  0.00     0.169 HD
ATOM     10  O1  NON d   1     -45.942  17.889  -5.881  0.00  0.00    -0.267 OA
BRANCH   8  11
ATOM     11  C6  NON d   1     -47.110  16.726  -3.427  0.00  0.00     0.056 A 
ATOM     12  C5  NON d   1     -47.721  16.780  -2.171  0.00  0.00     0.031 A 
ATOM     13  C4  NON d   1     -49.052  16.386  -2.013  0.00  0.00     0.002 A 
ATOM     14  C3  NON d   1     -49.789  15.949  -3.110  0.00  0.00     0.002 A 
ATOM     15  C2  NON d   1     -49.188  15.879  -4.368  0.00  0.00     0.025 A 
ATOM     16  C1  NON d   1     -47.840  16.219  -4.528  0.00  0.00     0.033 A 
BRANCH  16  17
ATOM     17  N1  NON d   1     -47.242  16.130  -5.810  0.00  0.00    -0.301 NA
ATOM     18  H1  NON d   1     -46.272  15.832  -5.758  0.00  0.00     0.124 HD
ATOM     19  H2  NON d   1     -47.299  17.025  -6.289  0.00  0.00     0.124 HD
ENDBRANCH  16  17
ENDBRANCH   8  11
ENDBRANCH   1   7
BRANCH   4  20
ATOM     20  C12 NON d   1     -39.601  19.098  -4.842  0.00  0.00     0.310 C 
BRANCH  20  21
ATOM     21  N3  NON d   1     -38.911  18.823  -3.580  0.00  0.00     0.111 N 
ATOM     22  H12 NON d   1     -38.121  19.460  -3.500  0.00  0.00     0.319 HD
BRANCH  21  23
ATOM     23  C13 NON d   1     -39.764  19.062  -2.421  0.00  0.00     0.448 C 
BRANCH  23  24
ATOM     24  O2  NON d   1     -40.147  20.438  -2.418  0.00  0.00    -0.287 OA
BRANCH  24  25
ATOM     25  C14 NON d   1     -39.184  21.268  -1.949  0.00  0.00     0.296 C 
ATOM     26  O3  NON d   1     -38.041  21.343  -2.370  0.00  0.00    -0.259 OA
BRANCH  25  27
ATOM     27  C15 NON d   1     -39.685  22.104  -0.836  0.00  0.00     0.057 A 
ATOM     28  C16 NON d   1     -39.099  21.979   0.428  0.00  0.00     0.020 A 
ATOM     29  C17 NON d   1     -39.572  22.751   1.487  0.00  0.00     0.020 A 
ATOM     30  C18 NON d   1     -40.623  23.621   1.246  0.00  0.00     0.116 A 
ATOM     31  N4  NON d   1     -41.213  23.769   0.038  0.00  0.00    -0.272 NA
ATOM     32  C19 NON d   1     -40.728  23.008  -0.977  0.00  0.00     0.133 A 
ENDBRANCH  25  27
ENDBRANCH  24  25
ENDBRANCH  23  24
ENDBRANCH  21  23
ENDBRANCH  20  21
ENDBRANCH   4  20
TORSDOF 9
ENDMDL
MODEL 5
REMARK VINA RESULT:   -33.296      3.254      5.080
REMARK INTER + INTRA:         -37.847
REMARK INTER:                 -35.981
REMARK INTRA:                  -1.866
REMARK CONF_INDEPENDENT:        2.685
REMARK UNBOUND:                -1.866
REMARK  9 active torsions:
REMARK  status: ('A' for Active; 'I' for Inactive)
REMARK    1  A    between atoms: N1_1  and  C1_2 
REMARK    2  A    between atoms: C6_7  and  N2_8 
REMARK       I    between atoms: N2_8  and  C7_9 
REMARK    3  A    between atoms: C7_9  and  C8_11 
REMARK    4  A    between atoms: C11_14  and  C12_15 
REMARK    5  A    between atoms: C12_15  and  N3_16 
REMARK    6  A    between atoms: N3_16  and  C13_17 
REMARK    7  A    between atoms: C13_17  and  O2_18 
REMARK    8  A    between atoms: O2_18  and  C14_19 
REMARK    9  A    between atoms: C14_19  and  C15_21 
ROOT
ATOM      1  C8  NON d   1     -43.626  17.946  -4.751  0.00  0.00     0.032 A 
ATOM      2  C9  NON d   1     -43.212  19.081  -5.465  0.00  0.00     0.017 A 
ATOM      3  C10 NON d   1     -41.878  19.500  -5.446  0.00  0.00     0.010 A 
ATOM      4  C11 NON d   1     -40.911  18.796  -4.714  0.00  0.00    -0.030 A 
ATOM      5  C20 NON d   1     -41.318  17.640  -4.034  0.00  0.00     0.010 A 
ATOM      6  C21 NON d   1     -42.660  17.225  -4.039  0.00  0.00     0.017 A 
ENDROOT
BRANCH   1   7
ATOM      7  C7  NON d   1     -45.092  17.608  -4.784  0.00  0.00     0.256 C 
ATOM      8  N2  NON d   1     -45.635  17.041  -3.647  0.00  0.00    -0.321 N 
ATOM      9  H7  NON d   1     -45.033  16.777  -2.883  0.00  0.00     0.169 HD
ATOM     10  O1  NON d   1     -45.716  17.882  -5.805  0.00  0.00    -0.267 OA
BRANCH   8  11
ATOM     11  C6  NON d   1     -46.987  16.687  -3.418  0.00  0.00     0.056 A 
ATOM     12  C5  NON d   1     -47.614  16.770  -2.172  0.00  0.00     0.031 A 
ATOM     13  C4  NON d   1     -48.973  16.469  -2.041  0.00  0.00     0.002 A 
ATOM     14  C3  NON d   1     -49.720  16.098  -3.156  0.00  0.00     0.002 A 
ATOM     15  C2  NON d   1     -49.104  16.001  -4.404  0.00  0.00     0.025 A 
ATOM     16  C1  NON d   1     -47.732  16.246  -4.537  0.00  0.00     0.033 A 
BRANCH  16  17
ATOM     17  N1  NON d   1     -47.120  16.130  -5.811  0.00  0.00    -0.301 NA
ATOM     18  H1  NON d   1     -46.148  15.841  -5.741  0.00  0.00     0.124 HD
ATOM     19  H2  NON d   1     -47.178  17.012  -6.313  0.00  0.00     0.124 HD
ENDBRANCH  16  17
ENDBRANCH   8  11
ENDBRANCH   1   7
BRANCH   4  20
ATOM     20  C12 NON d   1     -39.481  19.297  -4.747  0.00  0.00     0.310 C 
BRANCH  20  21
ATOM     21  N3  NON d   1     -39.169  20.425  -3.867  0.00  0.00     0.111 N 
ATOM     22  H12 NON d   1     -39.877  21.143  -4.002  0.00  0.00     0.319 HD
BRANCH  21  23
ATOM     23  C13 NON d   1     -39.210  20.053  -2.457  0.00  0.00     0.448 C 
BRANCH  23  24
ATOM     24  O2  NON d   1     -39.191  21.247  -1.673  0.00  0.00    -0.287 OA
BRANCH  24  25
ATOM     25  C14 NON d   1     -40.282  22.030  -1.851  0.00  0.00     0.296 C 
ATOM     26  O3  NON d   1     -40.982  22.060  -2.852  0.00  0.00    -0.259 OA
BRANCH  25  27
ATOM     27  C15 NON d   1     -40.548  22.868  -0.662  0.00  0.00     0.057 A 
ATOM     28  C16 NON d   1     -39.957  22.527   0.559  0.00  0.00     0.020 A 
ATOM     29  C17 NON d   1     -40.212  23.301   1.689  0.00  0.00     0.020 A 
ATOM     30  C18 NON d   1     -41.057  24.391   1.561  0.00  0.00     0.116 A 
ATOM     31  N4  NON d   1     -41.646  24.750   0.397  0.00  0.00    -0.272 NA
ATOM     32  C19 NON d   1     -41.376  23.982  -0.690  0.00  0.00     0.133 A 
ENDBRANCH  25  27
ENDBRANCH  24  25
ENDBRANCH  23  24
ENDBRANCH  21  23
ENDBRANCH  20  21
ENDBRANCH   4  20
TORSDOF 9
ENDMDL
MODEL 6
REMARK VINA RESULT:   -33.225      1.544      2.028
REMARK INTER + INTRA:         -37.563
REMARK INTER:                 -35.910
REMARK INTRA:                  -1.654
REMARK CONF_INDEPENDENT:        2.685
REMARK UNBOUND:                -1.654
REMARK  9 active torsions:
REMARK  status: ('A' for Active; 'I' for Inactive)
REMARK    1  A    between atoms: N1_1  and  C1_2 
REMARK    2  A    between atoms: C6_7  and  N2_8 
REMARK       I    between atoms: N2_8  and  C7_9 
REMARK    3  A    between atoms: C7_9  and  C8_11 
REMARK    4  A    between atoms: C11_14  and  C12_15 
REMARK    5  A    between atoms: C12_15  and  N3_16 
REMARK    6  A    between atoms: N3_16  and  C13_17 
REMARK    7  A    between atoms: C13_17  and  O2_18 
REMARK    8  A    between atoms: O2_18  and  C14_19 
REMARK    9  A    between atoms: C14_19  and  C15_21 
ROOT
ATOM      1  C8  NON d   1     -43.570  17.688  -4.370  0.00  0.00     0.032 A 
ATOM      2  C9  NON d   1     -43.073  17.833  -3.066  0.00  0.00     0.017 A 
ATOM      3  C10 NON d   1     -41.706  18.008  -2.828  0.00  0.00     0.010 A 
ATOM      4  C11 NON d   1     -40.789  18.049  -3.888  0.00  0.00    -0.030 A 
ATOM      5  C20 NON d   1     -41.291  17.945  -5.192  0.00  0.00     0.010 A 
ATOM      6  C21 NON d   1     -42.661  17.753  -5.434  0.00  0.00     0.017 A 
ENDROOT
BRANCH   1   7
ATOM      7  C7  NON d   1     -45.046  17.444  -4.521  0.00  0.00     0.256 C 
ATOM      8  N2  NON d   1     -45.687  16.786  -3.489  0.00  0.00    -0.321 N 
ATOM      9  H7  NON d   1     -45.147  16.402  -2.729  0.00  0.00     0.169 HD
ATOM     10  O1  NON d   1     -45.592  17.868  -5.536  0.00  0.00    -0.267 OA
BRANCH   8  11
ATOM     11  C6  NON d   1     -47.068  16.490  -3.376  0.00  0.00     0.056 A 
ATOM     12  C5  NON d   1     -47.773  16.510  -2.170  0.00  0.00     0.031 A 
ATOM     13  C4  NON d   1     -49.150  16.274  -2.151  0.00  0.00     0.002 A 
ATOM     14  C3  NON d   1     -49.837  16.033  -3.337  0.00  0.00     0.002 A 
ATOM     15  C2  NON d   1     -49.144  16.000  -4.547  0.00  0.00     0.025 A 
ATOM     16  C1  NON d   1     -47.756  16.180  -4.573  0.00  0.00     0.033 A 
BRANCH  16  17
ATOM     17  N1  NON d   1     -47.065  16.130  -5.810  0.00  0.00    -0.301 NA
ATOM     18  H1  NON d   1     -46.071  15.958  -5.685  0.00  0.00     0.124 HD
ATOM     19  H2  NON d   1     -47.199  16.997  -6.324  0.00  0.00     0.124 HD
ENDBRANCH  16  17
ENDBRANCH   8  11
ENDBRANCH   1   7
BRANCH   4  20
ATOM     20  C12 NON d   1     -39.323  18.256  -3.562  0.00  0.00     0.310 C 
BRANCH  20  21
ATOM     21  N3  NON d   1     -39.031  18.996  -2.332  0.00  0.00     0.111 N 
ATOM     22  H12 NON d   1     -38.247  18.546  -1.865  0.00  0.00     0.319 HD
BRANCH  21  23
ATOM     23  C13 NON d   1     -38.630  20.373  -2.599  0.00  0.00     0.448 C 
BRANCH  23  24
ATOM     24  O2  NON d   1     -38.264  20.478  -3.976  0.00  0.00    -0.287 OA
BRANCH  24  25
ATOM     25  C14 NON d   1     -39.198  21.094  -4.739  0.00  0.00     0.296 C 
ATOM     26  O3  NON d   1     -39.835  22.087  -4.423  0.00  0.00    -0.259 OA
BRANCH  25  27
ATOM     27  C15 NON d   1     -39.367  20.415  -6.043  0.00  0.00     0.057 A 
ATOM     28  C16 NON d   1     -38.298  19.687  -6.576  0.00  0.00     0.020 A 
ATOM     29  C17 NON d   1     -38.440  19.057  -7.810  0.00  0.00     0.020 A 
ATOM     30  C18 NON d   1     -39.649  19.180  -8.475  0.00  0.00     0.116 A 
ATOM     31  N4  NON d   1     -40.704  19.875  -7.990  0.00  0.00    -0.272 NA
ATOM     32  C19 NON d   1     -40.540  20.475  -6.783  0.00  0.00     0.133 A 
ENDBRANCH  25  27
ENDBRANCH  24  25
ENDBRANCH  23  24
ENDBRANCH  21  23
ENDBRANCH  20  21
ENDBRANCH   4  20
TORSDOF 9
ENDMDL
MODEL 7
REMARK VINA RESULT:   -33.192      2.858      4.019
REMARK INTER + INTRA:         -37.236
REMARK INTER:                 -35.876
REMARK INTRA:                  -1.360
REMARK CONF_INDEPENDENT:        2.685
REMARK UNBOUND:                -1.360
REMARK  9 active torsions:
REMARK  status: ('A' for Active; 'I' for Inactive)
REMARK    1  A    between atoms: N1_1  and  C1_2 
REMARK    2  A    between atoms: C6_7  and  N2_8 
REMARK       I    between atoms: N2_8  and  C7_9 
REMARK    3  A    between atoms: C7_9  and  C8_11 
REMARK    4  A    between atoms: C11_14  and  C12_15 
REMARK    5  A    between atoms: C12_15  and  N3_16 
REMARK    6  A    between atoms: N3_16  and  C13_17 
REMARK    7  A    between atoms: C13_17  and  O2_18 
REMARK    8  A    between atoms: O2_18  and  C14_19 
REMARK    9  A    between atoms: C14_19  and  C15_21 
ROOT
ATOM      1  C8  NON d   1     -43.670  17.909  -4.427  0.00  0.00     0.032 A 
ATOM      2  C9  NON d   1     -43.022  17.495  -3.254  0.00  0.00     0.017 A 
ATOM      3  C10 NON d   1     -41.658  17.732  -3.058  0.00  0.00     0.010 A 
ATOM      4  C11 NON d   1     -40.895  18.397  -4.029  0.00  0.00    -0.030 A 
ATOM      5  C20 NON d   1     -41.551  18.846  -5.183  0.00  0.00     0.010 A 
ATOM      6  C21 NON d   1     -42.918  18.596  -5.389  0.00  0.00     0.017 A 
ENDROOT
BRANCH   1   7
ATOM      7  C7  NON d   1     -45.125  17.556  -4.573  0.00  0.00     0.256 C 
ATOM      8  N2  NON d   1     -45.730  16.921  -3.506  0.00  0.00    -0.321 N 
ATOM      9  H7  NON d   1     -45.174  16.621  -2.720  0.00  0.00     0.169 HD
ATOM     10  O1  NON d   1     -45.687  17.879  -5.615  0.00  0.00    -0.267 OA
BRANCH   8  11
ATOM     11  C6  NON d   1     -47.089  16.538  -3.384  0.00  0.00     0.056 A 
ATOM     12  C5  NON d   1     -47.792  16.536  -2.177  0.00  0.00     0.031 A 
ATOM     13  C4  NON d   1     -49.152  16.212  -2.150  0.00  0.00     0.002 A 
ATOM     14  C3  NON d   1     -49.823  15.904  -3.330  0.00  0.00     0.002 A 
ATOM     15  C2  NON d   1     -49.130  15.892  -4.541  0.00  0.00     0.025 A 
ATOM     16  C1  NON d   1     -47.757  16.160  -4.573  0.00  0.00     0.033 A 
BRANCH  16  17
ATOM     17  N1  NON d   1     -47.066  16.131  -5.811  0.00  0.00    -0.301 NA
ATOM     18  H1  NON d   1     -46.094  15.853  -5.698  0.00  0.00     0.124 HD
ATOM     19  H2  NON d   1     -47.110  17.041  -6.262  0.00  0.00     0.124 HD
ENDBRANCH  16  17
ENDBRANCH   8  11
ENDBRANCH   1   7
BRANCH   4  20
ATOM     20  C12 NON d   1     -39.425  18.634  -3.748  0.00  0.00     0.310 C 
BRANCH  20  21
ATOM     21  N3  NON d   1     -39.095  19.160  -2.421  0.00  0.00     0.111 N 
ATOM     22  H12 NON d   1     -39.232  18.418  -1.738  0.00  0.00     0.319 HD
BRANCH  21  23
ATOM     23  C13 NON d   1     -37.699  19.573  -2.322  0.00  0.00     0.448 C 
BRANCH  23  24
ATOM     24  O2  NON d   1     -37.660  20.984  -2.105  0.00  0.00    -0.287 OA
BRANCH  24  25
ATOM     25  C14 NON d   1     -38.777  21.474  -1.518  0.00  0.00     0.296 C 
ATOM     26  O3  NON d   1     -39.121  21.276  -0.363  0.00  0.00    -0.259 OA
BRANCH  25  27
ATOM     27  C15 NON d   1     -39.562  22.307  -2.456  0.00  0.00     0.057 A 
ATOM     28  C16 NON d   1     -39.175  22.372  -3.798  0.00  0.00     0.020 A 
ATOM     29  C17 NON d   1     -39.897  23.165  -4.687  0.00  0.00     0.020 A 
ATOM     30  C18 NON d   1     -40.984  23.873  -4.200  0.00  0.00     0.116 A 
ATOM     31  N4  NON d   1     -41.387  23.834  -2.910  0.00  0.00    -0.272 NA
ATOM     32  C19 NON d   1     -40.669  23.049  -2.066  0.00  0.00     0.133 A 
ENDBRANCH  25  27
ENDBRANCH  24  25
ENDBRANCH  23  24
ENDBRANCH  21  23
ENDBRANCH  20  21
ENDBRANCH   4  20
TORSDOF 9
ENDMDL
MODEL 8
REMARK VINA RESULT:   -31.438      3.243      9.707
REMARK INTER + INTRA:         -36.052
REMARK INTER:                 -34.122
REMARK INTRA:                  -1.929
REMARK CONF_INDEPENDENT:        2.685
REMARK UNBOUND:                -1.929
REMARK  9 active torsions:
REMARK  status: ('A' for Active; 'I' for Inactive)
REMARK    1  A    between atoms: N1_1  and  C1_2 
REMARK    2  A    between atoms: C6_7  and  N2_8 
REMARK       I    between atoms: N2_8  and  C7_9 
REMARK    3  A    between atoms: C7_9  and  C8_11 
REMARK    4  A    between atoms: C11_14  and  C12_15 
REMARK    5  A    between atoms: C12_15  and  N3_16 
REMARK    6  A    between atoms: N3_16  and  C13_17 
REMARK    7  A    between atoms: C13_17  and  O2_18 
REMARK    8  A    between atoms: O2_18  and  C14_19 
REMARK    9  A    between atoms: C14_19  and  C15_21 
ROOT
ATOM      1  C8  NON d   1     -39.746  21.021  -8.255  0.00  0.00     0.032 A 
ATOM      2  C9  NON d   1     -40.543  21.404  -7.166  0.00  0.00     0.017 A 
ATOM      3  C10 NON d   1     -41.020  20.459  -6.252  0.00  0.00     0.010 A 
ATOM      4  C11 NON d   1     -40.711  19.099  -6.393  0.00  0.00    -0.030 A 
ATOM      5  C20 NON d   1     -39.882  18.723  -7.459  0.00  0.00     0.010 A 
ATOM      6  C21 NON d   1     -39.414  19.667  -8.387  0.00  0.00     0.017 A 
ENDROOT
BRANCH   1   7
ATOM      7  C7  NON d   1     -39.331  22.100  -9.218  0.00  0.00     0.256 C 
ATOM      8  N2  NON d   1     -39.699  21.943 -10.540  0.00  0.00    -0.321 N 
ATOM      9  H7  NON d   1     -40.133  21.082 -10.841  0.00  0.00     0.169 HD
ATOM     10  O1  NON d   1     -38.717  23.061  -8.765  0.00  0.00    -0.267 OA
BRANCH   8  11
ATOM     11  C6  NON d   1     -39.474  22.838 -11.614  0.00  0.00     0.056 A 
ATOM     12  C5  NON d   1     -38.887  22.469 -12.827  0.00  0.00     0.031 A 
ATOM     13  C4  NON d   1     -38.763  23.396 -13.866  0.00  0.00     0.002 A 
ATOM     14  C3  NON d   1     -39.239  24.694 -13.708  0.00  0.00     0.002 A 
ATOM     15  C2  NON d   1     -39.818  25.079 -12.498  0.00  0.00     0.025 A 
ATOM     16  C1  NON d   1     -39.897  24.176 -11.432  0.00  0.00     0.033 A 
BRANCH  16  17
ATOM     17  N1  NON d   1     -40.477  24.588 -10.206  0.00  0.00    -0.301 NA
ATOM     18  H1  NON d   1     -40.615  23.809  -9.568  0.00  0.00     0.124 HD
ATOM     19  H2  NON d   1     -41.365  25.053 -10.373  0.00  0.00     0.124 HD
ENDBRANCH  16  17
ENDBRANCH   8  11
ENDBRANCH   1   7
BRANCH   4  20
ATOM     20  C12 NON d   1     -41.249  18.130  -5.359  0.00  0.00     0.310 C 
BRANCH  20  21
ATOM     21  N3  NON d   1     -41.685  18.714  -4.088  0.00  0.00     0.111 N 
ATOM     22  H12 NON d   1     -42.350  19.458  -4.288  0.00  0.00     0.319 HD
BRANCH  21  23
ATOM     23  C13 NON d   1     -42.376  17.745  -3.244  0.00  0.00     0.448 C 
BRANCH  23  24
ATOM     24  O2  NON d   1     -43.320  17.038  -4.049  0.00  0.00    -0.287 OA
BRANCH  24  25
ATOM     25  C14 NON d   1     -44.278  17.831  -4.585  0.00  0.00     0.296 C 
ATOM     26  O3  NON d   1     -44.110  18.963  -5.010  0.00  0.00    -0.259 OA
BRANCH  25  27
ATOM     27  C15 NON d   1     -45.593  17.154  -4.606  0.00  0.00     0.057 A 
ATOM     28  C16 NON d   1     -46.219  16.842  -3.395  0.00  0.00     0.020 A 
ATOM     29  C17 NON d   1     -47.451  16.192  -3.402  0.00  0.00     0.020 A 
ATOM     30  C18 NON d   1     -48.015  15.869  -4.625  0.00  0.00     0.116 A 
ATOM     31  N4  NON d   1     -47.440  16.155  -5.815  0.00  0.00    -0.272 NA
ATOM     32  C19 NON d   1     -46.242  16.794  -5.779  0.00  0.00     0.133 A 
ENDBRANCH  25  27
ENDBRANCH  24  25
ENDBRANCH  23  24
ENDBRANCH  21  23
ENDBRANCH  20  21
ENDBRANCH   4  20
TORSDOF 9
ENDMDL
MODEL 9
REMARK VINA RESULT:   -31.403      2.870      9.142
REMARK INTER + INTRA:         -36.083
REMARK INTER:                 -34.088
REMARK INTRA:                  -1.995
REMARK CONF_INDEPENDENT:        2.685
REMARK UNBOUND:                -1.995
REMARK  9 active torsions:
REMARK  status: ('A' for Active; 'I' for Inactive)
REMARK    1  A    between atoms: N1_1  and  C1_2 
REMARK    2  A    between atoms: C6_7  and  N2_8 
REMARK       I    between atoms: N2_8  and  C7_9 
REMARK    3  A    between atoms: C7_9  and  C8_11 
REMARK    4  A    between atoms: C11_14  and  C12_15 
REMARK    5  A    between atoms: C12_15  and  N3_16 
REMARK    6  A    between atoms: N3_16  and  C13_17 
REMARK    7  A    between atoms: C13_17  and  O2_18 
REMARK    8  A    between atoms: O2_18  and  C14_19 
REMARK    9  A    between atoms: C14_19  and  C15_21 
ROOT
ATOM      1  C8  NON d   1     -40.461  20.476  -6.990  0.00  0.00     0.032 A 
ATOM      2  C9  NON d   1     -40.635  19.109  -6.728  0.00  0.00     0.017 A 
ATOM      3  C10 NON d   1     -40.735  18.630  -5.418  0.00  0.00     0.010 A 
ATOM      4  C11 NON d   1     -40.669  19.505  -4.324  0.00  0.00    -0.030 A 
ATOM      5  C20 NON d   1     -40.535  20.875  -4.588  0.00  0.00     0.010 A 
ATOM      6  C21 NON d   1     -40.419  21.357  -5.902  0.00  0.00     0.017 A 
ENDROOT
BRANCH   1   7
ATOM      7  C7  NON d   1     -40.303  20.887  -8.429  0.00  0.00     0.256 C 
ATOM      8  N2  NON d   1     -39.974  22.206  -8.676  0.00  0.00    -0.321 N 
ATOM      9  H7  NON d   1     -39.953  22.868  -7.916  0.00  0.00     0.169 HD
ATOM     10  O1  NON d   1     -40.449  20.022  -9.287  0.00  0.00    -0.267 OA
BRANCH   8  11
ATOM     11  C6  NON d   1     -39.722  22.815  -9.930  0.00  0.00     0.056 A 
ATOM     12  C5  NON d   1     -39.180  22.142 -11.028  0.00  0.00     0.031 A 
ATOM     13  C4  NON d   1     -39.027  22.796 -12.254  0.00  0.00     0.002 A 
ATOM     14  C3  NON d   1     -39.429  24.120 -12.398  0.00  0.00     0.002 A 
ATOM     15  C2  NON d   1     -39.963  24.807 -11.307  0.00  0.00     0.025 A 
ATOM     16  C1  NON d   1     -40.070  24.181 -10.060  0.00  0.00     0.033 A 
BRANCH  16  17
ATOM     17  N1  NON d   1     -40.602  24.897  -8.959  0.00  0.00    -0.301 NA
ATOM     18  H1  NON d   1     -41.499  25.323  -9.179  0.00  0.00     0.124 HD
ATOM     19  H2  NON d   1     -39.950  25.616  -8.656  0.00  0.00     0.124 HD
ENDBRANCH  16  17
ENDBRANCH   8  11
ENDBRANCH   1   7
BRANCH   4  20
ATOM     20  C12 NON d   1     -40.798  18.923  -2.931  0.00  0.00     0.310 C 
BRANCH  20  21
ATOM     21  N3  NON d   1     -42.088  18.310  -2.601  0.00  0.00     0.111 N 
ATOM     22  H12 NON d   1     -42.827  18.888  -2.994  0.00  0.00     0.319 HD
BRANCH  21  23
ATOM     23  C13 NON d   1     -42.234  16.983  -3.188  0.00  0.00     0.448 C 
BRANCH  23  24
ATOM     24  O2  NON d   1     -43.627  16.697  -3.320  0.00  0.00    -0.287 OA
BRANCH  24  25
ATOM     25  C14 NON d   1     -44.242  17.429  -4.279  0.00  0.00     0.296 C 
ATOM     26  O3  NON d   1     -43.744  18.360  -4.894  0.00  0.00    -0.259 OA
BRANCH  25  27
ATOM     27  C15 NON d   1     -45.626  16.963  -4.513  0.00  0.00     0.057 A 
ATOM     28  C16 NON d   1     -46.424  16.617  -3.418  0.00  0.00     0.020 A 
ATOM     29  C17 NON d   1     -47.723  16.162  -3.628  0.00  0.00     0.020 A 
ATOM     30  C18 NON d   1     -48.182  16.063  -4.932  0.00  0.00     0.116 A 
ATOM     31  N4  NON d   1     -47.440  16.389  -6.014  0.00  0.00    -0.272 NA
ATOM     32  C19 NON d   1     -46.178  16.835  -5.781  0.00  0.00     0.133 A 
ENDBRANCH  25  27
ENDBRANCH  24  25
ENDBRANCH  23  24
ENDBRANCH  21  23
ENDBRANCH  20  21
ENDBRANCH   4  20
TORSDOF 9
ENDMDL
