MODEL 1
REMARK VINA RESULT:   -15.302      0.000      0.000
REMARK INTER + INTRA:         -21.829
REMARK INTER:                 -19.179
REMARK INTRA:                  -2.650
REMARK CONF_INDEPENDENT:        3.878
REMARK UNBOUND:                -2.650
REMARK  13 active torsions:
REMARK  status: ('A' for Active; 'I' for Inactive)
REMARK    1  A    between atoms: C1_2  and  C2_3 
REMARK       I    between atoms: C1_2  and  N3_29 
REMARK    2  A    between atoms: C2_3  and  C3_4 
REMARK    3  A    between atoms: C3_4  and  C4_5 
REMARK    4  A    between atoms: C4_5  and  C5_6 
REMARK    5  A    between atoms: C5_6  and  C6_7 
REMARK    6  A    between atoms: C7_8  and  C6_7 
REMARK    7  A    between atoms: C7_8  and  N1_9 
REMARK    8  A    between atoms: C7_8  and  C16_20 
REMARK       I    between atoms: N1_9  and  C8_10 
REMARK    9  A    between atoms: C8_10  and  O3_12 
REMARK   10  A    between atoms: O3_12  and  C9_13 
REMARK   11  A    between atoms: C9_13  and  C10_14 
REMARK       I    between atoms: C16_20  and  N2_22 
REMARK   12  A    between atoms: N2_22  and  C17_23 
REMARK   13  A    between atoms: N3_29  and  O5_30 
ROOT
ATOM      1  C7  NON d   1     -39.176  19.152  -2.757  0.00  0.00     0.179 C 
ENDROOT
BRANCH   1   2
ATOM      2  C6  NON d   1     -40.181  17.954  -2.425  0.00  0.00     0.035 C 
BRANCH   2   3
ATOM      3  C5  NON d   1     -41.691  18.352  -2.789  0.00  0.00     0.002 C 
BRANCH   3   4
ATOM      4  C4  NON d   1     -42.514  17.318  -3.615  0.00  0.00     0.001 C 
BRANCH   4   5
ATOM      5  C3  NON d   1     -43.727  17.826  -4.409  0.00  0.00     0.009 C 
BRANCH   5   6
ATOM      6  C2  NON d   1     -45.057  17.171  -4.052  0.00  0.00     0.105 C 
BRANCH   6   7
ATOM      7  C1  NON d   1     -45.959  16.890  -5.234  0.00  0.00     0.240 C 
ATOM      8  O1  NON d   1     -46.087  17.643  -6.193  0.00  0.00    -0.271 OA
ATOM      9  N3  NON d   1     -46.684  15.727  -5.058  0.00  0.00    -0.237 N 
ATOM     10  H26 NON d   1     -46.363  14.998  -4.430  0.00  0.00     0.197 HD
BRANCH   9  11
ATOM     11  O5  NON d   1     -47.410  15.283  -6.184  0.00  0.00    -0.287 OA
ATOM     12  H27 NON d   1     -47.047  15.846  -6.895  0.00  0.00     0.244 HD
ENDBRANCH   9  11
ENDBRANCH   6   7
ENDBRANCH   5   6
ENDBRANCH   4   5
ENDBRANCH   3   4
ENDBRANCH   2   3
ENDBRANCH   1   2
BRANCH   1  13
ATOM     13  N1  NON d   1     -38.551  19.627  -4.020  0.00  0.00    -0.324 N 
ATOM     14  C8  NON d   1     -37.642  18.765  -4.623  0.00  0.00     0.361 C 
ATOM     15  O2  NON d   1     -37.273  17.737  -4.072  0.00  0.00    -0.238 OA
ATOM     16  H12 NON d   1     -38.872  20.447  -4.518  0.00  0.00     0.165 HD
BRANCH  14  17
ATOM     17  O3  NON d   1     -37.095  19.273  -5.765  0.00  0.00    -0.299 OA
BRANCH  17  18
ATOM     18  C9  NON d   1     -37.682  18.711  -6.962  0.00  0.00     0.219 C 
BRANCH  18  19
ATOM     19  C10 NON d   1     -39.011  19.275  -7.427  0.00  0.00    -0.034 A 
ATOM     20  C11 NON d   1     -39.251  19.694  -8.739  0.00  0.00     0.009 A 
ATOM     21  C12 NON d   1     -40.456  20.332  -9.070  0.00  0.00     0.001 A 
ATOM     22  C13 NON d   1     -41.427  20.569  -8.097  0.00  0.00     0.000 A 
ATOM     23  C14 NON d   1     -41.203  20.163  -6.786  0.00  0.00     0.001 A 
ATOM     24  C15 NON d   1     -40.003  19.527  -6.455  0.00  0.00     0.009 A 
ENDBRANCH  18  19
ENDBRANCH  17  18
ENDBRANCH  14  17
ENDBRANCH   1  13
BRANCH   1  25
ATOM     25  C16 NON d   1     -39.759  20.451  -2.170  0.00  0.00     0.245 C 
ATOM     26  O4  NON d   1     -40.488  21.119  -2.921  0.00  0.00    -0.271 OA
ATOM     27  N2  NON d   1     -39.627  20.824  -0.849  0.00  0.00    -0.325 N 
ATOM     28  H20 NON d   1     -39.290  20.119  -0.215  0.00  0.00     0.169 HD
BRANCH  27  29
ATOM     29  C17 NON d   1     -40.141  22.003  -0.252  0.00  0.00     0.034 A 
ATOM     30  C18 NON d   1     -40.204  23.157  -1.040  0.00  0.00     0.029 A 
ATOM     31  C19 NON d   1     -40.668  24.368  -0.505  0.00  0.00     0.002 A 
ATOM     32  C20 NON d   1     -41.089  24.435   0.820  0.00  0.00     0.000 A 
ATOM     33  C21 NON d   1     -41.052  23.291   1.609  0.00  0.00     0.002 A 
ATOM     34  C22 NON d   1     -40.591  22.084   1.073  0.00  0.00     0.029 A 
ENDBRANCH  27  29
ENDBRANCH   1  25
TORSDOF 13
ENDMDL
MODEL 2
REMARK VINA RESULT:   -15.077      2.502      8.249
REMARK INTER + INTRA:         -21.975
REMARK INTER:                 -18.955
REMARK INTRA:                  -3.020
REMARK CONF_INDEPENDENT:        3.878
REMARK UNBOUND:                -3.020
REMARK  13 active torsions:
REMARK  status: ('A' for Active; 'I' for Inactive)
REMARK    1  A    between atoms: C1_2  and  C2_3 
REMARK       I    between atoms: C1_2  and  N3_29 
REMARK    2  A    between atoms: C2_3  and  C3_4 
REMARK    3  A    between atoms: C3_4  and  C4_5 
REMARK    4  A    between atoms: C4_5  and  C5_6 
REMARK    5  A    between atoms: C5_6  and  C6_7 
REMARK    6  A    between atoms: C7_8  and  C6_7 
REMARK    7  A    between atoms: C7_8  and  N1_9 
REMARK    8  A    between atoms: C7_8  and  C16_20 
REMARK       I    between atoms: N1_9  and  C8_10 
REMARK    9  A    between atoms: C8_10  and  O3_12 
REMARK   10  A    between atoms: O3_12  and  C9_13 
REMARK   11  A    between atoms: C9_13  and  C10_14 
REMARK       I    between atoms: C16_20  and  N2_22 
REMARK   12  A    between atoms: N2_22  and  C17_23 
REMARK   13  A    between atoms: N3_29  and  O5_30 
ROOT
ATOM      1  C7  NON d   1     -43.726  17.528  -4.736  0.00  0.00     0.179 C 
ENDROOT
BRANCH   1   2
ATOM      2  C6  NON d   1     -43.003  17.014  -3.405  0.00  0.00     0.035 C 
BRANCH   2   3
ATOM      3  C5  NON d   1     -42.118  18.177  -2.746  0.00  0.00     0.002 C 
BRANCH   3   4
ATOM      4  C4  NON d   1     -40.596  17.890  -2.570  0.00  0.00     0.001 C 
BRANCH   4   5
ATOM      5  C3  NON d   1     -39.597  18.889  -3.173  0.00  0.00     0.009 C 
BRANCH   5   6
ATOM      6  C2  NON d   1     -38.908  19.806  -2.167  0.00  0.00     0.105 C 
BRANCH   6   7
ATOM      7  C1  NON d   1     -39.791  20.894  -1.598  0.00  0.00     0.240 C 
ATOM      8  O1  NON d   1     -40.506  21.622  -2.277  0.00  0.00    -0.271 OA
ATOM      9  N3  NON d   1     -39.627  21.023  -0.232  0.00  0.00    -0.237 N 
ATOM     10  H26 NON d   1     -39.274  20.255   0.330  0.00  0.00     0.197 HD
BRANCH   9  11
ATOM     11  O5  NON d   1     -40.542  21.880   0.416  0.00  0.00    -0.287 OA
ATOM     12  H27 NON d   1     -40.828  22.461  -0.315  0.00  0.00     0.244 HD
ENDBRANCH   9  11
ENDBRANCH   6   7
ENDBRANCH   5   6
ENDBRANCH   4   5
ENDBRANCH   3   4
ENDBRANCH   2   3
ENDBRANCH   1   2
BRANCH   1  13
ATOM     13  N1  NON d   1     -45.138  17.879  -5.048  0.00  0.00    -0.324 N 
ATOM     14  C8  NON d   1     -45.939  16.851  -5.528  0.00  0.00     0.361 C 
ATOM     15  O2  NON d   1     -45.474  15.755  -5.810  0.00  0.00    -0.238 OA
ATOM     16  H12 NON d   1     -45.557  18.761  -4.781  0.00  0.00     0.165 HD
BRANCH  14  17
ATOM     17  O3  NON d   1     -47.214  17.249  -5.811  0.00  0.00    -0.299 OA
BRANCH  17  18
ATOM     18  C9  NON d   1     -48.205  16.279  -5.399  0.00  0.00     0.219 C 
BRANCH  18  19
ATOM     19  C10 NON d   1     -48.610  16.261  -3.937  0.00  0.00    -0.034 A 
ATOM     20  C11 NON d   1     -49.894  15.930  -3.500  0.00  0.00     0.009 A 
ATOM     21  C12 NON d   1     -50.239  16.065  -2.147  0.00  0.00     0.001 A 
ATOM     22  C13 NON d   1     -49.312  16.541  -1.220  0.00  0.00     0.000 A 
ATOM     23  C14 NON d   1     -48.030  16.880  -1.639  0.00  0.00     0.001 A 
ATOM     24  C15 NON d   1     -47.686  16.745  -2.987  0.00  0.00     0.009 A 
ENDBRANCH  18  19
ENDBRANCH  17  18
ENDBRANCH  14  17
ENDBRANCH   1  13
BRANCH   1  25
ATOM     25  C16 NON d   1     -42.958  18.754  -5.263  0.00  0.00     0.245 C 
ATOM     26  O4  NON d   1     -43.477  19.863  -5.056  0.00  0.00    -0.271 OA
ATOM     27  N2  NON d   1     -41.695  18.690  -5.812  0.00  0.00    -0.325 N 
ATOM     28  H20 NON d   1     -41.195  17.826  -5.690  0.00  0.00     0.169 HD
BRANCH  27  29
ATOM     29  C17 NON d   1     -40.939  19.781  -6.312  0.00  0.00     0.034 A 
ATOM     30  C18 NON d   1     -40.799  20.905  -5.491  0.00  0.00     0.029 A 
ATOM     31  C19 NON d   1     -40.095  22.035  -5.934  0.00  0.00     0.002 A 
ATOM     32  C20 NON d   1     -39.510  22.048  -7.197  0.00  0.00     0.000 A 
ATOM     33  C21 NON d   1     -39.623  20.930  -8.015  0.00  0.00     0.002 A 
ATOM     34  C22 NON d   1     -40.323  19.804  -7.571  0.00  0.00     0.029 A 
ENDBRANCH  27  29
ENDBRANCH   1  25
TORSDOF 13
ENDMDL
MODEL 3
REMARK VINA RESULT:   -15.066      1.892      2.422
REMARK INTER + INTRA:         -21.782
REMARK INTER:                 -18.944
REMARK INTRA:                  -2.837
REMARK CONF_INDEPENDENT:        3.878
REMARK UNBOUND:                -2.837
REMARK  13 active torsions:
REMARK  status: ('A' for Active; 'I' for Inactive)
REMARK    1  A    between atoms: C1_2  and  C2_3 
REMARK       I    between atoms: C1_2  and  N3_29 
REMARK    2  A    between atoms: C2_3  and  C3_4 
REMARK    3  A    between atoms: C3_4  and  C4_5 
REMARK    4  A    between atoms: C4_5  and  C5_6 
REMARK    5  A    between atoms: C5_6  and  C6_7 
REMARK    6  A    between atoms: C7_8  and  C6_7 
REMARK    7  A    between atoms: C7_8  and  N1_9 
REMARK    8  A    between atoms: C7_8  and  C16_20 
REMARK       I    between atoms: N1_9  and  C8_10 
REMARK    9  A    between atoms: C8_10  and  O3_12 
REMARK   10  A    between atoms: O3_12  and  C9_13 
REMARK   11  A    between atoms: C9_13  and  C10_14 
REMARK       I    between atoms: C16_20  and  N2_22 
REMARK   12  A    between atoms: N2_22  and  C17_23 
REMARK   13  A    between atoms: N3_29  and  O5_30 
ROOT
ATOM      1  C7  NON d   1     -40.108  19.523  -4.162  0.00  0.00     0.179 C 
ENDROOT
BRANCH   1   2
ATOM      2  C6  NON d   1     -40.165  18.169  -3.314  0.00  0.00     0.035 C 
BRANCH   2   3
ATOM      3  C5  NON d   1     -41.680  17.742  -3.012  0.00  0.00     0.002 C 
BRANCH   3   4
ATOM      4  C4  NON d   1     -42.708  17.923  -4.171  0.00  0.00     0.001 C 
BRANCH   4   5
ATOM      5  C3  NON d   1     -43.716  16.793  -4.427  0.00  0.00     0.009 C 
BRANCH   5   6
ATOM      6  C2  NON d   1     -45.170  17.138  -4.120  0.00  0.00     0.105 C 
BRANCH   6   7
ATOM      7  C1  NON d   1     -46.132  16.885  -5.261  0.00  0.00     0.240 C 
ATOM      8  O1  NON d   1     -46.321  17.668  -6.185  0.00  0.00    -0.271 OA
ATOM      9  N3  NON d   1     -46.832  15.707  -5.086  0.00  0.00    -0.237 N 
ATOM     10  H26 NON d   1     -46.469  14.962  -4.501  0.00  0.00     0.197 HD
BRANCH   9  11
ATOM     11  O5  NON d   1     -47.613  15.291  -6.185  0.00  0.00    -0.287 OA
ATOM     12  H27 NON d   1     -47.742  16.128  -6.671  0.00  0.00     0.244 HD
ENDBRANCH   9  11
ENDBRANCH   6   7
ENDBRANCH   5   6
ENDBRANCH   4   5
ENDBRANCH   3   4
ENDBRANCH   2   3
ENDBRANCH   1   2
BRANCH   1  13
ATOM     13  N1  NON d   1     -40.810  19.974  -5.393  0.00  0.00    -0.324 N 
ATOM     14  C8  NON d   1     -40.521  19.279  -6.561  0.00  0.00     0.361 C 
ATOM     15  O2  NON d   1     -39.635  18.436  -6.601  0.00  0.00    -0.238 OA
ATOM     16  H12 NON d   1     -41.577  20.634  -5.378  0.00  0.00     0.165 HD
BRANCH  14  17
ATOM     17  O3  NON d   1     -41.186  19.759  -7.652  0.00  0.00    -0.299 OA
BRANCH  17  18
ATOM     18  C9  NON d   1     -40.292  20.184  -8.707  0.00  0.00     0.219 C 
BRANCH  18  19
ATOM     19  C10 NON d   1     -39.965  21.663  -8.800  0.00  0.00    -0.034 A 
ATOM     20  C11 NON d   1     -39.537  22.282  -9.977  0.00  0.00     0.009 A 
ATOM     21  C12 NON d   1     -39.121  23.622  -9.962  0.00  0.00     0.001 A 
ATOM     22  C13 NON d   1     -39.117  24.353  -8.774  0.00  0.00     0.000 A 
ATOM     23  C14 NON d   1     -39.535  23.751  -7.592  0.00  0.00     0.001 A 
ATOM     24  C15 NON d   1     -39.950  22.416  -7.607  0.00  0.00     0.009 A 
ENDBRANCH  18  19
ENDBRANCH  17  18
ENDBRANCH  14  17
ENDBRANCH   1  13
BRANCH   1  25
ATOM     25  C16 NON d   1     -40.333  20.707  -3.203  0.00  0.00     0.245 C 
ATOM     26  O4  NON d   1     -41.015  21.649  -3.637  0.00  0.00    -0.271 OA
ATOM     27  N2  NON d   1     -39.941  20.707  -1.881  0.00  0.00    -0.325 N 
ATOM     28  H20 NON d   1     -39.664  19.821  -1.494  0.00  0.00     0.169 HD
BRANCH  27  29
ATOM     29  C17 NON d   1     -40.121  21.763  -0.951  0.00  0.00     0.034 A 
ATOM     30  C18 NON d   1     -40.077  21.445   0.411  0.00  0.00     0.029 A 
ATOM     31  C19 NON d   1     -40.283  22.432   1.386  0.00  0.00     0.002 A 
ATOM     32  C20 NON d   1     -40.520  23.751   1.011  0.00  0.00     0.000 A 
ATOM     33  C21 NON d   1     -40.546  24.086  -0.337  0.00  0.00     0.002 A 
ATOM     34  C22 NON d   1     -40.338  23.101  -1.308  0.00  0.00     0.029 A 
ENDBRANCH  27  29
ENDBRANCH   1  25
TORSDOF 13
ENDMDL
MODEL 4
REMARK VINA RESULT:   -15.039      1.610      2.421
REMARK INTER + INTRA:         -21.599
REMARK INTER:                 -18.917
REMARK INTRA:                  -2.682
REMARK CONF_INDEPENDENT:        3.878
REMARK UNBOUND:                -2.682
REMARK  13 active torsions:
REMARK  status: ('A' for Active; 'I' for Inactive)
REMARK    1  A    between atoms: C1_2  and  C2_3 
REMARK       I    between atoms: C1_2  and  N3_29 
REMARK    2  A    between atoms: C2_3  and  C3_4 
REMARK    3  A    between atoms: C3_4  and  C4_5 
REMARK    4  A    between atoms: C4_5  and  C5_6 
REMARK    5  A    between atoms: C5_6  and  C6_7 
REMARK    6  A    between atoms: C7_8  and  C6_7 
REMARK    7  A    between atoms: C7_8  and  N1_9 
REMARK    8  A    between atoms: C7_8  and  C16_20 
REMARK       I    between atoms: N1_9  and  C8_10 
REMARK    9  A    between atoms: C8_10  and  O3_12 
REMARK   10  A    between atoms: O3_12  and  C9_13 
REMARK   11  A    between atoms: C9_13  and  C10_14 
REMARK       I    between atoms: C16_20  and  N2_22 
REMARK   12  A    between atoms: N2_22  and  C17_23 
REMARK   13  A    between atoms: N3_29  and  O5_30 
ROOT
ATOM      1  C7  NON d   1     -39.635  19.640  -3.771  0.00  0.00     0.179 C 
ENDROOT
BRANCH   1   2
ATOM      2  C6  NON d   1     -40.215  18.278  -3.167  0.00  0.00     0.035 C 
BRANCH   2   3
ATOM      3  C5  NON d   1     -41.806  18.358  -2.991  0.00  0.00     0.002 C 
BRANCH   3   4
ATOM      4  C4  NON d   1     -42.645  17.210  -3.630  0.00  0.00     0.001 C 
BRANCH   4   5
ATOM      5  C3  NON d   1     -43.814  17.593  -4.549  0.00  0.00     0.009 C 
BRANCH   5   6
ATOM      6  C2  NON d   1     -45.176  17.048  -4.129  0.00  0.00     0.105 C 
BRANCH   6   7
ATOM      7  C1  NON d   1     -46.162  16.871  -5.264  0.00  0.00     0.240 C 
ATOM      8  O1  NON d   1     -46.299  17.669  -6.183  0.00  0.00    -0.271 OA
ATOM      9  N3  NON d   1     -46.945  15.746  -5.088  0.00  0.00    -0.237 N 
ATOM     10  H26 NON d   1     -46.633  14.974  -4.509  0.00  0.00     0.197 HD
BRANCH   9  11
ATOM     11  O5  NON d   1     -47.762  15.394  -6.183  0.00  0.00    -0.287 OA
ATOM     12  H27 NON d   1     -47.647  16.160  -6.778  0.00  0.00     0.244 HD
ENDBRANCH   9  11
ENDBRANCH   6   7
ENDBRANCH   5   6
ENDBRANCH   4   5
ENDBRANCH   3   4
ENDBRANCH   2   3
ENDBRANCH   1   2
BRANCH   1  13
ATOM     13  N1  NON d   1     -39.932  20.401  -5.014  0.00  0.00    -0.324 N 
ATOM     14  C8  NON d   1     -40.673  19.737  -5.985  0.00  0.00     0.361 C 
ATOM     15  O2  NON d   1     -40.944  18.548  -5.881  0.00  0.00    -0.238 OA
ATOM     16  H12 NON d   1     -39.761  21.394  -5.105  0.00  0.00     0.165 HD
BRANCH  14  17
ATOM     17  O3  NON d   1     -40.890  20.487  -7.103  0.00  0.00    -0.299 OA
BRANCH  17  18
ATOM     18  C9  NON d   1     -40.419  19.842  -8.309  0.00  0.00     0.219 C 
BRANCH  18  19
ATOM     19  C10 NON d   1     -38.919  19.736  -8.511  0.00  0.00    -0.034 A 
ATOM     20  C11 NON d   1     -38.172  20.672  -9.231  0.00  0.00     0.009 A 
ATOM     21  C12 NON d   1     -36.814  20.442  -9.496  0.00  0.00     0.001 A 
ATOM     22  C13 NON d   1     -36.190  19.275  -9.056  0.00  0.00     0.000 A 
ATOM     23  C14 NON d   1     -36.919  18.330  -8.343  0.00  0.00     0.001 A 
ATOM     24  C15 NON d   1     -38.273  18.558  -8.078  0.00  0.00     0.009 A 
ENDBRANCH  18  19
ENDBRANCH  17  18
ENDBRANCH  14  17
ENDBRANCH   1  13
BRANCH   1  25
ATOM     25  C16 NON d   1     -39.728  20.731  -2.688  0.00  0.00     0.245 C 
ATOM     26  O4  NON d   1     -40.459  21.702  -2.941  0.00  0.00    -0.271 OA
ATOM     27  N2  NON d   1     -39.167  20.616  -1.434  0.00  0.00    -0.325 N 
ATOM     28  H20 NON d   1     -38.843  19.702  -1.168  0.00  0.00     0.169 HD
BRANCH  27  29
ATOM     29  C17 NON d   1     -39.220  21.582  -0.397  0.00  0.00     0.034 A 
ATOM     30  C18 NON d   1     -40.318  21.546   0.469  0.00  0.00     0.029 A 
ATOM     31  C19 NON d   1     -40.455  22.493   1.495  0.00  0.00     0.002 A 
ATOM     32  C20 NON d   1     -39.487  23.478   1.676  0.00  0.00     0.000 A 
ATOM     33  C21 NON d   1     -38.380  23.513   0.836  0.00  0.00     0.002 A 
ATOM     34  C22 NON d   1     -38.245  22.566  -0.185  0.00  0.00     0.029 A 
ENDBRANCH  27  29
ENDBRANCH   1  25
TORSDOF 13
ENDMDL
MODEL 5
REMARK VINA RESULT:   -15.012      3.538      8.085
REMARK INTER + INTRA:         -21.179
REMARK INTER:                 -18.890
REMARK INTRA:                  -2.289
REMARK CONF_INDEPENDENT:        3.878
REMARK UNBOUND:                -2.289
REMARK  13 active torsions:
REMARK  status: ('A' for Active; 'I' for Inactive)
REMARK    1  A    between atoms: C1_2  and  C2_3 
REMARK       I    between atoms: C1_2  and  N3_29 
REMARK    2  A    between atoms: C2_3  and  C3_4 
REMARK    3  A    between atoms: C3_4  and  C4_5 
REMARK    4  A    between atoms: C4_5  and  C5_6 
REMARK    5  A    between atoms: C5_6  and  C6_7 
REMARK    6  A    between atoms: C7_8  and  C6_7 
REMARK    7  A    between atoms: C7_8  and  N1_9 
REMARK    8  A    between atoms: C7_8  and  C16_20 
REMARK       I    between atoms: N1_9  and  C8_10 
REMARK    9  A    between atoms: C8_10  and  O3_12 
REMARK   10  A    between atoms: O3_12  and  C9_13 
REMARK   11  A    between atoms: C9_13  and  C10_14 
REMARK       I    between atoms: C16_20  and  N2_22 
REMARK   12  A    between atoms: N2_22  and  C17_23 
REMARK   13  A    between atoms: N3_29  and  O5_30 
ROOT
ATOM      1  C7  NON d   1     -44.385  18.038  -4.530  0.00  0.00     0.179 C 
ENDROOT
BRANCH   1   2
ATOM      2  C6  NON d   1     -44.309  19.355  -5.434  0.00  0.00     0.035 C 
BRANCH   2   3
ATOM      3  C5  NON d   1     -42.865  19.504  -6.113  0.00  0.00     0.002 C 
BRANCH   3   4
ATOM      4  C4  NON d   1     -41.817  20.376  -5.358  0.00  0.00     0.001 C 
BRANCH   4   5
ATOM      5  C3  NON d   1     -40.685  21.017  -6.176  0.00  0.00     0.009 C 
BRANCH   5   6
ATOM      6  C2  NON d   1     -39.974  20.080  -7.147  0.00  0.00     0.105 C 
BRANCH   6   7
ATOM      7  C1  NON d   1     -40.290  20.326  -8.606  0.00  0.00     0.240 C 
ATOM      8  O1  NON d   1     -41.287  19.894  -9.174  0.00  0.00    -0.271 OA
ATOM      9  N3  NON d   1     -39.277  21.022  -9.238  0.00  0.00    -0.237 N 
ATOM     10  H26 NON d   1     -38.631  21.601  -8.712  0.00  0.00     0.197 HD
BRANCH   9  11
ATOM     11  O5  NON d   1     -39.562  21.461 -10.547  0.00  0.00    -0.287 OA
ATOM     12  H27 NON d   1     -40.524  21.305 -10.610  0.00  0.00     0.244 HD
ENDBRANCH   9  11
ENDBRANCH   6   7
ENDBRANCH   5   6
ENDBRANCH   4   5
ENDBRANCH   3   4
ENDBRANCH   2   3
ENDBRANCH   1   2
BRANCH   1  13
ATOM     13  N1  NON d   1     -45.038  16.716  -4.723  0.00  0.00    -0.324 N 
ATOM     14  C8  NON d   1     -46.077  16.667  -5.645  0.00  0.00     0.361 C 
ATOM     15  O2  NON d   1     -46.521  17.682  -6.163  0.00  0.00    -0.238 OA
ATOM     16  H12 NON d   1     -44.661  15.857  -4.344  0.00  0.00     0.165 HD
BRANCH  14  17
ATOM     17  O3  NON d   1     -46.640  15.429  -5.756  0.00  0.00    -0.299 OA
BRANCH  17  18
ATOM     18  C9  NON d   1     -48.059  15.435  -5.479  0.00  0.00     0.219 C 
BRANCH  18  19
ATOM     19  C10 NON d   1     -48.499  15.706  -4.052  0.00  0.00    -0.034 A 
ATOM     20  C11 NON d   1     -49.765  15.377  -3.563  0.00  0.00     0.009 A 
ATOM     21  C12 NON d   1     -50.153  15.779  -2.275  0.00  0.00     0.001 A 
ATOM     22  C13 NON d   1     -49.289  16.520  -1.470  0.00  0.00     0.000 A 
ATOM     23  C14 NON d   1     -48.027  16.861  -1.943  0.00  0.00     0.001 A 
ATOM     24  C15 NON d   1     -47.639  16.461  -3.225  0.00  0.00     0.009 A 
ENDBRANCH  18  19
ENDBRANCH  17  18
ENDBRANCH  14  17
ENDBRANCH   1  13
BRANCH   1  25
ATOM     25  C16 NON d   1     -42.952  17.643  -4.128  0.00  0.00     0.245 C 
ATOM     26  O4  NON d   1     -42.562  16.525  -4.501  0.00  0.00    -0.271 OA
ATOM     27  N2  NON d   1     -42.064  18.499  -3.513  0.00  0.00    -0.325 N 
ATOM     28  H20 NON d   1     -42.315  19.473  -3.499  0.00  0.00     0.169 HD
BRANCH  27  29
ATOM     29  C17 NON d   1     -40.735  18.194  -3.122  0.00  0.00     0.034 A 
ATOM     30  C18 NON d   1     -40.555  17.207  -2.146  0.00  0.00     0.029 A 
ATOM     31  C19 NON d   1     -39.271  16.879  -1.685  0.00  0.00     0.002 A 
ATOM     32  C20 NON d   1     -38.152  17.524  -2.205  0.00  0.00     0.000 A 
ATOM     33  C21 NON d   1     -38.314  18.491  -3.190  0.00  0.00     0.002 A 
ATOM     34  C22 NON d   1     -39.595  18.815  -3.650  0.00  0.00     0.029 A 
ENDBRANCH  27  29
ENDBRANCH   1  25
TORSDOF 13
ENDMDL
MODEL 6
REMARK VINA RESULT:   -14.704      1.310      6.349
REMARK INTER + INTRA:         -21.442
REMARK INTER:                 -18.582
REMARK INTRA:                  -2.860
REMARK CONF_INDEPENDENT:        3.878
REMARK UNBOUND:                -2.860
REMARK  13 active torsions:
REMARK  status: ('A' for Active; 'I' for Inactive)
REMARK    1  A    between atoms: C1_2  and  C2_3 
REMARK       I    between atoms: C1_2  and  N3_29 
REMARK    2  A    between atoms: C2_3  and  C3_4 
REMARK    3  A    between atoms: C3_4  and  C4_5 
REMARK    4  A    between atoms: C4_5  and  C5_6 
REMARK    5  A    between atoms: C5_6  and  C6_7 
REMARK    6  A    between atoms: C7_8  and  C6_7 
REMARK    7  A    between atoms: C7_8  and  N1_9 
REMARK    8  A    between atoms: C7_8  and  C16_20 
REMARK       I    between atoms: N1_9  and  C8_10 
REMARK    9  A    between atoms: C8_10  and  O3_12 
REMARK   10  A    between atoms: O3_12  and  C9_13 
REMARK   11  A    between atoms: C9_13  and  C10_14 
REMARK       I    between atoms: C16_20  and  N2_22 
REMARK   12  A    between atoms: N2_22  and  C17_23 
REMARK   13  A    between atoms: N3_29  and  O5_30 
ROOT
ATOM      1  C7  NON d   1     -40.198  19.229  -2.319  0.00  0.00     0.179 C 
ENDROOT
BRANCH   1   2
ATOM      2  C6  NON d   1     -41.083  18.025  -1.751  0.00  0.00     0.035 C 
BRANCH   2   3
ATOM      3  C5  NON d   1     -42.533  18.005  -2.435  0.00  0.00     0.002 C 
BRANCH   3   4
ATOM      4  C4  NON d   1     -42.577  17.983  -3.993  0.00  0.00     0.001 C 
BRANCH   4   5
ATOM      5  C3  NON d   1     -43.576  17.037  -4.676  0.00  0.00     0.009 C 
BRANCH   5   6
ATOM      6  C2  NON d   1     -45.027  17.194  -4.231  0.00  0.00     0.105 C 
BRANCH   6   7
ATOM      7  C1  NON d   1     -46.050  16.944  -5.319  0.00  0.00     0.240 C 
ATOM      8  O1  NON d   1     -46.306  17.740  -6.215  0.00  0.00    -0.271 OA
ATOM      9  N3  NON d   1     -46.718  15.750  -5.126  0.00  0.00    -0.237 N 
ATOM     10  H26 NON d   1     -46.310  15.002  -4.577  0.00  0.00     0.197 HD
BRANCH   9  11
ATOM     11  O5  NON d   1     -47.556  15.341  -6.185  0.00  0.00    -0.287 OA
ATOM     12  H27 NON d   1     -47.186  15.837  -6.940  0.00  0.00     0.244 HD
ENDBRANCH   9  11
ENDBRANCH   6   7
ENDBRANCH   5   6
ENDBRANCH   4   5
ENDBRANCH   3   4
ENDBRANCH   2   3
ENDBRANCH   1   2
BRANCH   1  13
ATOM     13  N1  NON d   1     -39.078  20.020  -1.743  0.00  0.00    -0.324 N 
ATOM     14  C8  NON d   1     -38.946  21.327  -2.194  0.00  0.00     0.361 C 
ATOM     15  O2  NON d   1     -39.626  21.758  -3.116  0.00  0.00    -0.238 OA
ATOM     16  H12 NON d   1     -38.533  19.704  -0.950  0.00  0.00     0.165 HD
BRANCH  14  17
ATOM     17  O3  NON d   1     -37.888  21.985  -1.638  0.00  0.00    -0.299 OA
BRANCH  17  18
ATOM     18  C9  NON d   1     -38.071  22.243  -0.227  0.00  0.00     0.219 C 
BRANCH  18  19
ATOM     19  C10 NON d   1     -39.292  23.040   0.191  0.00  0.00    -0.034 A 
ATOM     20  C11 NON d   1     -39.638  24.269  -0.376  0.00  0.00     0.009 A 
ATOM     21  C12 NON d   1     -40.702  25.019   0.151  0.00  0.00     0.001 A 
ATOM     22  C13 NON d   1     -41.421  24.556   1.252  0.00  0.00     0.000 A 
ATOM     23  C14 NON d   1     -41.087  23.338   1.833  0.00  0.00     0.001 A 
ATOM     24  C15 NON d   1     -40.028  22.591   1.308  0.00  0.00     0.009 A 
ENDBRANCH  18  19
ENDBRANCH  17  18
ENDBRANCH  14  17
ENDBRANCH   1  13
BRANCH   1  25
ATOM     25  C16 NON d   1     -39.635  18.812  -3.691  0.00  0.00     0.245 C 
ATOM     26  O4  NON d   1     -39.273  17.630  -3.804  0.00  0.00    -0.271 OA
ATOM     27  N2  NON d   1     -39.643  19.626  -4.803  0.00  0.00    -0.325 N 
ATOM     28  H20 NON d   1     -40.209  20.456  -4.749  0.00  0.00     0.169 HD
BRANCH  27  29
ATOM     29  C17 NON d   1     -39.142  19.298  -6.089  0.00  0.00     0.034 A 
ATOM     30  C18 NON d   1     -37.754  19.278  -6.261  0.00  0.00     0.029 A 
ATOM     31  C19 NON d   1     -37.190  18.997  -7.514  0.00  0.00     0.002 A 
ATOM     32  C20 NON d   1     -38.007  18.719  -8.607  0.00  0.00     0.000 A 
ATOM     33  C21 NON d   1     -39.387  18.715  -8.446  0.00  0.00     0.002 A 
ATOM     34  C22 NON d   1     -39.948  18.993  -7.195  0.00  0.00     0.029 A 
ENDBRANCH  27  29
ENDBRANCH   1  25
TORSDOF 13
ENDMDL
MODEL 7
REMARK VINA RESULT:   -14.301      2.493      3.269
REMARK INTER + INTRA:         -21.329
REMARK INTER:                 -18.179
REMARK INTRA:                  -3.150
REMARK CONF_INDEPENDENT:        3.878
REMARK UNBOUND:                -3.150
REMARK  13 active torsions:
REMARK  status: ('A' for Active; 'I' for Inactive)
REMARK    1  A    between atoms: C1_2  and  C2_3 
REMARK       I    between atoms: C1_2  and  N3_29 
REMARK    2  A    between atoms: C2_3  and  C3_4 
REMARK    3  A    between atoms: C3_4  and  C4_5 
REMARK    4  A    between atoms: C4_5  and  C5_6 
REMARK    5  A    between atoms: C5_6  and  C6_7 
REMARK    6  A    between atoms: C7_8  and  C6_7 
REMARK    7  A    between atoms: C7_8  and  N1_9 
REMARK    8  A    between atoms: C7_8  and  C16_20 
REMARK       I    between atoms: N1_9  and  C8_10 
REMARK    9  A    between atoms: C8_10  and  O3_12 
REMARK   10  A    between atoms: O3_12  and  C9_13 
REMARK   11  A    between atoms: C9_13  and  C10_14 
REMARK       I    between atoms: C16_20  and  N2_22 
REMARK   12  A    between atoms: N2_22  and  C17_23 
REMARK   13  A    between atoms: N3_29  and  O5_30 
ROOT
ATOM      1  C7  NON d   1     -39.740  18.947  -4.810  0.00  0.00     0.179 C 
ENDROOT
BRANCH   1   2
ATOM      2  C6  NON d   1     -40.778  18.277  -3.795  0.00  0.00     0.035 C 
BRANCH   2   3
ATOM      3  C5  NON d   1     -42.289  18.543  -4.258  0.00  0.00     0.002 C 
BRANCH   3   4
ATOM      4  C4  NON d   1     -43.132  17.297  -4.666  0.00  0.00     0.001 C 
BRANCH   4   5
ATOM      5  C3  NON d   1     -44.162  16.760  -3.661  0.00  0.00     0.009 C 
BRANCH   5   6
ATOM      6  C2  NON d   1     -45.585  17.278  -3.851  0.00  0.00     0.105 C 
BRANCH   6   7
ATOM      7  C1  NON d   1     -46.248  16.839  -5.139  0.00  0.00     0.240 C 
ATOM      8  O1  NON d   1     -46.267  17.511  -6.164  0.00  0.00    -0.271 OA
ATOM      9  N3  NON d   1     -46.903  15.632  -4.990  0.00  0.00    -0.237 N 
ATOM     10  H26 NON d   1     -46.641  14.978  -4.260  0.00  0.00     0.197 HD
BRANCH   9  11
ATOM     11  O5  NON d   1     -47.392  15.051  -6.179  0.00  0.00    -0.287 OA
ATOM     12  H27 NON d   1     -47.154  15.723  -6.847  0.00  0.00     0.244 HD
ENDBRANCH   9  11
ENDBRANCH   6   7
ENDBRANCH   5   6
ENDBRANCH   4   5
ENDBRANCH   3   4
ENDBRANCH   2   3
ENDBRANCH   1   2
BRANCH   1  13
ATOM     13  N1  NON d   1     -39.631  18.943  -6.293  0.00  0.00    -0.324 N 
ATOM     14  C8  NON d   1     -40.679  19.529  -6.993  0.00  0.00     0.361 C 
ATOM     15  O2  NON d   1     -41.697  19.901  -6.427  0.00  0.00    -0.238 OA
ATOM     16  H12 NON d   1     -38.783  18.684  -6.781  0.00  0.00     0.165 HD
BRANCH  14  17
ATOM     17  O3  NON d   1     -40.521  19.472  -8.347  0.00  0.00    -0.299 OA
BRANCH  17  18
ATOM     18  C9  NON d   1     -39.315  20.132  -8.796  0.00  0.00     0.219 C 
BRANCH  18  19
ATOM     19  C10 NON d   1     -39.380  21.628  -9.042  0.00  0.00    -0.034 A 
ATOM     20  C11 NON d   1     -39.874  22.540  -8.106  0.00  0.00     0.009 A 
ATOM     21  C12 NON d   1     -40.034  23.891  -8.449  0.00  0.00     0.001 A 
ATOM     22  C13 NON d   1     -39.713  24.343  -9.729  0.00  0.00     0.000 A 
ATOM     23  C14 NON d   1     -39.225  23.448 -10.675  0.00  0.00     0.001 A 
ATOM     24  C15 NON d   1     -39.066  22.102 -10.334  0.00  0.00     0.009 A 
ENDBRANCH  18  19
ENDBRANCH  17  18
ENDBRANCH  14  17
ENDBRANCH   1  13
BRANCH   1  25
ATOM     25  C16 NON d   1     -39.635  20.447  -4.477  0.00  0.00     0.245 C 
ATOM     26  O4  NON d   1     -38.502  20.951  -4.545  0.00  0.00    -0.271 OA
ATOM     27  N2  NON d   1     -40.724  21.260  -4.248  0.00  0.00    -0.325 N 
ATOM     28  H20 NON d   1     -41.625  20.885  -4.494  0.00  0.00     0.169 HD
BRANCH  27  29
ATOM     29  C17 NON d   1     -40.691  22.645  -3.940  0.00  0.00     0.034 A 
ATOM     30  C18 NON d   1     -40.437  23.538  -4.986  0.00  0.00     0.029 A 
ATOM     31  C19 NON d   1     -40.354  24.918  -4.748  0.00  0.00     0.002 A 
ATOM     32  C20 NON d   1     -40.539  25.422  -3.464  0.00  0.00     0.000 A 
ATOM     33  C21 NON d   1     -40.812  24.548  -2.418  0.00  0.00     0.002 A 
ATOM     34  C22 NON d   1     -40.897  23.172  -2.658  0.00  0.00     0.029 A 
ENDBRANCH  27  29
ENDBRANCH   1  25
TORSDOF 13
ENDMDL
MODEL 8
REMARK VINA RESULT:   -14.074      1.971      2.673
REMARK INTER + INTRA:         -21.209
REMARK INTER:                 -17.952
REMARK INTRA:                  -3.257
REMARK CONF_INDEPENDENT:        3.878
REMARK UNBOUND:                -3.257
REMARK  13 active torsions:
REMARK  status: ('A' for Active; 'I' for Inactive)
REMARK    1  A    between atoms: C1_2  and  C2_3 
REMARK       I    between atoms: C1_2  and  N3_29 
REMARK    2  A    between atoms: C2_3  and  C3_4 
REMARK    3  A    between atoms: C3_4  and  C4_5 
REMARK    4  A    between atoms: C4_5  and  C5_6 
REMARK    5  A    between atoms: C5_6  and  C6_7 
REMARK    6  A    between atoms: C7_8  and  C6_7 
REMARK    7  A    between atoms: C7_8  and  N1_9 
REMARK    8  A    between atoms: C7_8  and  C16_20 
REMARK       I    between atoms: N1_9  and  C8_10 
REMARK    9  A    between atoms: C8_10  and  O3_12 
REMARK   10  A    between atoms: O3_12  and  C9_13 
REMARK   11  A    between atoms: C9_13  and  C10_14 
REMARK       I    between atoms: C16_20  and  N2_22 
REMARK   12  A    between atoms: N2_22  and  C17_23 
REMARK   13  A    between atoms: N3_29  and  O5_30 
ROOT
ATOM      1  C7  NON d   1     -40.283  19.089  -5.674  0.00  0.00     0.179 C 
ENDROOT
BRANCH   1   2
ATOM      2  C6  NON d   1     -41.772  19.566  -6.009  0.00  0.00     0.035 C 
BRANCH   2   3
ATOM      3  C5  NON d   1     -42.836  18.843  -5.053  0.00  0.00     0.002 C 
BRANCH   3   4
ATOM      4  C4  NON d   1     -42.612  17.327  -4.768  0.00  0.00     0.001 C 
BRANCH   4   5
ATOM      5  C3  NON d   1     -43.779  16.521  -4.178  0.00  0.00     0.009 C 
BRANCH   5   6
ATOM      6  C2  NON d   1     -45.116  17.254  -4.130  0.00  0.00     0.105 C 
BRANCH   6   7
ATOM      7  C1  NON d   1     -46.052  16.933  -5.275  0.00  0.00     0.240 C 
ATOM      8  O1  NON d   1     -46.271  17.689  -6.215  0.00  0.00    -0.271 OA
ATOM      9  N3  NON d   1     -46.693  15.724  -5.086  0.00  0.00    -0.237 N 
ATOM     10  H26 NON d   1     -46.300  15.008  -4.484  0.00  0.00     0.197 HD
BRANCH   9  11
ATOM     11  O5  NON d   1     -47.441  15.251  -6.185  0.00  0.00    -0.287 OA
ATOM     12  H27 NON d   1     -47.068  15.769  -6.924  0.00  0.00     0.244 HD
ENDBRANCH   9  11
ENDBRANCH   6   7
ENDBRANCH   5   6
ENDBRANCH   4   5
ENDBRANCH   3   4
ENDBRANCH   2   3
ENDBRANCH   1   2
BRANCH   1  13
ATOM     13  N1  NON d   1     -39.041  19.005  -6.488  0.00  0.00    -0.324 N 
ATOM     14  C8  NON d   1     -39.208  18.936  -7.866  0.00  0.00     0.361 C 
ATOM     15  O2  NON d   1     -40.315  18.809  -8.371  0.00  0.00    -0.238 OA
ATOM     16  H12 NON d   1     -38.119  19.154  -6.100  0.00  0.00     0.165 HD
BRANCH  14  17
ATOM     17  O3  NON d   1     -38.029  18.842  -8.547  0.00  0.00    -0.299 OA
BRANCH  17  18
ATOM     18  C9  NON d   1     -37.492  20.134  -8.912  0.00  0.00     0.219 C 
BRANCH  18  19
ATOM     19  C10 NON d   1     -38.381  21.348  -8.717  0.00  0.00    -0.034 A 
ATOM     20  C11 NON d   1     -39.219  21.856  -9.713  0.00  0.00     0.009 A 
ATOM     21  C12 NON d   1     -39.910  23.060  -9.513  0.00  0.00     0.001 A 
ATOM     22  C13 NON d   1     -39.766  23.774  -8.323  0.00  0.00     0.000 A 
ATOM     23  C14 NON d   1     -38.933  23.286  -7.323  0.00  0.00     0.001 A 
ATOM     24  C15 NON d   1     -38.243  22.086  -7.522  0.00  0.00     0.009 A 
ENDBRANCH  18  19
ENDBRANCH  17  18
ENDBRANCH  14  17
ENDBRANCH   1  13
BRANCH   1  25
ATOM     25  C16 NON d   1     -39.803  19.841  -4.418  0.00  0.00     0.245 C 
ATOM     26  O4  NON d   1     -38.596  19.749  -4.146  0.00  0.00    -0.271 OA
ATOM     27  N2  NON d   1     -40.599  20.696  -3.685  0.00  0.00    -0.325 N 
ATOM     28  H20 NON d   1     -41.470  20.971  -4.106  0.00  0.00     0.169 HD
BRANCH  27  29
ATOM     29  C17 NON d   1     -40.214  21.415  -2.525  0.00  0.00     0.034 A 
ATOM     30  C18 NON d   1     -40.103  22.806  -2.629  0.00  0.00     0.029 A 
ATOM     31  C19 NON d   1     -39.693  23.578  -1.532  0.00  0.00     0.002 A 
ATOM     32  C20 NON d   1     -39.403  22.969  -0.314  0.00  0.00     0.000 A 
ATOM     33  C21 NON d   1     -39.529  21.591  -0.190  0.00  0.00     0.002 A 
ATOM     34  C22 NON d   1     -39.941  20.823  -1.284  0.00  0.00     0.029 A 
ENDBRANCH  27  29
ENDBRANCH   1  25
TORSDOF 13
ENDMDL
MODEL 9
REMARK VINA RESULT:   -13.872      2.827      8.239
REMARK INTER + INTRA:         -21.910
REMARK INTER:                 -17.750
REMARK INTRA:                  -4.160
REMARK CONF_INDEPENDENT:        3.878
REMARK UNBOUND:                -4.160
REMARK  13 active torsions:
REMARK  status: ('A' for Active; 'I' for Inactive)
REMARK    1  A    between atoms: C1_2  and  C2_3 
REMARK       I    between atoms: C1_2  and  N3_29 
REMARK    2  A    between atoms: C2_3  and  C3_4 
REMARK    3  A    between atoms: C3_4  and  C4_5 
REMARK    4  A    between atoms: C4_5  and  C5_6 
REMARK    5  A    between atoms: C5_6  and  C6_7 
REMARK    6  A    between atoms: C7_8  and  C6_7 
REMARK    7  A    between atoms: C7_8  and  N1_9 
REMARK    8  A    between atoms: C7_8  and  C16_20 
REMARK       I    between atoms: N1_9  and  C8_10 
REMARK    9  A    between atoms: C8_10  and  O3_12 
REMARK   10  A    between atoms: O3_12  and  C9_13 
REMARK   11  A    between atoms: C9_13  and  C10_14 
REMARK       I    between atoms: C16_20  and  N2_22 
REMARK   12  A    between atoms: N2_22  and  C17_23 
REMARK   13  A    between atoms: N3_29  and  O5_30 
ROOT
ATOM      1  C7  NON d   1     -44.095  17.166  -5.032  0.00  0.00     0.179 C 
ENDROOT
BRANCH   1   2
ATOM      2  C6  NON d   1     -43.250  16.507  -3.845  0.00  0.00     0.035 C 
BRANCH   2   3
ATOM      3  C5  NON d   1     -42.737  17.624  -2.816  0.00  0.00     0.002 C 
BRANCH   3   4
ATOM      4  C4  NON d   1     -41.214  17.628  -2.481  0.00  0.00     0.001 C 
BRANCH   4   5
ATOM      5  C3  NON d   1     -40.538  18.978  -2.200  0.00  0.00     0.009 C 
BRANCH   5   6
ATOM      6  C2  NON d   1     -39.056  19.048  -2.553  0.00  0.00     0.105 C 
BRANCH   6   7
ATOM      7  C1  NON d   1     -38.742  18.789  -4.011  0.00  0.00     0.240 C 
ATOM      8  O1  NON d   1     -39.444  18.114  -4.754  0.00  0.00    -0.271 OA
ATOM      9  N3  NON d   1     -37.525  19.334  -4.375  0.00  0.00    -0.237 N 
ATOM     10  H26 NON d   1     -37.118  20.105  -3.856  0.00  0.00     0.197 HD
BRANCH   9  11
ATOM     11  O5  NON d   1     -37.234  19.308  -5.755  0.00  0.00    -0.287 OA
ATOM     12  H27 NON d   1     -37.779  18.560  -6.065  0.00  0.00     0.244 HD
ENDBRANCH   9  11
ENDBRANCH   6   7
ENDBRANCH   5   6
ENDBRANCH   4   5
ENDBRANCH   3   4
ENDBRANCH   2   3
ENDBRANCH   1   2
BRANCH   1  13
ATOM     13  N1  NON d   1     -45.541  17.478  -5.190  0.00  0.00    -0.324 N 
ATOM     14  C8  NON d   1     -46.346  16.456  -5.677  0.00  0.00     0.361 C 
ATOM     15  O2  NON d   1     -45.870  15.405  -6.083  0.00  0.00    -0.238 OA
ATOM     16  H12 NON d   1     -45.965  18.319  -4.820  0.00  0.00     0.165 HD
BRANCH  14  17
ATOM     17  O3  NON d   1     -47.654  16.819  -5.814  0.00  0.00    -0.299 OA
BRANCH  17  18
ATOM     18  C9  NON d   1     -48.559  15.904  -5.155  0.00  0.00     0.219 C 
BRANCH  18  19
ATOM     19  C10 NON d   1     -48.874  16.154  -3.692  0.00  0.00    -0.034 A 
ATOM     20  C11 NON d   1     -50.174  16.199  -3.183  0.00  0.00     0.009 A 
ATOM     21  C12 NON d   1     -50.400  16.570  -1.848  0.00  0.00     0.001 A 
ATOM     22  C13 NON d   1     -49.335  16.910  -1.014  0.00  0.00     0.000 A 
ATOM     23  C14 NON d   1     -48.035  16.876  -1.506  0.00  0.00     0.001 A 
ATOM     24  C15 NON d   1     -47.809  16.506  -2.835  0.00  0.00     0.009 A 
ENDBRANCH  18  19
ENDBRANCH  17  18
ENDBRANCH  14  17
ENDBRANCH   1  13
BRANCH   1  25
ATOM     25  C16 NON d   1     -43.425  18.495  -5.425  0.00  0.00     0.245 C 
ATOM     26  O4  NON d   1     -44.150  19.503  -5.418  0.00  0.00    -0.271 OA
ATOM     27  N2  NON d   1     -42.071  18.637  -5.642  0.00  0.00    -0.325 N 
ATOM     28  H20 NON d   1     -41.486  17.873  -5.350  0.00  0.00     0.169 HD
BRANCH  27  29
ATOM     29  C17 NON d   1     -41.398  19.832  -6.004  0.00  0.00     0.034 A 
ATOM     30  C18 NON d   1     -41.007  19.979  -7.339  0.00  0.00     0.029 A 
ATOM     31  C19 NON d   1     -40.305  21.119  -7.760  0.00  0.00     0.002 A 
ATOM     32  C20 NON d   1     -40.000  22.131  -6.853  0.00  0.00     0.000 A 
ATOM     33  C21 NON d   1     -40.402  22.008  -5.529  0.00  0.00     0.002 A 
ATOM     34  C22 NON d   1     -41.103  20.872  -5.112  0.00  0.00     0.029 A 
ENDBRANCH  27  29
ENDBRANCH   1  25
TORSDOF 13
ENDMDL
