MODEL 1
REMARK VINA RESULT:    -8.344      0.000      0.000
REMARK INTER + INTRA:         -10.934
REMARK INTER:                 -10.134
REMARK INTRA:                  -0.800
REMARK CONF_INDEPENDENT:        1.790
REMARK UNBOUND:                -0.800
REMARK  6 active torsions:
REMARK  status: ('A' for Active; 'I' for Inactive)
REMARK    1  A    between atoms: C3_3  and  C2_2 
REMARK    2  A    between atoms: C5_5  and  C3_3 
REMARK    3  A    between atoms: C16_22  and  C17_23 
REMARK    4  A    between atoms: C17_23  and  C18_24 
REMARK    5  A    between atoms: C18_24  and  S3_25 
REMARK    6  A    between atoms: C23_35  and  O7_36 
ROOT
ATOM      1  C5  NON d   1     -39.151  21.351  -1.737  0.00  0.00     0.117 C 
ATOM      2  N1  NON d   1     -37.775  20.797  -1.653  0.00  0.00    -0.352 N 
ATOM      3  C6  NON d   1     -37.486  19.505  -2.088  0.00  0.00     0.241 C 
ATOM      4  O1  NON d   1     -36.852  18.754  -1.348  0.00  0.00    -0.271 OA
ATOM      5  C7  NON d   1     -37.901  19.086  -3.527  0.00  0.00     0.186 C 
ATOM      6  C8  NON d   1     -36.624  18.588  -4.250  0.00  0.00     0.120 C 
ATOM      7  S1  NON d   1     -36.684  18.792  -6.093  0.00  0.00    -0.095 SA
ATOM      8  S2  NON d   1     -36.334  20.816  -6.395  0.00  0.00    -0.097 SA
ATOM      9  C9  NON d   1     -36.191  20.983  -8.219  0.00  0.00     0.090 C 
ATOM     10  C10 NON d   1     -37.141  21.994  -8.890  0.00  0.00     0.038 C 
ATOM     11  C11 NON d   1     -38.513  21.602  -9.373  0.00  0.00    -0.027 C 
ATOM     12  C12 NON d   1     -39.621  21.150  -8.759  0.00  0.00     0.002 C 
ATOM     13  C13 NON d   1     -39.897  20.733  -7.331  0.00  0.00     0.163 C 
ATOM     14  C14 NON d   1     -41.346  20.236  -7.118  0.00  0.00     0.139 C 
ATOM     15  C15 NON d   1     -41.309  18.821  -6.558  0.00  0.00     0.221 C 
ATOM     16  O2  NON d   1     -40.542  17.938  -6.924  0.00  0.00    -0.274 OA
ATOM     17  N2  NON d   1     -42.150  18.649  -5.487  0.00  0.00    -0.348 N 
ATOM     18  C16 NON d   1     -41.627  17.997  -4.293  0.00  0.00     0.177 C 
ATOM     19  C20 NON d   1     -40.412  18.887  -3.901  0.00  0.00     0.241 C 
ATOM     20  O4  NON d   1     -40.606  20.103  -3.869  0.00  0.00    -0.271 OA
ATOM     21  N3  NON d   1     -39.158  18.305  -3.696  0.00  0.00    -0.345 N 
ATOM     22  O5  NON d   1     -39.310  21.635  -6.339  0.00  0.00    -0.311 OA
ATOM     23  C21 NON d   1     -39.915  22.390  -5.365  0.00  0.00     0.262 C 
ATOM     24  O6  NON d   1     -41.029  22.878  -5.428  0.00  0.00    -0.265 OA
ATOM     25  C22 NON d   1     -38.949  22.451  -4.169  0.00  0.00     0.144 C 
ATOM     26  C23 NON d   1     -39.365  22.636  -2.685  0.00  0.00     0.150 C 
ATOM     27  H11 NON d   1     -37.288  21.030  -0.793  0.00  0.00     0.163 HD
ATOM     28  H24 NON d   1     -43.109  18.431  -5.749  0.00  0.00     0.163 HD
ATOM     29  H33 NON d   1     -39.064  17.335  -3.955  0.00  0.00     0.163 HD
ENDROOT
BRANCH  18  30
ATOM     30  C17 NON d   1     -42.710  17.951  -3.184  0.00  0.00     0.047 C 
BRANCH  30  31
ATOM     31  C18 NON d   1     -43.868  16.926  -3.265  0.00  0.00     0.111 C 
BRANCH  31  32
ATOM     32  S3  NON d   1     -45.297  17.440  -4.280  0.00  0.00     0.010 S 
ATOM     33  C19 NON d   1     -46.648  16.959  -3.178  0.00  0.00     0.127 C 
ATOM     34  O3  NON d   1     -45.339  16.562  -5.497  0.00  0.00    -0.258 OA
ENDBRANCH  31  32
ENDBRANCH  30  31
ENDBRANCH  18  30
BRANCH   1  35
ATOM     35  C3  NON d   1     -39.882  21.402  -0.339  0.00  0.00     0.006 C 
ATOM     36  C4  NON d   1     -40.861  22.558  -0.103  0.00  0.00     0.012 C 
BRANCH  35  37
ATOM     37  C2  NON d   1     -38.864  21.361   0.846  0.00  0.00     0.002 C 
ATOM     38  C1  NON d   1     -37.959  22.578   1.024  0.00  0.00     0.005 C 
ENDBRANCH  35  37
ENDBRANCH   1  35
BRANCH  26  39
ATOM     39  O7  NON d   1     -38.634  23.727  -2.098  0.00  0.00    -0.393 OA
ATOM     40  H37 NON d   1     -39.227  24.234  -1.516  0.00  0.00     0.210 HD
ENDBRANCH  26  39
TORSDOF 6
ENDMDL
MODEL 2
REMARK VINA RESULT:    -7.417      2.065      2.644
REMARK INTER + INTRA:         -10.135
REMARK INTER:                  -9.207
REMARK INTRA:                  -0.928
REMARK CONF_INDEPENDENT:        1.790
REMARK UNBOUND:                -0.928
REMARK  6 active torsions:
REMARK  status: ('A' for Active; 'I' for Inactive)
REMARK    1  A    between atoms: C3_3  and  C2_2 
REMARK    2  A    between atoms: C5_5  and  C3_3 
REMARK    3  A    between atoms: C16_22  and  C17_23 
REMARK    4  A    between atoms: C17_23  and  C18_24 
REMARK    5  A    between atoms: C18_24  and  S3_25 
REMARK    6  A    between atoms: C23_35  and  O7_36 
ROOT
ATOM      1  C5  NON d   1     -38.096  20.978  -3.742  0.00  0.00     0.117 C 
ATOM      2  N1  NON d   1     -36.959  20.072  -4.047  0.00  0.00    -0.352 N 
ATOM      3  C6  NON d   1     -37.140  18.906  -4.789  0.00  0.00     0.241 C 
ATOM      4  O1  NON d   1     -36.680  17.848  -4.360  0.00  0.00    -0.271 OA
ATOM      5  C7  NON d   1     -37.841  18.998  -6.173  0.00  0.00     0.186 C 
ATOM      6  C8  NON d   1     -36.881  18.377  -7.220  0.00  0.00     0.120 C 
ATOM      7  S1  NON d   1     -37.107  19.055  -8.933  0.00  0.00    -0.095 SA
ATOM      8  S2  NON d   1     -36.190  20.916  -8.870  0.00  0.00    -0.097 SA
ATOM      9  C9  NON d   1     -36.233  21.501 -10.611  0.00  0.00     0.090 C 
ATOM     10  C10 NON d   1     -36.902  22.867 -10.858  0.00  0.00     0.038 C 
ATOM     11  C11 NON d   1     -38.378  22.997 -11.134  0.00  0.00    -0.027 C 
ATOM     12  C12 NON d   1     -39.484  22.719 -10.423  0.00  0.00     0.002 C 
ATOM     13  C13 NON d   1     -39.693  22.040  -9.086  0.00  0.00     0.163 C 
ATOM     14  C14 NON d   1     -41.186  21.915  -8.702  0.00  0.00     0.139 C 
ATOM     15  C15 NON d   1     -41.518  20.447  -8.466  0.00  0.00     0.221 C 
ATOM     16  O2  NON d   1     -41.113  19.515  -9.150  0.00  0.00    -0.274 OA
ATOM     17  N2  NON d   1     -42.228  20.240  -7.311  0.00  0.00    -0.348 N 
ATOM     18  C16 NON d   1     -41.786  19.188  -6.405  0.00  0.00     0.177 C 
ATOM     19  C20 NON d   1     -40.317  19.586  -6.082  0.00  0.00     0.241 C 
ATOM     20  O4  NON d   1     -40.120  20.759  -5.761  0.00  0.00    -0.271 OA
ATOM     21  N3  NON d   1     -39.288  18.655  -6.252  0.00  0.00    -0.345 N 
ATOM     22  O5  NON d   1     -38.737  22.465  -8.063  0.00  0.00    -0.311 OA
ATOM     23  C21 NON d   1     -38.952  23.079  -6.855  0.00  0.00     0.262 C 
ATOM     24  O6  NON d   1     -39.859  23.848  -6.595  0.00  0.00    -0.265 OA
ATOM     25  C22 NON d   1     -37.872  22.569  -5.884  0.00  0.00     0.144 C 
ATOM     26  C23 NON d   1     -38.020  22.472  -4.342  0.00  0.00     0.150 C 
ATOM     27  H11 NON d   1     -36.320  19.936  -3.270  0.00  0.00     0.163 HD
ATOM     28  H24 NON d   1     -43.233  20.363  -7.420  0.00  0.00     0.163 HD
ATOM     29  H33 NON d   1     -39.532  17.796  -6.720  0.00  0.00     0.163 HD
ENDROOT
BRANCH  18  30
ATOM     30  C17 NON d   1     -42.682  19.153  -5.140  0.00  0.00     0.047 C 
BRANCH  30  31
ATOM     31  C18 NON d   1     -44.223  19.084  -5.275  0.00  0.00     0.111 C 
BRANCH  31  32
ATOM     32  S3  NON d   1     -44.996  17.553  -4.643  0.00  0.00     0.010 S 
ATOM     33  C19 NON d   1     -43.519  16.666  -4.094  0.00  0.00     0.127 C 
ATOM     34  O3  NON d   1     -45.588  16.819  -5.810  0.00  0.00    -0.258 OA
ENDBRANCH  31  32
ENDBRANCH  30  31
ENDBRANCH  18  30
BRANCH   1  35
ATOM     35  C3  NON d   1     -38.594  20.864  -2.249  0.00  0.00     0.006 C 
ATOM     36  C4  NON d   1     -37.528  20.634  -1.172  0.00  0.00     0.012 C 
BRANCH  35  37
ATOM     37  C2  NON d   1     -39.703  19.775  -2.093  0.00  0.00     0.002 C 
ATOM     38  C1  NON d   1     -39.437  18.417  -2.737  0.00  0.00     0.005 C 
ENDBRANCH  35  37
ENDBRANCH   1  35
BRANCH  26  39
ATOM     39  O7  NON d   1     -36.920  23.138  -3.697  0.00  0.00    -0.393 OA
ATOM     40  H37 NON d   1     -37.255  23.915  -3.215  0.00  0.00     0.210 HD
ENDBRANCH  26  39
TORSDOF 6
ENDMDL
MODEL 3
REMARK VINA RESULT:    -6.809      2.917      6.185
REMARK INTER + INTRA:          -9.295
REMARK INTER:                  -8.599
REMARK INTRA:                  -0.696
REMARK CONF_INDEPENDENT:        1.790
REMARK UNBOUND:                -0.696
REMARK  6 active torsions:
REMARK  status: ('A' for Active; 'I' for Inactive)
REMARK    1  A    between atoms: C3_3  and  C2_2 
REMARK    2  A    between atoms: C5_5  and  C3_3 
REMARK    3  A    between atoms: C16_22  and  C17_23 
REMARK    4  A    between atoms: C17_23  and  C18_24 
REMARK    5  A    between atoms: C18_24  and  S3_25 
REMARK    6  A    between atoms: C23_35  and  O7_36 
ROOT
ATOM      1  C5  NON d   1     -39.394  23.549  -6.164  0.00  0.00     0.117 C 
ATOM      2  N1  NON d   1     -39.905  24.740  -5.438  0.00  0.00    -0.352 N 
ATOM      3  C6  NON d   1     -40.949  24.638  -4.521  0.00  0.00     0.241 C 
ATOM      4  O1  NON d   1     -41.897  25.418  -4.607  0.00  0.00    -0.271 OA
ATOM      5  C7  NON d   1     -40.838  23.598  -3.370  0.00  0.00     0.186 C 
ATOM      6  C8  NON d   1     -41.012  24.367  -2.035  0.00  0.00     0.120 C 
ATOM      7  S1  NON d   1     -40.166  23.558  -0.595  0.00  0.00    -0.095 SA
ATOM      8  S2  NON d   1     -38.159  24.021  -0.856  0.00  0.00    -0.097 SA
ATOM      9  C9  NON d   1     -37.348  23.397   0.670  0.00  0.00     0.090 C 
ATOM     10  C10 NON d   1     -36.190  22.400   0.472  0.00  0.00     0.038 C 
ATOM     11  C11 NON d   1     -36.420  20.913   0.393  0.00  0.00    -0.027 C 
ATOM     12  C12 NON d   1     -37.090  20.121  -0.462  0.00  0.00     0.002 C 
ATOM     13  C13 NON d   1     -37.996  20.423  -1.636  0.00  0.00     0.163 C 
ATOM     14  C14 NON d   1     -38.574  19.148  -2.294  0.00  0.00     0.139 C 
ATOM     15  C15 NON d   1     -40.095  19.225  -2.277  0.00  0.00     0.221 C 
ATOM     16  O2  NON d   1     -40.769  19.636  -1.339  0.00  0.00    -0.274 OA
ATOM     17  N2  NON d   1     -40.659  18.904  -3.485  0.00  0.00    -0.348 N 
ATOM     18  C16 NON d   1     -41.680  19.790  -4.031  0.00  0.00     0.177 C 
ATOM     19  C20 NON d   1     -40.957  21.165  -4.110  0.00  0.00     0.241 C 
ATOM     20  O4  NON d   1     -39.837  21.172  -4.624  0.00  0.00    -0.271 OA
ATOM     21  N3  NON d   1     -41.540  22.295  -3.530  0.00  0.00    -0.345 N 
ATOM     22  O5  NON d   1     -37.492  21.492  -2.498  0.00  0.00    -0.311 OA
ATOM     23  C21 NON d   1     -37.150  21.468  -3.827  0.00  0.00     0.262 C 
ATOM     24  O6  NON d   1     -36.702  20.511  -4.432  0.00  0.00    -0.265 OA
ATOM     25  C22 NON d   1     -37.494  22.848  -4.413  0.00  0.00     0.144 C 
ATOM     26  C23 NON d   1     -37.862  23.131  -5.895  0.00  0.00     0.150 C 
ATOM     27  H11 NON d   1     -39.981  25.573  -6.014  0.00  0.00     0.163 HD
ATOM     28  H24 NON d   1     -40.795  17.904  -3.622  0.00  0.00     0.163 HD
ATOM     29  H33 NON d   1     -42.351  22.136  -2.953  0.00  0.00     0.163 HD
ENDROOT
BRANCH  18  30
ATOM     30  C17 NON d   1     -42.147  19.285  -5.420  0.00  0.00     0.047 C 
BRANCH  30  31
ATOM     31  C18 NON d   1     -43.657  19.166  -5.742  0.00  0.00     0.111 C 
BRANCH  31  32
ATOM     32  S3  NON d   1     -44.529  17.796  -4.904  0.00  0.00     0.010 S 
ATOM     33  C19 NON d   1     -43.218  16.551  -4.900  0.00  0.00     0.127 C 
ATOM     34  O3  NON d   1     -45.630  17.327  -5.810  0.00  0.00    -0.258 OA
ENDBRANCH  31  32
ENDBRANCH  30  31
ENDBRANCH  18  30
BRANCH   1  35
ATOM     35  C3  NON d   1     -39.864  23.495  -7.670  0.00  0.00     0.006 C 
ATOM     36  C4  NON d   1     -39.138  22.512  -8.595  0.00  0.00     0.012 C 
BRANCH  35  37
ATOM     37  C2  NON d   1     -39.841  24.910  -8.332  0.00  0.00     0.002 C 
ATOM     38  C1  NON d   1     -39.971  24.966  -9.852  0.00  0.00     0.005 C 
ENDBRANCH  35  37
ENDBRANCH   1  35
BRANCH  26  39
ATOM     39  O7  NON d   1     -37.032  24.184  -6.418  0.00  0.00    -0.393 OA
ATOM     40  H37 NON d   1     -37.172  24.992  -5.892  0.00  0.00     0.210 HD
ENDBRANCH  26  39
TORSDOF 6
ENDMDL
MODEL 4
REMARK VINA RESULT:    -5.655      2.853      6.329
REMARK INTER + INTRA:          -8.925
REMARK INTER:                  -7.445
REMARK INTRA:                  -1.480
REMARK CONF_INDEPENDENT:        1.790
REMARK UNBOUND:                -1.480
REMARK  6 active torsions:
REMARK  status: ('A' for Active; 'I' for Inactive)
REMARK    1  A    between atoms: C3_3  and  C2_2 
REMARK    2  A    between atoms: C5_5  and  C3_3 
REMARK    3  A    between atoms: C16_22  and  C17_23 
REMARK    4  A    between atoms: C17_23  and  C18_24 
REMARK    5  A    between atoms: C18_24  and  S3_25 
REMARK    6  A    between atoms: C23_35  and  O7_36 
ROOT
ATOM      1  C5  NON d   1     -39.054  24.188  -5.833  0.00  0.00     0.117 C 
ATOM      2  N1  NON d   1     -39.670  25.018  -4.766  0.00  0.00    -0.352 N 
ATOM      3  C6  NON d   1     -40.762  24.561  -4.032  0.00  0.00     0.241 C 
ATOM      4  O1  NON d   1     -41.742  25.294  -3.902  0.00  0.00    -0.271 OA
ATOM      5  C7  NON d   1     -40.671  23.176  -3.332  0.00  0.00     0.186 C 
ATOM      6  C8  NON d   1     -40.967  23.398  -1.827  0.00  0.00     0.120 C 
ATOM      7  S1  NON d   1     -40.173  22.140  -0.717  0.00  0.00    -0.095 SA
ATOM      8  S2  NON d   1     -38.180  22.715  -0.637  0.00  0.00    -0.097 SA
ATOM      9  C9  NON d   1     -37.437  21.597   0.616  0.00  0.00     0.090 C 
ATOM     10  C10 NON d   1     -36.218  20.770   0.159  0.00  0.00     0.038 C 
ATOM     11  C11 NON d   1     -36.367  19.410  -0.472  0.00  0.00    -0.027 C 
ATOM     12  C12 NON d   1     -36.940  18.969  -1.605  0.00  0.00     0.002 C 
ATOM     13  C13 NON d   1     -37.785  19.657  -2.655  0.00  0.00     0.163 C 
ATOM     14  C14 NON d   1     -38.254  18.698  -3.774  0.00  0.00     0.139 C 
ATOM     15  C15 NON d   1     -39.775  18.725  -3.847  0.00  0.00     0.221 C 
ATOM     16  O2  NON d   1     -40.527  18.748  -2.879  0.00  0.00    -0.274 OA
ATOM     17  N2  NON d   1     -40.245  18.855  -5.129  0.00  0.00    -0.348 N 
ATOM     18  C16 NON d   1     -41.274  19.853  -5.393  0.00  0.00     0.177 C 
ATOM     19  C20 NON d   1     -40.618  21.179  -4.912  0.00  0.00     0.241 C 
ATOM     20  O4  NON d   1     -39.470  21.401  -5.301  0.00  0.00    -0.271 OA
ATOM     21  N3  NON d   1     -41.294  22.005  -4.008  0.00  0.00    -0.345 N 
ATOM     22  O5  NON d   1     -37.283  20.980  -3.029  0.00  0.00    -0.311 OA
ATOM     23  C21 NON d   1     -36.857  21.452  -4.245  0.00  0.00     0.262 C 
ATOM     24  O6  NON d   1     -36.323  20.794  -5.120  0.00  0.00    -0.265 OA
ATOM     25  C22 NON d   1     -37.234  22.942  -4.315  0.00  0.00     0.144 C 
ATOM     26  C23 NON d   1     -37.522  23.738  -5.616  0.00  0.00     0.150 C 
ATOM     27  H11 NON d   1     -39.752  26.001  -5.004  0.00  0.00     0.163 HD
ATOM     28  H24 NON d   1     -40.321  17.971  -5.630  0.00  0.00     0.163 HD
ATOM     29  H33 NON d   1     -42.131  21.625  -3.592  0.00  0.00     0.163 HD
ENDROOT
BRANCH  18  30
ATOM     30  C17 NON d   1     -41.626  19.880  -6.903  0.00  0.00     0.047 C 
BRANCH  30  31
ATOM     31  C18 NON d   1     -40.506  20.013  -7.965  0.00  0.00     0.111 C 
BRANCH  31  32
ATOM     32  S3  NON d   1     -39.193  18.746  -7.878  0.00  0.00     0.010 S 
ATOM     33  C19 NON d   1     -37.822  19.672  -8.608  0.00  0.00     0.127 C 
ATOM     34  O3  NON d   1     -39.565  17.630  -8.810  0.00  0.00    -0.258 OA
ENDBRANCH  31  32
ENDBRANCH  30  31
ENDBRANCH  18  30
BRANCH   1  35
ATOM     35  C3  NON d   1     -39.425  24.677  -7.287  0.00  0.00     0.006 C 
ATOM     36  C4  NON d   1     -40.315  25.919  -7.402  0.00  0.00     0.012 C 
BRANCH  35  37
ATOM     37  C2  NON d   1     -40.060  23.529  -8.136  0.00  0.00     0.002 C 
ATOM     38  C1  NON d   1     -39.137  22.785  -9.097  0.00  0.00     0.005 C 
ENDBRANCH  35  37
ENDBRANCH   1  35
BRANCH  26  39
ATOM     39  O7  NON d   1     -36.716  24.929  -5.656  0.00  0.00    -0.393 OA
ATOM     40  H37 NON d   1     -36.901  25.467  -4.864  0.00  0.00     0.210 HD
ENDBRANCH  26  39
TORSDOF 6
ENDMDL
MODEL 5
REMARK VINA RESULT:    -5.348      3.171      5.354
REMARK INTER + INTRA:          -8.731
REMARK INTER:                  -7.138
REMARK INTRA:                  -1.593
REMARK CONF_INDEPENDENT:        1.790
REMARK UNBOUND:                -1.593
REMARK  6 active torsions:
REMARK  status: ('A' for Active; 'I' for Inactive)
REMARK    1  A    between atoms: C3_3  and  C2_2 
REMARK    2  A    between atoms: C5_5  and  C3_3 
REMARK    3  A    between atoms: C16_22  and  C17_23 
REMARK    4  A    between atoms: C17_23  and  C18_24 
REMARK    5  A    between atoms: C18_24  and  S3_25 
REMARK    6  A    between atoms: C23_35  and  O7_36 
ROOT
ATOM      1  C5  NON d   1     -39.586  25.853  -2.483  0.00  0.00     0.117 C 
ATOM      2  N1  NON d   1     -38.446  26.299  -3.325  0.00  0.00    -0.352 N 
ATOM      3  C6  NON d   1     -37.261  25.568  -3.386  0.00  0.00     0.241 C 
ATOM      4  O1  NON d   1     -36.190  26.155  -3.231  0.00  0.00    -0.271 OA
ATOM      5  C7  NON d   1     -37.328  24.054  -3.733  0.00  0.00     0.186 C 
ATOM      6  C8  NON d   1     -36.416  23.821  -4.964  0.00  0.00     0.120 C 
ATOM      7  S1  NON d   1     -36.923  22.370  -6.004  0.00  0.00    -0.095 SA
ATOM      8  S2  NON d   1     -38.564  23.058  -7.073  0.00  0.00    -0.097 SA
ATOM      9  C9  NON d   1     -38.942  21.696  -8.247  0.00  0.00     0.090 C 
ATOM     10  C10 NON d   1     -40.375  21.131  -8.202  0.00  0.00     0.038 C 
ATOM     11  C11 NON d   1     -40.758  19.995  -7.289  0.00  0.00    -0.027 C 
ATOM     12  C12 NON d   1     -40.785  19.845  -5.954  0.00  0.00     0.002 C 
ATOM     13  C13 NON d   1     -40.318  20.730  -4.818  0.00  0.00     0.163 C 
ATOM     14  C14 NON d   1     -40.532  20.089  -3.427  0.00  0.00     0.139 C 
ATOM     15  C15 NON d   1     -39.195  20.014  -2.703  0.00  0.00     0.221 C 
ATOM     16  O2  NON d   1     -38.129  19.704  -3.222  0.00  0.00    -0.274 OA
ATOM     17  N2  NON d   1     -39.264  20.459  -1.408  0.00  0.00    -0.348 N 
ATOM     18  C16 NON d   1     -38.257  21.406  -0.945  0.00  0.00     0.177 C 
ATOM     19  C20 NON d   1     -38.395  22.592  -1.942  0.00  0.00     0.241 C 
ATOM     20  O4  NON d   1     -39.536  23.005  -2.155  0.00  0.00    -0.271 OA
ATOM     21  N3  NON d   1     -37.268  23.074  -2.614  0.00  0.00    -0.345 N 
ATOM     22  O5  NON d   1     -40.663  22.140  -5.002  0.00  0.00    -0.311 OA
ATOM     23  C21 NON d   1     -41.442  22.967  -4.231  0.00  0.00     0.262 C 
ATOM     24  O6  NON d   1     -42.398  22.626  -3.559  0.00  0.00    -0.265 OA
ATOM     25  C22 NON d   1     -40.846  24.382  -4.332  0.00  0.00     0.144 C 
ATOM     26  C23 NON d   1     -40.957  25.485  -3.245  0.00  0.00     0.150 C 
ATOM     27  H11 NON d   1     -38.279  27.300  -3.296  0.00  0.00     0.163 HD
ATOM     28  H24 NON d   1     -39.568  19.748  -0.744  0.00  0.00     0.163 HD
ATOM     29  H33 NON d   1     -36.425  22.527  -2.527  0.00  0.00     0.163 HD
ENDROOT
BRANCH  18  30
ATOM     30  C17 NON d   1     -38.543  21.827   0.520  0.00  0.00     0.047 C 
BRANCH  30  31
ATOM     31  C18 NON d   1     -39.297  23.146   0.821  0.00  0.00     0.111 C 
BRANCH  31  32
ATOM     32  S3  NON d   1     -41.065  22.958   1.240  0.00  0.00     0.010 S 
ATOM     33  C19 NON d   1     -41.812  23.629  -0.263  0.00  0.00     0.127 C 
ATOM     34  O3  NON d   1     -41.371  23.885   2.380  0.00  0.00    -0.258 OA
ENDBRANCH  31  32
ENDBRANCH  30  31
ENDBRANCH  18  30
BRANCH   1  35
ATOM     35  C3  NON d   1     -39.744  26.699  -1.160  0.00  0.00     0.006 C 
ATOM     36  C4  NON d   1     -38.836  26.330   0.018  0.00  0.00     0.012 C 
BRANCH  35  37
ATOM     37  C2  NON d   1     -41.224  26.717  -0.660  0.00  0.00     0.002 C 
ATOM     38  C1  NON d   1     -41.447  26.673   0.850  0.00  0.00     0.005 C 
ENDBRANCH  35  37
ENDBRANCH   1  35
BRANCH  26  39
ATOM     39  O7  NON d   1     -41.465  26.700  -3.825  0.00  0.00    -0.393 OA
ATOM     40  H37 NON d   1     -40.872  26.983  -4.544  0.00  0.00     0.210 HD
ENDBRANCH  26  39
TORSDOF 6
ENDMDL
