MODEL 1
REMARK VINA RESULT:   -36.689      0.000      0.000
REMARK INTER + INTRA:         -39.798
REMARK INTER:                 -39.373
REMARK INTRA:                  -0.425
REMARK CONF_INDEPENDENT:        2.685
REMARK UNBOUND:                -0.425
REMARK  9 active torsions:
REMARK  status: ('A' for Active; 'I' for Inactive)
REMARK    1  A    between atoms: N1_1  and  C1_2 
REMARK    2  A    between atoms: C6_7  and  N2_8 
REMARK       I    between atoms: N2_8  and  C7_9 
REMARK    3  A    between atoms: C7_9  and  C8_11 
REMARK    4  A    between atoms: C11_14  and  C12_15 
REMARK    5  A    between atoms: N3_16  and  C12_15 
REMARK    6  A    between atoms: C14_19  and  N5_20 
REMARK    7  A    between atoms: N5_20  and  C15_21 
REMARK    8  A    between atoms: C18_25  and  N7_26 
REMARK    9  A    between atoms: N7_26  and  C19_27 
ROOT
ATOM      1  N3  NON d   1     -40.562  21.639  -4.357  0.00  0.00    -0.100 NA
ATOM      2  C13 NON d   1     -39.969  21.926  -3.252  0.00  0.00     0.752 A 
ATOM      3  N4  NON d   1     -39.214  20.996  -2.515  0.00  0.00    -0.018 N 
ATOM      4  C14 NON d   1     -38.570  21.301  -1.373  0.00  0.00     0.707 A 
ATOM      5  N6  NON d   1     -38.730  22.490  -0.879  0.00  0.00    -0.020 N 
ATOM      6  C18 NON d   1     -39.444  23.401  -1.495  0.00  0.00     0.731 A 
ATOM      7  N8  NON d   1     -40.042  23.150  -2.759  0.00  0.00     0.129 NA
ATOM      8  H12 NON d   1     -39.146  20.062  -2.873  0.00  0.00     0.203 HD
ATOM      9  H19 NON d   1     -38.278  22.700  -0.021  0.00  0.00     0.203 HD
ENDROOT
BRANCH   1  10
ATOM     10  C12 NON d   1     -40.441  20.265  -4.855  0.00  0.00     0.207 C 
BRANCH  10  11
ATOM     11  C11 NON d   1     -41.609  19.316  -4.703  0.00  0.00    -0.038 A 
ATOM     12  C10 NON d   1     -42.850  19.773  -5.174  0.00  0.00     0.010 A 
ATOM     13  C9  NON d   1     -43.982  18.961  -5.140  0.00  0.00     0.017 A 
ATOM     14  C8  NON d   1     -43.923  17.655  -4.633  0.00  0.00     0.032 A 
ATOM     15  C29 NON d   1     -42.692  17.195  -4.139  0.00  0.00     0.017 A 
ATOM     16  C28 NON d   1     -41.544  18.022  -4.176  0.00  0.00     0.010 A 
BRANCH  14  17
ATOM     17  C7  NON d   1     -45.195  16.856  -4.721  0.00  0.00     0.256 C 
ATOM     18  N2  NON d   1     -46.149  17.029  -3.734  0.00  0.00    -0.321 N 
ATOM     19  H7  NON d   1     -45.992  17.708  -3.002  0.00  0.00     0.169 HD
ATOM     20  O1  NON d   1     -45.304  16.080  -5.668  0.00  0.00    -0.267 OA
BRANCH  18  21
ATOM     21  C6  NON d   1     -47.431  16.410  -3.681  0.00  0.00     0.056 A 
ATOM     22  C5  NON d   1     -48.082  16.079  -2.486  0.00  0.00     0.031 A 
ATOM     23  C4  NON d   1     -49.301  15.396  -2.496  0.00  0.00     0.002 A 
ATOM     24  C3  NON d   1     -49.877  15.019  -3.704  0.00  0.00     0.002 A 
ATOM     25  C2  NON d   1     -49.245  15.346  -4.904  0.00  0.00     0.025 A 
ATOM     26  C1  NON d   1     -48.054  16.084  -4.907  0.00  0.00     0.033 A 
BRANCH  26  27
ATOM     27  N1  NON d   1     -47.440  16.406  -6.142  0.00  0.00    -0.301 NA
ATOM     28  H1  NON d   1     -47.008  17.326  -6.124  0.00  0.00     0.124 HD
ATOM     29  H2  NON d   1     -46.744  15.702  -6.381  0.00  0.00     0.124 HD
ENDBRANCH  26  27
ENDBRANCH  18  21
ENDBRANCH  14  17
ENDBRANCH  10  11
ENDBRANCH   1  10
BRANCH   4  30
ATOM     30  N5  NON d   1     -37.753  20.348  -0.801  0.00  0.00    -0.220 N 
ATOM     31  H13 NON d   1     -37.960  20.084   0.158  0.00  0.00     0.178 HD
BRANCH  30  32
ATOM     32  C15 NON d   1     -36.947  19.401  -1.513  0.00  0.00     0.099 A 
ATOM     33  C16 NON d   1     -36.664  19.586  -2.973  0.00  0.00     0.028 A 
ATOM     34  C17 NON d   1     -37.429  18.378  -2.489  0.00  0.00     0.028 A 
ENDBRANCH  30  32
ENDBRANCH   4  30
BRANCH   6  35
ATOM     35  N7  NON d   1     -39.703  24.608  -1.036  0.00  0.00    -0.218 N 
ATOM     36  H20 NON d   1     -39.895  25.251  -1.805  0.00  0.00     0.178 HD
BRANCH  35  37
ATOM     37  C19 NON d   1     -39.926  25.118   0.337  0.00  0.00     0.108 C 
ATOM     38  C20 NON d   1     -41.080  26.121   0.482  0.00  0.00     0.065 C 
ATOM     39  C21 NON d   1     -41.435  25.965   1.922  0.00  0.00    -0.050 A 
ATOM     40  C22 NON d   1     -42.128  26.853   2.729  0.00  0.00     0.007 A 
ATOM     41  C26 NON d   1     -40.958  24.746   2.412  0.00  0.00    -0.050 A 
ATOM     42  C23 NON d   1     -42.334  26.504   4.062  0.00  0.00     0.001 A 
ATOM     43  C24 NON d   1     -41.863  25.278   4.560  0.00  0.00     0.001 A 
ATOM     44  C25 NON d   1     -41.177  24.383   3.729  0.00  0.00     0.007 A 
ATOM     45  C27 NON d   1     -40.252  23.981   1.332  0.00  0.00     0.065 C 
ENDBRANCH  35  37
ENDBRANCH   6  35
TORSDOF 9
ENDMDL
MODEL 2
REMARK VINA RESULT:   -36.268      2.954      5.297
REMARK INTER + INTRA:         -38.637
REMARK INTER:                 -38.953
REMARK INTRA:                   0.316
REMARK CONF_INDEPENDENT:        2.685
REMARK UNBOUND:                 0.316
REMARK  9 active torsions:
REMARK  status: ('A' for Active; 'I' for Inactive)
REMARK    1  A    between atoms: N1_1  and  C1_2 
REMARK    2  A    between atoms: C6_7  and  N2_8 
REMARK       I    between atoms: N2_8  and  C7_9 
REMARK    3  A    between atoms: C7_9  and  C8_11 
REMARK    4  A    between atoms: C11_14  and  C12_15 
REMARK    5  A    between atoms: N3_16  and  C12_15 
REMARK    6  A    between atoms: C14_19  and  N5_20 
REMARK    7  A    between atoms: N5_20  and  C15_21 
REMARK    8  A    between atoms: C18_25  and  N7_26 
REMARK    9  A    between atoms: N7_26  and  C19_27 
ROOT
ATOM      1  N3  NON d   1     -39.218  20.177  -4.572  0.00  0.00    -0.100 NA
ATOM      2  C13 NON d   1     -39.039  21.058  -3.653  0.00  0.00     0.752 A 
ATOM      3  N4  NON d   1     -39.373  20.848  -2.303  0.00  0.00    -0.018 N 
ATOM      4  C14 NON d   1     -39.161  21.758  -1.335  0.00  0.00     0.707 A 
ATOM      5  N6  NON d   1     -38.712  22.925  -1.680  0.00  0.00    -0.020 N 
ATOM      6  C18 NON d   1     -38.407  23.205  -2.924  0.00  0.00     0.731 A 
ATOM      7  N8  NON d   1     -38.507  22.231  -3.953  0.00  0.00     0.129 NA
ATOM      8  H12 NON d   1     -39.776  19.964  -2.055  0.00  0.00     0.203 HD
ATOM      9  H19 NON d   1     -38.587  23.604  -0.966  0.00  0.00     0.203 HD
ENDROOT
BRANCH   1  10
ATOM     10  C12 NON d   1     -39.809  18.894  -4.177  0.00  0.00     0.207 C 
BRANCH  10  11
ATOM     11  C11 NON d   1     -41.264  18.622  -4.487  0.00  0.00    -0.038 A 
ATOM     12  C10 NON d   1     -41.815  17.461  -3.922  0.00  0.00     0.010 A 
ATOM     13  C9  NON d   1     -43.162  17.142  -4.091  0.00  0.00     0.017 A 
ATOM     14  C8  NON d   1     -44.016  17.971  -4.831  0.00  0.00     0.032 A 
ATOM     15  C29 NON d   1     -43.471  19.124  -5.418  0.00  0.00     0.017 A 
ATOM     16  C28 NON d   1     -42.103  19.445  -5.244  0.00  0.00     0.010 A 
BRANCH  14  17
ATOM     17  C7  NON d   1     -45.462  17.556  -4.876  0.00  0.00     0.256 C 
ATOM     18  N2  NON d   1     -45.969  16.828  -3.814  0.00  0.00    -0.321 N 
ATOM     19  H7  NON d   1     -45.376  16.623  -3.021  0.00  0.00     0.169 HD
ATOM     20  O1  NON d   1     -46.108  17.881  -5.870  0.00  0.00    -0.267 OA
BRANCH  18  21
ATOM     21  C6  NON d   1     -47.318  16.400  -3.651  0.00  0.00     0.056 A 
ATOM     22  C5  NON d   1     -47.952  16.294  -2.407  0.00  0.00     0.031 A 
ATOM     23  C4  NON d   1     -49.251  15.788  -2.302  0.00  0.00     0.002 A 
ATOM     24  C3  NON d   1     -49.926  15.364  -3.441  0.00  0.00     0.002 A 
ATOM     25  C2  NON d   1     -49.312  15.469  -4.690  0.00  0.00     0.025 A 
ATOM     26  C1  NON d   1     -48.034  16.032  -4.813  0.00  0.00     0.033 A 
BRANCH  26  27
ATOM     27  N1  NON d   1     -47.440  16.130  -6.094  0.00  0.00    -0.301 NA
ATOM     28  H1  NON d   1     -47.824  15.449  -6.744  0.00  0.00     0.124 HD
ATOM     29  H2  NON d   1     -47.561  17.070  -6.466  0.00  0.00     0.124 HD
ENDBRANCH  26  27
ENDBRANCH  18  21
ENDBRANCH  14  17
ENDBRANCH  10  11
ENDBRANCH   1  10
BRANCH   4  30
ATOM     30  N5  NON d   1     -39.406  21.399  -0.026  0.00  0.00    -0.220 N 
ATOM     31  H13 NON d   1     -39.245  20.426   0.220  0.00  0.00     0.178 HD
BRANCH  30  32
ATOM     32  C15 NON d   1     -39.439  22.294   1.094  0.00  0.00     0.099 A 
ATOM     33  C16 NON d   1     -40.689  23.047   1.432  0.00  0.00     0.028 A 
ATOM     34  C17 NON d   1     -39.433  23.787   1.041  0.00  0.00     0.028 A 
ENDBRANCH  30  32
ENDBRANCH   4  30
BRANCH   6  35
ATOM     35  N7  NON d   1     -38.001  24.378  -3.366  0.00  0.00    -0.218 N 
ATOM     36  H20 NON d   1     -37.095  24.620  -2.963  0.00  0.00     0.178 HD
BRANCH  35  37
ATOM     37  C19 NON d   1     -38.524  25.270  -4.427  0.00  0.00     0.108 C 
ATOM     38  C20 NON d   1     -37.462  25.863  -5.365  0.00  0.00     0.065 C 
ATOM     39  C21 NON d   1     -38.267  26.155  -6.585  0.00  0.00    -0.050 A 
ATOM     40  C22 NON d   1     -37.963  27.030  -7.616  0.00  0.00     0.007 A 
ATOM     41  C26 NON d   1     -39.450  25.409  -6.579  0.00  0.00    -0.050 A 
ATOM     42  C23 NON d   1     -38.879  27.158  -8.658  0.00  0.00     0.001 A 
ATOM     43  C24 NON d   1     -40.066  26.406  -8.662  0.00  0.00     0.001 A 
ATOM     44  C25 NON d   1     -40.353  25.515  -7.621  0.00  0.00     0.007 A 
ATOM     45  C27 NON d   1     -39.524  24.545  -5.355  0.00  0.00     0.065 C 
ENDBRANCH  35  37
ENDBRANCH   6  35
TORSDOF 9
ENDMDL
MODEL 3
REMARK VINA RESULT:   -35.935      1.271      2.399
REMARK INTER + INTRA:         -39.464
REMARK INTER:                 -38.619
REMARK INTRA:                  -0.845
REMARK CONF_INDEPENDENT:        2.685
REMARK UNBOUND:                -0.845
REMARK  9 active torsions:
REMARK  status: ('A' for Active; 'I' for Inactive)
REMARK    1  A    between atoms: N1_1  and  C1_2 
REMARK    2  A    between atoms: C6_7  and  N2_8 
REMARK       I    between atoms: N2_8  and  C7_9 
REMARK    3  A    between atoms: C7_9  and  C8_11 
REMARK    4  A    between atoms: C11_14  and  C12_15 
REMARK    5  A    between atoms: N3_16  and  C12_15 
REMARK    6  A    between atoms: C14_19  and  N5_20 
REMARK    7  A    between atoms: N5_20  and  C15_21 
REMARK    8  A    between atoms: C18_25  and  N7_26 
REMARK    9  A    between atoms: N7_26  and  C19_27 
ROOT
ATOM      1  N3  NON d   1     -39.167  19.180  -2.199  0.00  0.00    -0.100 NA
ATOM      2  C13 NON d   1     -39.353  20.449  -2.106  0.00  0.00     0.752 A 
ATOM      3  N4  NON d   1     -39.801  21.246  -3.175  0.00  0.00    -0.018 N 
ATOM      4  C14 NON d   1     -40.023  22.570  -3.073  0.00  0.00     0.707 A 
ATOM      5  N6  NON d   1     -39.719  23.157  -1.956  0.00  0.00    -0.020 N 
ATOM      6  C18 NON d   1     -39.269  22.483  -0.925  0.00  0.00     0.731 A 
ATOM      7  N8  NON d   1     -39.133  21.069  -0.960  0.00  0.00     0.129 NA
ATOM      8  H12 NON d   1     -39.975  20.794  -4.053  0.00  0.00     0.203 HD
ATOM      9  H19 NON d   1     -39.855  24.138  -1.896  0.00  0.00     0.203 HD
ENDROOT
BRANCH   1  10
ATOM     10  C12 NON d   1     -39.432  18.548  -3.496  0.00  0.00     0.207 C 
BRANCH  10  11
ATOM     11  C11 NON d   1     -40.861  18.271  -3.906  0.00  0.00    -0.038 A 
ATOM     12  C10 NON d   1     -41.658  17.591  -2.972  0.00  0.00     0.010 A 
ATOM     13  C9  NON d   1     -43.006  17.335  -3.219  0.00  0.00     0.017 A 
ATOM     14  C8  NON d   1     -43.616  17.748  -4.412  0.00  0.00     0.032 A 
ATOM     15  C29 NON d   1     -42.823  18.410  -5.363  0.00  0.00     0.017 A 
ATOM     16  C28 NON d   1     -41.455  18.669  -5.108  0.00  0.00     0.010 A 
BRANCH  14  17
ATOM     17  C7  NON d   1     -45.092  17.478  -4.525  0.00  0.00     0.256 C 
ATOM     18  N2  NON d   1     -45.721  16.820  -3.483  0.00  0.00    -0.321 N 
ATOM     19  H7  NON d   1     -45.192  16.569  -2.660  0.00  0.00     0.169 HD
ATOM     20  O1  NON d   1     -45.653  17.852  -5.553  0.00  0.00    -0.267 OA
BRANCH  18  21
ATOM     21  C6  NON d   1     -47.113  16.531  -3.384  0.00  0.00     0.056 A 
ATOM     22  C5  NON d   1     -47.826  16.558  -2.179  0.00  0.00     0.031 A 
ATOM     23  C4  NON d   1     -49.172  16.184  -2.130  0.00  0.00     0.002 A 
ATOM     24  C3  NON d   1     -49.817  15.759  -3.287  0.00  0.00     0.002 A 
ATOM     25  C2  NON d   1     -49.124  15.732  -4.497  0.00  0.00     0.025 A 
ATOM     26  C1  NON d   1     -47.792  16.164  -4.568  0.00  0.00     0.033 A 
BRANCH  26  27
ATOM     27  N1  NON d   1     -47.117  16.130  -5.812  0.00  0.00    -0.301 NA
ATOM     28  H1  NON d   1     -47.053  17.052  -6.235  0.00  0.00     0.124 HD
ATOM     29  H2  NON d   1     -46.185  15.737  -5.695  0.00  0.00     0.124 HD
ENDBRANCH  26  27
ENDBRANCH  18  21
ENDBRANCH  14  17
ENDBRANCH  10  11
ENDBRANCH   1  10
BRANCH   4  30
ATOM     30  N5  NON d   1     -40.584  23.230  -4.146  0.00  0.00    -0.220 N 
ATOM     31  H13 NON d   1     -41.003  24.136  -3.957  0.00  0.00     0.178 HD
BRANCH  30  32
ATOM     32  C15 NON d   1     -40.271  23.000  -5.525  0.00  0.00     0.099 A 
ATOM     33  C16 NON d   1     -40.273  21.611  -6.086  0.00  0.00     0.028 A 
ATOM     34  C17 NON d   1     -39.003  22.425  -6.067  0.00  0.00     0.028 A 
ENDBRANCH  30  32
ENDBRANCH   4  30
BRANCH   6  35
ATOM     35  N7  NON d   1     -38.885  23.007   0.221  0.00  0.00    -0.218 N 
ATOM     36  H20 NON d   1     -38.077  22.505   0.592  0.00  0.00     0.178 HD
BRANCH  35  37
ATOM     37  C19 NON d   1     -39.292  24.242   0.930  0.00  0.00     0.108 C 
ATOM     38  C20 NON d   1     -40.645  24.828   0.498  0.00  0.00     0.065 C 
ATOM     39  C21 NON d   1     -41.038  25.602   1.710  0.00  0.00    -0.050 A 
ATOM     40  C22 NON d   1     -41.954  26.639   1.797  0.00  0.00     0.007 A 
ATOM     41  C26 NON d   1     -40.332  25.149   2.829  0.00  0.00    -0.050 A 
ATOM     42  C23 NON d   1     -42.153  27.233   3.042  0.00  0.00     0.001 A 
ATOM     43  C24 NON d   1     -41.453  26.779   4.171  0.00  0.00     0.001 A 
ATOM     44  C25 NON d   1     -40.541  25.721   4.071  0.00  0.00     0.007 A 
ATOM     45  C27 NON d   1     -39.415  24.022   2.455  0.00  0.00     0.065 C 
ENDBRANCH  35  37
ENDBRANCH   6  35
TORSDOF 9
ENDMDL
MODEL 4
REMARK VINA RESULT:   -35.696      1.574      2.843
REMARK INTER + INTRA:         -38.573
REMARK INTER:                 -38.380
REMARK INTRA:                  -0.193
REMARK CONF_INDEPENDENT:        2.685
REMARK UNBOUND:                -0.193
REMARK  9 active torsions:
REMARK  status: ('A' for Active; 'I' for Inactive)
REMARK    1  A    between atoms: N1_1  and  C1_2 
REMARK    2  A    between atoms: C6_7  and  N2_8 
REMARK       I    between atoms: N2_8  and  C7_9 
REMARK    3  A    between atoms: C7_9  and  C8_11 
REMARK    4  A    between atoms: C11_14  and  C12_15 
REMARK    5  A    between atoms: N3_16  and  C12_15 
REMARK    6  A    between atoms: C14_19  and  N5_20 
REMARK    7  A    between atoms: N5_20  and  C15_21 
REMARK    8  A    between atoms: C18_25  and  N7_26 
REMARK    9  A    between atoms: N7_26  and  C19_27 
ROOT
ATOM      1  N3  NON d   1     -39.617  20.042  -3.008  0.00  0.00    -0.100 NA
ATOM      2  C13 NON d   1     -39.551  21.265  -3.402  0.00  0.00     0.752 A 
ATOM      3  N4  NON d   1     -39.747  21.659  -4.737  0.00  0.00    -0.018 N 
ATOM      4  C14 NON d   1     -39.707  22.940  -5.147  0.00  0.00     0.707 A 
ATOM      5  N6  NON d   1     -39.379  23.850  -4.282  0.00  0.00    -0.020 N 
ATOM      6  C18 NON d   1     -39.152  23.554  -3.025  0.00  0.00     0.731 A 
ATOM      7  N8  NON d   1     -39.300  22.229  -2.533  0.00  0.00     0.129 NA
ATOM      8  H12 NON d   1     -39.941  20.942  -5.411  0.00  0.00     0.203 HD
ATOM      9  H19 NON d   1     -39.320  24.789  -4.596  0.00  0.00     0.203 HD
ENDROOT
BRANCH   1  10
ATOM     10  C12 NON d   1     -39.903  19.018  -4.017  0.00  0.00     0.207 C 
BRANCH  10  11
ATOM     11  C11 NON d   1     -41.340  18.702  -4.365  0.00  0.00    -0.038 A 
ATOM     12  C10 NON d   1     -41.884  17.547  -3.782  0.00  0.00     0.010 A 
ATOM     13  C9  NON d   1     -43.217  17.192  -3.985  0.00  0.00     0.017 A 
ATOM     14  C8  NON d   1     -44.064  17.977  -4.779  0.00  0.00     0.032 A 
ATOM     15  C29 NON d   1     -43.525  19.123  -5.385  0.00  0.00     0.017 A 
ATOM     16  C28 NON d   1     -42.172  19.481  -5.176  0.00  0.00     0.010 A 
BRANCH  14  17
ATOM     17  C7  NON d   1     -45.498  17.527  -4.857  0.00  0.00     0.256 C 
ATOM     18  N2  NON d   1     -46.022  16.813  -3.795  0.00  0.00    -0.321 N 
ATOM     19  H7  NON d   1     -45.449  16.640  -2.980  0.00  0.00     0.169 HD
ATOM     20  O1  NON d   1     -46.120  17.814  -5.878  0.00  0.00    -0.267 OA
BRANCH  18  21
ATOM     21  C6  NON d   1     -47.365  16.357  -3.662  0.00  0.00     0.056 A 
ATOM     22  C5  NON d   1     -48.017  16.216  -2.432  0.00  0.00     0.031 A 
ATOM     23  C4  NON d   1     -49.308  15.684  -2.358  0.00  0.00     0.002 A 
ATOM     24  C3  NON d   1     -49.956  15.270  -3.517  0.00  0.00     0.002 A 
ATOM     25  C2  NON d   1     -49.323  15.410  -4.752  0.00  0.00     0.025 A 
ATOM     26  C1  NON d   1     -48.054  15.998  -4.843  0.00  0.00     0.033 A 
BRANCH  26  27
ATOM     27  N1  NON d   1     -47.441  16.131  -6.112  0.00  0.00    -0.301 NA
ATOM     28  H1  NON d   1     -47.473  17.088  -6.452  0.00  0.00     0.124 HD
ATOM     29  H2  NON d   1     -46.475  15.812  -6.069  0.00  0.00     0.124 HD
ENDBRANCH  26  27
ENDBRANCH  18  21
ENDBRANCH  14  17
ENDBRANCH  10  11
ENDBRANCH   1  10
BRANCH   4  30
ATOM     30  N5  NON d   1     -40.041  23.226  -6.455  0.00  0.00    -0.220 N 
ATOM     31  H13 NON d   1     -40.518  24.107  -6.623  0.00  0.00     0.178 HD
BRANCH  30  32
ATOM     32  C15 NON d   1     -39.429  22.654  -7.618  0.00  0.00     0.099 A 
ATOM     33  C16 NON d   1     -40.223  21.793  -8.551  0.00  0.00     0.028 A 
ATOM     34  C17 NON d   1     -39.041  21.224  -7.807  0.00  0.00     0.028 A 
ENDBRANCH  30  32
ENDBRANCH   4  30
BRANCH   6  35
ATOM     35  N7  NON d   1     -38.759  24.404  -2.098  0.00  0.00    -0.218 N 
ATOM     36  H20 NON d   1     -38.482  25.291  -2.521  0.00  0.00     0.178 HD
BRANCH  35  37
ATOM     37  C19 NON d   1     -38.821  24.354  -0.619  0.00  0.00     0.108 C 
ATOM     38  C20 NON d   1     -38.548  25.688   0.092  0.00  0.00     0.065 C 
ATOM     39  C21 NON d   1     -39.249  25.484   1.392  0.00  0.00    -0.050 A 
ATOM     40  C22 NON d   1     -39.048  26.164   2.582  0.00  0.00     0.007 A 
ATOM     41  C26 NON d   1     -40.194  24.459   1.281  0.00  0.00    -0.050 A 
ATOM     42  C23 NON d   1     -39.813  25.792   3.686  0.00  0.00     0.001 A 
ATOM     43  C24 NON d   1     -40.768  24.768   3.581  0.00  0.00     0.001 A 
ATOM     44  C25 NON d   1     -40.971  24.100   2.367  0.00  0.00     0.007 A 
ATOM     45  C27 NON d   1     -40.208  23.900  -0.111  0.00  0.00     0.065 C 
ENDBRANCH  35  37
ENDBRANCH   6  35
TORSDOF 9
ENDMDL
MODEL 5
REMARK VINA RESULT:   -35.658      4.288      7.610
REMARK INTER + INTRA:         -38.609
REMARK INTER:                 -38.343
REMARK INTRA:                  -0.266
REMARK CONF_INDEPENDENT:        2.685
REMARK UNBOUND:                -0.266
REMARK  9 active torsions:
REMARK  status: ('A' for Active; 'I' for Inactive)
REMARK    1  A    between atoms: N1_1  and  C1_2 
REMARK    2  A    between atoms: C6_7  and  N2_8 
REMARK       I    between atoms: N2_8  and  C7_9 
REMARK    3  A    between atoms: C7_9  and  C8_11 
REMARK    4  A    between atoms: C11_14  and  C12_15 
REMARK    5  A    between atoms: N3_16  and  C12_15 
REMARK    6  A    between atoms: C14_19  and  N5_20 
REMARK    7  A    between atoms: N5_20  and  C15_21 
REMARK    8  A    between atoms: C18_25  and  N7_26 
REMARK    9  A    between atoms: N7_26  and  C19_27 
ROOT
ATOM      1  N3  NON d   1     -39.592  20.291  -6.299  0.00  0.00    -0.100 NA
ATOM      2  C13 NON d   1     -39.764  21.551  -6.109  0.00  0.00     0.752 A 
ATOM      3  N4  NON d   1     -40.167  22.101  -4.879  0.00  0.00    -0.018 N 
ATOM      4  C14 NON d   1     -40.321  23.421  -4.669  0.00  0.00     0.707 A 
ATOM      5  N6  NON d   1     -40.180  24.222  -5.681  0.00  0.00    -0.020 N 
ATOM      6  C18 NON d   1     -39.835  23.779  -6.866  0.00  0.00     0.731 A 
ATOM      7  N8  NON d   1     -39.550  22.406  -7.094  0.00  0.00     0.129 NA
ATOM      8  H12 NON d   1     -40.333  21.469  -4.118  0.00  0.00     0.203 HD
ATOM      9  H19 NON d   1     -40.325  25.192  -5.529  0.00  0.00     0.203 HD
ENDROOT
BRANCH   1  10
ATOM     10  C12 NON d   1     -39.841  19.394  -5.166  0.00  0.00     0.207 C 
BRANCH  10  11
ATOM     11  C11 NON d   1     -41.226  18.822  -4.965  0.00  0.00    -0.038 A 
ATOM     12  C10 NON d   1     -42.302  19.687  -5.220  0.00  0.00     0.010 A 
ATOM     13  C9  NON d   1     -43.622  19.249  -5.125  0.00  0.00     0.017 A 
ATOM     14  C8  NON d   1     -43.924  17.927  -4.772  0.00  0.00     0.032 A 
ATOM     15  C29 NON d   1     -42.857  17.058  -4.494  0.00  0.00     0.017 A 
ATOM     16  C28 NON d   1     -41.517  17.506  -4.592  0.00  0.00     0.010 A 
BRANCH  14  17
ATOM     17  C7  NON d   1     -45.384  17.560  -4.778  0.00  0.00     0.256 C 
ATOM     18  N2  NON d   1     -45.921  16.983  -3.642  0.00  0.00    -0.321 N 
ATOM     19  H7  NON d   1     -45.339  16.854  -2.825  0.00  0.00     0.169 HD
ATOM     20  O1  NON d   1     -46.013  17.787  -5.810  0.00  0.00    -0.267 OA
BRANCH  18  21
ATOM     21  C6  NON d   1     -47.285  16.626  -3.440  0.00  0.00     0.056 A 
ATOM     22  C5  NON d   1     -47.919  16.662  -2.192  0.00  0.00     0.031 A 
ATOM     23  C4  NON d   1     -49.236  16.220  -2.040  0.00  0.00     0.002 A 
ATOM     24  C3  NON d   1     -49.930  15.716  -3.135  0.00  0.00     0.002 A 
ATOM     25  C2  NON d   1     -49.317  15.679  -4.387  0.00  0.00     0.025 A 
ATOM     26  C1  NON d   1     -48.018  16.178  -4.562  0.00  0.00     0.033 A 
BRANCH  26  27
ATOM     27  N1  NON d   1     -47.425  16.130  -5.846  0.00  0.00    -0.301 NA
ATOM     28  H1  NON d   1     -47.527  17.010  -6.345  0.00  0.00     0.124 HD
ATOM     29  H2  NON d   1     -46.438  15.890  -5.768  0.00  0.00     0.124 HD
ENDBRANCH  26  27
ENDBRANCH  18  21
ENDBRANCH  14  17
ENDBRANCH  10  11
ENDBRANCH   1  10
BRANCH   4  30
ATOM     30  N5  NON d   1     -40.594  23.860  -3.390  0.00  0.00    -0.220 N 
ATOM     31  H13 NON d   1     -40.855  24.837  -3.288  0.00  0.00     0.178 HD
BRANCH  30  32
ATOM     32  C15 NON d   1     -40.965  23.029  -2.283  0.00  0.00     0.099 A 
ATOM     33  C16 NON d   1     -40.388  23.271  -0.922  0.00  0.00     0.028 A 
ATOM     34  C17 NON d   1     -40.126  21.972  -1.644  0.00  0.00     0.028 A 
ENDBRANCH  30  32
ENDBRANCH   4  30
BRANCH   6  35
ATOM     35  N7  NON d   1     -39.727  24.513  -7.954  0.00  0.00    -0.218 N 
ATOM     36  H20 NON d   1     -39.033  25.251  -7.822  0.00  0.00     0.178 HD
BRANCH  35  37
ATOM     37  C19 NON d   1     -40.279  24.348  -9.318  0.00  0.00     0.108 C 
ATOM     38  C20 NON d   1     -40.199  25.594 -10.212  0.00  0.00     0.065 C 
ATOM     39  C21 NON d   1     -40.229  24.990 -11.575  0.00  0.00    -0.050 A 
ATOM     40  C22 NON d   1     -40.564  25.604 -12.771  0.00  0.00     0.007 A 
ATOM     41  C26 NON d   1     -39.866  23.640 -11.518  0.00  0.00    -0.050 A 
ATOM     42  C23 NON d   1     -40.539  24.834 -13.932  0.00  0.00     0.001 A 
ATOM     43  C24 NON d   1     -40.169  23.480 -13.884  0.00  0.00     0.001 A 
ATOM     44  C25 NON d   1     -39.819  22.876 -12.670  0.00  0.00     0.007 A 
ATOM     45  C27 NON d   1     -39.552  23.236 -10.108  0.00  0.00     0.065 C 
ENDBRANCH  35  37
ENDBRANCH   6  35
TORSDOF 9
ENDMDL
MODEL 6
REMARK VINA RESULT:   -35.424      4.430      8.483
REMARK INTER + INTRA:         -38.578
REMARK INTER:                 -38.109
REMARK INTRA:                  -0.469
REMARK CONF_INDEPENDENT:        2.685
REMARK UNBOUND:                -0.469
REMARK  9 active torsions:
REMARK  status: ('A' for Active; 'I' for Inactive)
REMARK    1  A    between atoms: N1_1  and  C1_2 
REMARK    2  A    between atoms: C6_7  and  N2_8 
REMARK       I    between atoms: N2_8  and  C7_9 
REMARK    3  A    between atoms: C7_9  and  C8_11 
REMARK    4  A    between atoms: C11_14  and  C12_15 
REMARK    5  A    between atoms: N3_16  and  C12_15 
REMARK    6  A    between atoms: C14_19  and  N5_20 
REMARK    7  A    between atoms: N5_20  and  C15_21 
REMARK    8  A    between atoms: C18_25  and  N7_26 
REMARK    9  A    between atoms: N7_26  and  C19_27 
ROOT
ATOM      1  N3  NON d   1     -39.410  19.801  -6.627  0.00  0.00    -0.100 NA
ATOM      2  C13 NON d   1     -39.478  21.074  -6.796  0.00  0.00     0.752 A 
ATOM      3  N4  NON d   1     -39.844  21.972  -5.778  0.00  0.00    -0.018 N 
ATOM      4  C14 NON d   1     -39.889  23.306  -5.944  0.00  0.00     0.707 A 
ATOM      5  N6  NON d   1     -39.673  23.782  -7.132  0.00  0.00    -0.020 N 
ATOM      6  C18 NON d   1     -39.355  23.004  -8.138  0.00  0.00     0.731 A 
ATOM      7  N8  NON d   1     -39.185  21.603  -7.971  0.00  0.00     0.129 NA
ATOM      8  H12 NON d   1     -40.069  21.589  -4.878  0.00  0.00     0.203 HD
ATOM      9  H19 NON d   1     -39.738  24.765  -7.256  0.00  0.00     0.203 HD
ENDROOT
BRANCH   1  10
ATOM     10  C12 NON d   1     -39.743  19.274  -5.300  0.00  0.00     0.207 C 
BRANCH  10  11
ATOM     11  C11 NON d   1     -41.147  18.783  -5.029  0.00  0.00    -0.038 A 
ATOM     12  C10 NON d   1     -42.190  19.520  -5.613  0.00  0.00     0.010 A 
ATOM     13  C9  NON d   1     -43.520  19.124  -5.479  0.00  0.00     0.017 A 
ATOM     14  C8  NON d   1     -43.866  17.974  -4.757  0.00  0.00     0.032 A 
ATOM     15  C29 NON d   1     -42.833  17.241  -4.151  0.00  0.00     0.017 A 
ATOM     16  C28 NON d   1     -41.484  17.645  -4.288  0.00  0.00     0.010 A 
BRANCH  14  17
ATOM     17  C7  NON d   1     -45.327  17.614  -4.751  0.00  0.00     0.256 C 
ATOM     18  N2  NON d   1     -45.850  17.009  -3.623  0.00  0.00    -0.321 N 
ATOM     19  H7  NON d   1     -45.257  16.856  -2.819  0.00  0.00     0.169 HD
ATOM     20  O1  NON d   1     -45.971  17.871  -5.767  0.00  0.00    -0.267 OA
BRANCH  18  21
ATOM     21  C6  NON d   1     -47.213  16.652  -3.410  0.00  0.00     0.056 A 
ATOM     22  C5  NON d   1     -47.841  16.702  -2.160  0.00  0.00     0.031 A 
ATOM     23  C4  NON d   1     -49.156  16.260  -1.996  0.00  0.00     0.002 A 
ATOM     24  C3  NON d   1     -49.856  15.744  -3.082  0.00  0.00     0.002 A 
ATOM     25  C2  NON d   1     -49.248  15.693  -4.336  0.00  0.00     0.025 A 
ATOM     26  C1  NON d   1     -47.951  16.191  -4.523  0.00  0.00     0.033 A 
BRANCH  26  27
ATOM     27  N1  NON d   1     -47.364  16.130  -5.810  0.00  0.00    -0.301 NA
ATOM     28  H1  NON d   1     -47.339  17.041  -6.261  0.00  0.00     0.124 HD
ATOM     29  H2  NON d   1     -46.421  15.750  -5.748  0.00  0.00     0.124 HD
ENDBRANCH  26  27
ENDBRANCH  18  21
ENDBRANCH  14  17
ENDBRANCH  10  11
ENDBRANCH   1  10
BRANCH   4  30
ATOM     30  N5  NON d   1     -40.135  24.101  -4.844  0.00  0.00    -0.220 N 
ATOM     31  H13 NON d   1     -39.934  25.093  -4.942  0.00  0.00     0.178 HD
BRANCH  30  32
ATOM     32  C15 NON d   1     -41.020  23.782  -3.763  0.00  0.00     0.099 A 
ATOM     33  C16 NON d   1     -40.678  24.170  -2.358  0.00  0.00     0.028 A 
ATOM     34  C17 NON d   1     -40.821  22.716  -2.735  0.00  0.00     0.028 A 
ENDBRANCH  30  32
ENDBRANCH   4  30
BRANCH   6  35
ATOM     35  N7  NON d   1     -39.177  23.398  -9.382  0.00  0.00    -0.218 N 
ATOM     36  H20 NON d   1     -39.684  24.266  -9.560  0.00  0.00     0.178 HD
BRANCH  35  37
ATOM     37  C19 NON d   1     -38.272  22.918 -10.452  0.00  0.00     0.108 C 
ATOM     38  C20 NON d   1     -37.753  21.483 -10.274  0.00  0.00     0.065 C 
ATOM     39  C21 NON d   1     -37.433  21.102 -11.680  0.00  0.00    -0.050 A 
ATOM     40  C22 NON d   1     -36.591  20.093 -12.117  0.00  0.00     0.007 A 
ATOM     41  C26 NON d   1     -38.113  21.933 -12.577  0.00  0.00    -0.050 A 
ATOM     42  C23 NON d   1     -36.428  19.925 -13.491  0.00  0.00     0.001 A 
ATOM     43  C24 NON d   1     -37.112  20.751 -14.398  0.00  0.00     0.001 A 
ATOM     44  C25 NON d   1     -37.971  21.759 -13.941  0.00  0.00     0.007 A 
ATOM     45  C27 NON d   1     -38.954  22.932 -11.838  0.00  0.00     0.065 C 
ENDBRANCH  35  37
ENDBRANCH   6  35
TORSDOF 9
ENDMDL
MODEL 7
REMARK VINA RESULT:   -35.416      1.774      3.184
REMARK INTER + INTRA:         -38.492
REMARK INTER:                 -38.101
REMARK INTRA:                  -0.391
REMARK CONF_INDEPENDENT:        2.685
REMARK UNBOUND:                -0.391
REMARK  9 active torsions:
REMARK  status: ('A' for Active; 'I' for Inactive)
REMARK    1  A    between atoms: N1_1  and  C1_2 
REMARK    2  A    between atoms: C6_7  and  N2_8 
REMARK       I    between atoms: N2_8  and  C7_9 
REMARK    3  A    between atoms: C7_9  and  C8_11 
REMARK    4  A    between atoms: C11_14  and  C12_15 
REMARK    5  A    between atoms: N3_16  and  C12_15 
REMARK    6  A    between atoms: C14_19  and  N5_20 
REMARK    7  A    between atoms: N5_20  and  C15_21 
REMARK    8  A    between atoms: C18_25  and  N7_26 
REMARK    9  A    between atoms: N7_26  and  C19_27 
ROOT
ATOM      1  N3  NON d   1     -40.080  20.880  -3.250  0.00  0.00    -0.100 NA
ATOM      2  C13 NON d   1     -39.852  21.960  -3.909  0.00  0.00     0.752 A 
ATOM      3  N4  NON d   1     -39.622  21.987  -5.296  0.00  0.00    -0.018 N 
ATOM      4  C14 NON d   1     -39.410  23.119  -5.993  0.00  0.00     0.707 A 
ATOM      5  N6  NON d   1     -39.321  24.234  -5.335  0.00  0.00    -0.020 N 
ATOM      6  C18 NON d   1     -39.494  24.283  -4.036  0.00  0.00     0.731 A 
ATOM      7  N8  NON d   1     -39.835  23.126  -3.286  0.00  0.00     0.129 NA
ATOM      8  H12 NON d   1     -39.633  21.113  -5.788  0.00  0.00     0.203 HD
ATOM      9  H19 NON d   1     -39.134  25.062  -5.850  0.00  0.00     0.203 HD
ENDROOT
BRANCH   1  10
ATOM     10  C12 NON d   1     -40.091  19.618  -3.998  0.00  0.00     0.207 C 
BRANCH  10  11
ATOM     11  C11 NON d   1     -41.413  18.966  -4.332  0.00  0.00    -0.038 A 
ATOM     12  C10 NON d   1     -41.671  17.729  -3.721  0.00  0.00     0.010 A 
ATOM     13  C9  NON d   1     -42.884  17.066  -3.910  0.00  0.00     0.017 A 
ATOM     14  C8  NON d   1     -43.890  17.613  -4.718  0.00  0.00     0.032 A 
ATOM     15  C29 NON d   1     -43.635  18.839  -5.351  0.00  0.00     0.017 A 
ATOM     16  C28 NON d   1     -42.404  19.510  -5.156  0.00  0.00     0.010 A 
BRANCH  14  17
ATOM     17  C7  NON d   1     -45.179  16.837  -4.780  0.00  0.00     0.256 C 
ATOM     18  N2  NON d   1     -46.108  17.025  -3.772  0.00  0.00    -0.321 N 
ATOM     19  H7  NON d   1     -45.923  17.699  -3.042  0.00  0.00     0.169 HD
ATOM     20  O1  NON d   1     -45.322  16.065  -5.726  0.00  0.00    -0.267 OA
BRANCH  18  21
ATOM     21  C6  NON d   1     -47.400  16.429  -3.692  0.00  0.00     0.056 A 
ATOM     22  C5  NON d   1     -48.041  16.130  -2.484  0.00  0.00     0.031 A 
ATOM     23  C4  NON d   1     -49.272  15.468  -2.467  0.00  0.00     0.002 A 
ATOM     24  C3  NON d   1     -49.869  15.081  -3.662  0.00  0.00     0.002 A 
ATOM     25  C2  NON d   1     -49.248  15.377  -4.875  0.00  0.00     0.025 A 
ATOM     26  C1  NON d   1     -48.044  16.094  -4.905  0.00  0.00     0.033 A 
BRANCH  26  27
ATOM     27  N1  NON d   1     -47.440  16.384  -6.153  0.00  0.00    -0.301 NA
ATOM     28  H1  NON d   1     -46.995  17.298  -6.157  0.00  0.00     0.124 HD
ATOM     29  H2  NON d   1     -46.757  15.666  -6.387  0.00  0.00     0.124 HD
ENDBRANCH  26  27
ENDBRANCH  18  21
ENDBRANCH  14  17
ENDBRANCH  10  11
ENDBRANCH   1  10
BRANCH   4  30
ATOM     30  N5  NON d   1     -39.325  23.043  -7.367  0.00  0.00    -0.220 N 
ATOM     31  H13 NON d   1     -38.485  23.422  -7.796  0.00  0.00     0.178 HD
BRANCH  30  32
ATOM     32  C15 NON d   1     -40.055  22.134  -8.201  0.00  0.00     0.099 A 
ATOM     33  C16 NON d   1     -39.699  20.679  -8.236  0.00  0.00     0.028 A 
ATOM     34  C17 NON d   1     -39.582  21.525  -9.480  0.00  0.00     0.028 A 
ENDBRANCH  30  32
ENDBRANCH   4  30
BRANCH   6  35
ATOM     35  N7  NON d   1     -39.365  25.360  -3.288  0.00  0.00    -0.218 N 
ATOM     36  H20 NON d   1     -39.311  26.197  -3.871  0.00  0.00     0.178 HD
BRANCH  35  37
ATOM     37  C19 NON d   1     -39.460  25.565  -1.825  0.00  0.00     0.108 C 
ATOM     38  C20 NON d   1     -40.799  25.158  -1.193  0.00  0.00     0.065 C 
ATOM     39  C21 NON d   1     -40.399  24.897   0.219  0.00  0.00    -0.050 A 
ATOM     40  C22 NON d   1     -41.211  24.868   1.342  0.00  0.00     0.007 A 
ATOM     41  C26 NON d   1     -39.021  24.675   0.303  0.00  0.00    -0.050 A 
ATOM     42  C23 NON d   1     -40.614  24.618   2.576  0.00  0.00     0.001 A 
ATOM     43  C24 NON d   1     -39.231  24.388   2.666  0.00  0.00     0.001 A 
ATOM     44  C25 NON d   1     -38.425  24.405   1.521  0.00  0.00     0.007 A 
ATOM     45  C27 NON d   1     -38.389  24.760  -1.055  0.00  0.00     0.065 C 
ENDBRANCH  35  37
ENDBRANCH   6  35
TORSDOF 9
ENDMDL
MODEL 8
REMARK VINA RESULT:   -35.390      1.538      2.192
REMARK INTER + INTRA:         -38.791
REMARK INTER:                 -38.075
REMARK INTRA:                  -0.716
REMARK CONF_INDEPENDENT:        2.685
REMARK UNBOUND:                -0.716
REMARK  9 active torsions:
REMARK  status: ('A' for Active; 'I' for Inactive)
REMARK    1  A    between atoms: N1_1  and  C1_2 
REMARK    2  A    between atoms: C6_7  and  N2_8 
REMARK       I    between atoms: N2_8  and  C7_9 
REMARK    3  A    between atoms: C7_9  and  C8_11 
REMARK    4  A    between atoms: C11_14  and  C12_15 
REMARK    5  A    between atoms: N3_16  and  C12_15 
REMARK    6  A    between atoms: C14_19  and  N5_20 
REMARK    7  A    between atoms: N5_20  and  C15_21 
REMARK    8  A    between atoms: C18_25  and  N7_26 
REMARK    9  A    between atoms: N7_26  and  C19_27 
ROOT
ATOM      1  N3  NON d   1     -39.062  20.180  -5.228  0.00  0.00    -0.100 NA
ATOM      2  C13 NON d   1     -39.234  20.596  -4.023  0.00  0.00     0.752 A 
ATOM      3  N4  NON d   1     -39.941  19.872  -3.047  0.00  0.00    -0.018 N 
ATOM      4  C14 NON d   1     -40.098  20.292  -1.778  0.00  0.00     0.707 A 
ATOM      5  N6  NON d   1     -39.654  21.470  -1.465  0.00  0.00    -0.020 N 
ATOM      6  C18 NON d   1     -39.010  22.216  -2.330  0.00  0.00     0.731 A 
ATOM      7  N8  NON d   1     -38.724  21.755  -3.643  0.00  0.00     0.129 NA
ATOM      8  H12 NON d   1     -40.334  18.989  -3.316  0.00  0.00     0.203 HD
ATOM      9  H19 NON d   1     -39.799  21.788  -0.536  0.00  0.00     0.203 HD
ENDROOT
BRANCH   1  10
ATOM     10  C12 NON d   1     -39.648  18.885  -5.589  0.00  0.00     0.207 C 
BRANCH  10  11
ATOM     11  C11 NON d   1     -41.152  18.723  -5.577  0.00  0.00    -0.038 A 
ATOM     12  C10 NON d   1     -41.637  17.410  -5.474  0.00  0.00     0.010 A 
ATOM     13  C9  NON d   1     -43.004  17.147  -5.393  0.00  0.00     0.017 A 
ATOM     14  C8  NON d   1     -43.944  18.185  -5.411  0.00  0.00     0.032 A 
ATOM     15  C29 NON d   1     -43.472  19.501  -5.535  0.00  0.00     0.017 A 
ATOM     16  C28 NON d   1     -42.083  19.765  -5.616  0.00  0.00     0.010 A 
BRANCH  14  17
ATOM     17  C7  NON d   1     -45.382  17.775  -5.242  0.00  0.00     0.256 C 
ATOM     18  N2  NON d   1     -45.760  17.180  -4.051  0.00  0.00    -0.321 N 
ATOM     19  H7  NON d   1     -45.079  17.066  -3.313  0.00  0.00     0.169 HD
ATOM     20  O1  NON d   1     -46.140  17.985  -6.187  0.00  0.00    -0.267 OA
BRANCH  18  21
ATOM     21  C6  NON d   1     -47.078  16.781  -3.687  0.00  0.00     0.056 A 
ATOM     22  C5  NON d   1     -47.582  16.869  -2.384  0.00  0.00     0.031 A 
ATOM     23  C4  NON d   1     -48.854  16.384  -2.069  0.00  0.00     0.002 A 
ATOM     24  C3  NON d   1     -49.633  15.786  -3.053  0.00  0.00     0.002 A 
ATOM     25  C2  NON d   1     -49.149  15.695  -4.359  0.00  0.00     0.025 A 
ATOM     26  C1  NON d   1     -47.901  16.234  -4.698  0.00  0.00     0.033 A 
BRANCH  26  27
ATOM     27  N1  NON d   1     -47.440  16.130  -6.033  0.00  0.00    -0.301 NA
ATOM     28  H1  NON d   1     -47.450  17.028  -6.509  0.00  0.00     0.124 HD
ATOM     29  H2  NON d   1     -46.499  15.741  -6.050  0.00  0.00     0.124 HD
ENDBRANCH  26  27
ENDBRANCH  18  21
ENDBRANCH  14  17
ENDBRANCH  10  11
ENDBRANCH   1  10
BRANCH   4  30
ATOM     30  N5  NON d   1     -40.698  19.444  -0.871  0.00  0.00    -0.220 N 
ATOM     31  H13 NON d   1     -40.930  19.835   0.038  0.00  0.00     0.178 HD
BRANCH  30  32
ATOM     32  C15 NON d   1     -41.406  18.240  -1.194  0.00  0.00     0.099 A 
ATOM     33  C16 NON d   1     -40.855  17.278  -2.201  0.00  0.00     0.028 A 
ATOM     34  C17 NON d   1     -42.175  17.968  -2.445  0.00  0.00     0.028 A 
ENDBRANCH  30  32
ENDBRANCH   4  30
BRANCH   6  35
ATOM     35  N7  NON d   1     -38.578  23.441  -2.110  0.00  0.00    -0.218 N 
ATOM     36  H20 NON d   1     -37.976  23.751  -2.875  0.00  0.00     0.178 HD
BRANCH  35  37
ATOM     37  C19 NON d   1     -38.942  24.450  -1.089  0.00  0.00     0.108 C 
ATOM     38  C20 NON d   1     -40.218  25.252  -1.389  0.00  0.00     0.065 C 
ATOM     39  C21 NON d   1     -40.634  25.676  -0.021  0.00  0.00    -0.050 A 
ATOM     40  C22 NON d   1     -41.477  26.719   0.326  0.00  0.00     0.007 A 
ATOM     41  C26 NON d   1     -40.039  24.860   0.945  0.00  0.00    -0.050 A 
ATOM     42  C23 NON d   1     -41.716  26.946   1.680  0.00  0.00     0.001 A 
ATOM     43  C24 NON d   1     -41.126  26.126   2.656  0.00  0.00     0.001 A 
ATOM     44  C25 NON d   1     -40.288  25.066   2.290  0.00  0.00     0.007 A 
ATOM     45  C27 NON d   1     -39.181  23.812   0.297  0.00  0.00     0.065 C 
ENDBRANCH  35  37
ENDBRANCH   6  35
TORSDOF 9
ENDMDL
MODEL 9
REMARK VINA RESULT:   -35.369      4.977      8.429
REMARK INTER + INTRA:         -38.493
REMARK INTER:                 -38.054
REMARK INTRA:                  -0.439
REMARK CONF_INDEPENDENT:        2.685
REMARK UNBOUND:                -0.439
REMARK  9 active torsions:
REMARK  status: ('A' for Active; 'I' for Inactive)
REMARK    1  A    between atoms: N1_1  and  C1_2 
REMARK    2  A    between atoms: C6_7  and  N2_8 
REMARK       I    between atoms: N2_8  and  C7_9 
REMARK    3  A    between atoms: C7_9  and  C8_11 
REMARK    4  A    between atoms: C11_14  and  C12_15 
REMARK    5  A    between atoms: N3_16  and  C12_15 
REMARK    6  A    between atoms: C14_19  and  N5_20 
REMARK    7  A    between atoms: N5_20  and  C15_21 
REMARK    8  A    between atoms: C18_25  and  N7_26 
REMARK    9  A    between atoms: N7_26  and  C19_27 
ROOT
ATOM      1  N3  NON d   1     -39.311  19.674  -6.658  0.00  0.00    -0.100 NA
ATOM      2  C13 NON d   1     -39.284  20.915  -6.997  0.00  0.00     0.752 A 
ATOM      3  N4  NON d   1     -39.602  21.965  -6.116  0.00  0.00    -0.018 N 
ATOM      4  C14 NON d   1     -39.548  23.265  -6.460  0.00  0.00     0.707 A 
ATOM      5  N6  NON d   1     -39.279  23.560  -7.694  0.00  0.00    -0.020 N 
ATOM      6  C18 NON d   1     -39.001  22.634  -8.580  0.00  0.00     0.731 A 
ATOM      7  N8  NON d   1     -38.935  21.260  -8.224  0.00  0.00     0.129 NA
ATOM      8  H12 NON d   1     -39.868  21.723  -5.180  0.00  0.00     0.203 HD
ATOM      9  H19 NON d   1     -39.271  24.519  -7.950  0.00  0.00     0.203 HD
ENDROOT
BRANCH   1  10
ATOM     10  C12 NON d   1     -39.702  19.355  -5.282  0.00  0.00     0.207 C 
BRANCH  10  11
ATOM     11  C11 NON d   1     -41.106  18.864  -5.006  0.00  0.00    -0.038 A 
ATOM     12  C10 NON d   1     -42.144  19.535  -5.671  0.00  0.00     0.010 A 
ATOM     13  C9  NON d   1     -43.471  19.129  -5.538  0.00  0.00     0.017 A 
ATOM     14  C8  NON d   1     -43.818  18.034  -4.736  0.00  0.00     0.032 A 
ATOM     15  C29 NON d   1     -42.790  17.368  -4.049  0.00  0.00     0.017 A 
ATOM     16  C28 NON d   1     -41.444  17.782  -4.186  0.00  0.00     0.010 A 
BRANCH  14  17
ATOM     17  C7  NON d   1     -45.273  17.651  -4.736  0.00  0.00     0.256 C 
ATOM     18  N2  NON d   1     -45.788  17.024  -3.615  0.00  0.00    -0.321 N 
ATOM     19  H7  NON d   1     -45.193  16.870  -2.813  0.00  0.00     0.169 HD
ATOM     20  O1  NON d   1     -45.920  17.910  -5.749  0.00  0.00    -0.267 OA
BRANCH  18  21
ATOM     21  C6  NON d   1     -47.145  16.644  -3.409  0.00  0.00     0.056 A 
ATOM     22  C5  NON d   1     -47.778  16.677  -2.160  0.00  0.00     0.031 A 
ATOM     23  C4  NON d   1     -49.086  16.212  -2.003  0.00  0.00     0.002 A 
ATOM     24  C3  NON d   1     -49.773  15.689  -3.093  0.00  0.00     0.002 A 
ATOM     25  C2  NON d   1     -49.161  15.655  -4.346  0.00  0.00     0.025 A 
ATOM     26  C1  NON d   1     -47.872  16.176  -4.527  0.00  0.00     0.033 A 
BRANCH  26  27
ATOM     27  N1  NON d   1     -47.280  16.131  -5.812  0.00  0.00    -0.301 NA
ATOM     28  H1  NON d   1     -47.152  17.060  -6.204  0.00  0.00     0.124 HD
ATOM     29  H2  NON d   1     -46.385  15.647  -5.769  0.00  0.00     0.124 HD
ENDBRANCH  26  27
ENDBRANCH  18  21
ENDBRANCH  14  17
ENDBRANCH  10  11
ENDBRANCH   1  10
BRANCH   4  30
ATOM     30  N5  NON d   1     -39.754  24.216  -5.483  0.00  0.00    -0.220 N 
ATOM     31  H13 NON d   1     -40.032  25.141  -5.796  0.00  0.00     0.178 HD
BRANCH  30  32
ATOM     32  C15 NON d   1     -40.038  23.948  -4.103  0.00  0.00     0.099 A 
ATOM     33  C16 NON d   1     -41.342  23.334  -3.698  0.00  0.00     0.028 A 
ATOM     34  C17 NON d   1     -40.967  24.715  -3.221  0.00  0.00     0.028 A 
ENDBRANCH  30  32
ENDBRANCH   4  30
BRANCH   6  35
ATOM     35  N7  NON d   1     -38.775  22.844  -9.860  0.00  0.00    -0.218 N 
ATOM     36  H20 NON d   1     -37.800  22.643 -10.090  0.00  0.00     0.178 HD
BRANCH  35  37
ATOM     37  C19 NON d   1     -39.686  23.132 -10.992  0.00  0.00     0.108 C 
ATOM     38  C20 NON d   1     -40.284  24.547 -11.005  0.00  0.00     0.065 C 
ATOM     39  C21 NON d   1     -40.600  24.727 -12.451  0.00  0.00    -0.050 A 
ATOM     40  C22 NON d   1     -41.487  25.624 -13.023  0.00  0.00     0.007 A 
ATOM     41  C26 NON d   1     -39.862  23.827 -13.227  0.00  0.00    -0.050 A 
ATOM     42  C23 NON d   1     -41.636  25.605 -14.409  0.00  0.00     0.001 A 
ATOM     43  C24 NON d   1     -40.894  24.708 -15.195  0.00  0.00     0.001 A 
ATOM     44  C25 NON d   1     -39.990  23.817 -14.604  0.00  0.00     0.007 A 
ATOM     45  C27 NON d   1     -38.981  22.978 -12.358  0.00  0.00     0.065 C 
ENDBRANCH  35  37
ENDBRANCH   6  35
TORSDOF 9
ENDMDL
