MODEL 1
REMARK VINA RESULT:   -13.609      0.000      0.000
REMARK INTER + INTRA:         -16.317
REMARK INTER:                 -15.101
REMARK INTRA:                  -1.217
REMARK CONF_INDEPENDENT:        1.492
REMARK UNBOUND:                -1.217
REMARK  5 active torsions:
REMARK  status: ('A' for Active; 'I' for Inactive)
REMARK    1  A    between atoms: C1_2  and  C2_3 
REMARK       I    between atoms: C1_2  and  N2_28 
REMARK    2  A    between atoms: C3_4  and  C4_5 
REMARK    3  A    between atoms: N1_17  and  C15_18 
REMARK    4  A    between atoms: C15_18  and  C16_19 
REMARK    5  A    between atoms: N2_28  and  O4_29 
ROOT
ATOM      1  C4  NON d   1     -42.964  17.906  -4.185  0.00  0.00    -0.035 A 
ATOM      2  C5  NON d   1     -42.592  17.587  -2.870  0.00  0.00     0.014 A 
ATOM      3  C6  NON d   1     -41.635  18.362  -2.169  0.00  0.00     0.038 A 
ATOM      4  C7  NON d   1     -41.042  19.473  -2.766  0.00  0.00     0.083 A 
ATOM      5  C8  NON d   1     -41.409  19.757  -4.072  0.00  0.00     0.044 A 
ATOM      6  C9  NON d   1     -42.331  18.993  -4.793  0.00  0.00     0.029 A 
ATOM      7  C10 NON d   1     -41.043  21.068  -4.557  0.00  0.00     0.165 C 
ATOM      8  O2  NON d   1     -40.993  21.361  -5.741  0.00  0.00    -0.292 OA
ATOM      9  C11 NON d   1     -40.854  22.019  -3.426  0.00  0.00     0.122 C 
ATOM     10  C12 NON d   1     -39.515  21.512  -2.582  0.00  0.00     0.078 C 
ATOM     11  C13 NON d   1     -38.749  22.707  -3.179  0.00  0.00     0.069 C 
ATOM     12  C14 NON d   1     -37.414  23.001  -2.438  0.00  0.00     0.276 C 
ATOM     13  N1  NON d   1     -37.235  22.445  -1.086  0.00  0.00     0.092 N 
ATOM     14  C22 NON d   1     -38.470  22.324  -0.318  0.00  0.00     0.276 C 
ATOM     15  C23 NON d   1     -39.730  22.298  -1.163  0.00  0.00     0.069 C 
ATOM     16  O3  NON d   1     -40.281  20.316  -1.985  0.00  0.00    -0.339 OA
ENDROOT
BRANCH  13  17
ATOM     17  C15 NON d   1     -36.190  23.226  -0.376  0.00  0.00     0.311 C 
BRANCH  17  18
ATOM     18  C16 NON d   1     -36.556  24.535   0.310  0.00  0.00    -0.030 A 
ATOM     19  C17 NON d   1     -36.331  25.732  -0.397  0.00  0.00     0.009 A 
ATOM     20  C18 NON d   1     -36.638  26.976   0.158  0.00  0.00     0.001 A 
ATOM     21  C19 NON d   1     -37.179  27.044   1.438  0.00  0.00     0.000 A 
ATOM     22  C20 NON d   1     -37.383  25.874   2.166  0.00  0.00     0.001 A 
ATOM     23  C21 NON d   1     -37.049  24.631   1.616  0.00  0.00     0.009 A 
ENDBRANCH  17  18
ENDBRANCH  13  17
BRANCH   1  24
ATOM     24  C3  NON d   1     -44.003  17.216  -4.981  0.00  0.00     0.017 C 
ATOM     25  C2  NON d   1     -45.303  17.064  -4.684  0.00  0.00     0.077 C 
BRANCH  25  26
ATOM     26  C1  NON d   1     -46.277  16.367  -5.579  0.00  0.00     0.264 C 
ATOM     27  O1  NON d   1     -45.939  15.355  -6.180  0.00  0.00    -0.266 OA
ATOM     28  N2  NON d   1     -47.541  16.914  -5.615  0.00  0.00    -0.234 N 
ATOM     29  H23 NON d   1     -47.861  17.536  -4.883  0.00  0.00     0.197 HD
BRANCH  28  30
ATOM     30  O4  NON d   1     -48.550  16.108  -6.193  0.00  0.00    -0.287 OA
ATOM     31  H24 NON d   1     -48.051  15.605  -6.863  0.00  0.00     0.244 HD
ENDBRANCH  28  30
ENDBRANCH  25  26
ENDBRANCH   1  24
TORSDOF 5
ENDMDL
MODEL 2
REMARK VINA RESULT:   -11.900      1.167      2.322
REMARK INTER + INTRA:         -14.517
REMARK INTER:                 -13.391
REMARK INTRA:                  -1.126
REMARK CONF_INDEPENDENT:        1.492
REMARK UNBOUND:                -1.126
REMARK  5 active torsions:
REMARK  status: ('A' for Active; 'I' for Inactive)
REMARK    1  A    between atoms: C1_2  and  C2_3 
REMARK       I    between atoms: C1_2  and  N2_28 
REMARK    2  A    between atoms: C3_4  and  C4_5 
REMARK    3  A    between atoms: N1_17  and  C15_18 
REMARK    4  A    between atoms: C15_18  and  C16_19 
REMARK    5  A    between atoms: N2_28  and  O4_29 
ROOT
ATOM      1  C4  NON d   1     -43.071  18.292  -4.698  0.00  0.00    -0.035 A 
ATOM      2  C5  NON d   1     -42.729  19.446  -5.421  0.00  0.00     0.014 A 
ATOM      3  C6  NON d   1     -41.661  20.282  -5.009  0.00  0.00     0.038 A 
ATOM      4  C7  NON d   1     -40.913  19.974  -3.874  0.00  0.00     0.083 A 
ATOM      5  C8  NON d   1     -41.281  18.841  -3.164  0.00  0.00     0.044 A 
ATOM      6  C9  NON d   1     -42.345  18.015  -3.537  0.00  0.00     0.029 A 
ATOM      7  C10 NON d   1     -40.318  18.363  -2.201  0.00  0.00     0.165 C 
ATOM      8  O2  NON d   1     -40.596  17.603  -1.286  0.00  0.00    -0.292 OA
ATOM      9  C11 NON d   1     -38.944  18.827  -2.545  0.00  0.00     0.122 C 
ATOM     10  C12 NON d   1     -38.926  20.477  -2.351  0.00  0.00     0.078 C 
ATOM     11  C13 NON d   1     -38.091  20.266  -1.073  0.00  0.00     0.069 C 
ATOM     12  C14 NON d   1     -37.409  21.571  -0.574  0.00  0.00     0.276 C 
ATOM     13  N1  NON d   1     -37.273  22.688  -1.523  0.00  0.00     0.092 N 
ATOM     14  C22 NON d   1     -37.105  22.279  -2.913  0.00  0.00     0.276 C 
ATOM     15  C23 NON d   1     -37.592  20.874  -3.213  0.00  0.00     0.069 C 
ATOM     16  O3  NON d   1     -39.761  20.689  -3.628  0.00  0.00    -0.339 OA
ENDROOT
BRANCH  13  17
ATOM     17  C15 NON d   1     -36.190  23.592  -1.055  0.00  0.00     0.311 C 
BRANCH  17  18
ATOM     18  C16 NON d   1     -36.481  24.632   0.018  0.00  0.00    -0.030 A 
ATOM     19  C17 NON d   1     -37.004  24.181   1.245  0.00  0.00     0.009 A 
ATOM     20  C18 NON d   1     -37.300  25.068   2.282  0.00  0.00     0.001 A 
ATOM     21  C19 NON d   1     -37.074  26.430   2.109  0.00  0.00     0.000 A 
ATOM     22  C20 NON d   1     -36.583  26.900   0.893  0.00  0.00     0.001 A 
ATOM     23  C21 NON d   1     -36.314  26.011  -0.154  0.00  0.00     0.009 A 
ENDBRANCH  17  18
ENDBRANCH  13  17
BRANCH   1  24
ATOM     24  C3  NON d   1     -44.111  17.312  -5.078  0.00  0.00     0.017 C 
ATOM     25  C2  NON d   1     -45.388  17.553  -5.414  0.00  0.00     0.077 C 
BRANCH  25  26
ATOM     26  C1  NON d   1     -46.353  16.481  -5.810  0.00  0.00     0.264 C 
ATOM     27  O1  NON d   1     -45.938  15.389  -6.175  0.00  0.00    -0.266 OA
ATOM     28  N2  NON d   1     -47.685  16.807  -5.676  0.00  0.00    -0.234 N 
ATOM     29  H23 NON d   1     -47.977  17.577  -5.087  0.00  0.00     0.197 HD
BRANCH  28  30
ATOM     30  O4  NON d   1     -48.598  15.728  -5.739  0.00  0.00    -0.287 OA
ATOM     31  H24 NON d   1     -48.063  15.032  -6.164  0.00  0.00     0.244 HD
ENDBRANCH  28  30
ENDBRANCH  25  26
ENDBRANCH   1  24
TORSDOF 5
ENDMDL
MODEL 3
REMARK VINA RESULT:   -11.478      1.653      2.609
REMARK INTER + INTRA:         -14.094
REMARK INTER:                 -12.970
REMARK INTRA:                  -1.124
REMARK CONF_INDEPENDENT:        1.492
REMARK UNBOUND:                -1.124
REMARK  5 active torsions:
REMARK  status: ('A' for Active; 'I' for Inactive)
REMARK    1  A    between atoms: C1_2  and  C2_3 
REMARK       I    between atoms: C1_2  and  N2_28 
REMARK    2  A    between atoms: C3_4  and  C4_5 
REMARK    3  A    between atoms: N1_17  and  C15_18 
REMARK    4  A    between atoms: C15_18  and  C16_19 
REMARK    5  A    between atoms: N2_28  and  O4_29 
ROOT
ATOM      1  C4  NON d   1     -43.657  17.805  -4.516  0.00  0.00    -0.035 A 
ATOM      2  C5  NON d   1     -43.492  19.035  -5.171  0.00  0.00     0.014 A 
ATOM      3  C6  NON d   1     -42.367  19.859  -4.915  0.00  0.00     0.038 A 
ATOM      4  C7  NON d   1     -41.385  19.462  -4.008  0.00  0.00     0.083 A 
ATOM      5  C8  NON d   1     -41.579  18.253  -3.358  0.00  0.00     0.044 A 
ATOM      6  C9  NON d   1     -42.692  17.436  -3.575  0.00  0.00     0.029 A 
ATOM      7  C10 NON d   1     -40.424  17.711  -2.682  0.00  0.00     0.165 C 
ATOM      8  O2  NON d   1     -40.489  16.855  -1.813  0.00  0.00    -0.292 OA
ATOM      9  C11 NON d   1     -39.164  18.250  -3.266  0.00  0.00     0.122 C 
ATOM     10  C12 NON d   1     -39.117  19.872  -2.908  0.00  0.00     0.078 C 
ATOM     11  C13 NON d   1     -38.021  19.560  -1.872  0.00  0.00     0.069 C 
ATOM     12  C14 NON d   1     -37.257  20.829  -1.399  0.00  0.00     0.276 C 
ATOM     13  N1  NON d   1     -37.342  22.040  -2.233  0.00  0.00     0.092 N 
ATOM     14  C22 NON d   1     -37.480  21.777  -3.662  0.00  0.00     0.276 C 
ATOM     15  C23 NON d   1     -38.008  20.394  -3.993  0.00  0.00     0.069 C 
ATOM     16  O3  NON d   1     -40.213  20.184  -3.945  0.00  0.00    -0.339 OA
ENDROOT
BRANCH  13  17
ATOM     17  C15 NON d   1     -36.191  22.925  -1.919  0.00  0.00     0.311 C 
BRANCH  17  18
ATOM     18  C16 NON d   1     -36.420  24.410  -1.674  0.00  0.00    -0.030 A 
ATOM     19  C17 NON d   1     -36.754  25.214  -2.782  0.00  0.00     0.009 A 
ATOM     20  C18 NON d   1     -36.980  26.585  -2.646  0.00  0.00     0.001 A 
ATOM     21  C19 NON d   1     -36.877  27.179  -1.392  0.00  0.00     0.000 A 
ATOM     22  C20 NON d   1     -36.520  26.407  -0.288  0.00  0.00     0.001 A 
ATOM     23  C21 NON d   1     -36.268  25.038  -0.433  0.00  0.00     0.009 A 
ENDBRANCH  17  18
ENDBRANCH  13  17
BRANCH   1  24
ATOM     24  C3  NON d   1     -44.747  16.835  -4.761  0.00  0.00     0.017 C 
ATOM     25  C2  NON d   1     -45.954  17.071  -5.297  0.00  0.00     0.077 C 
BRANCH  25  26
ATOM     26  C1  NON d   1     -46.977  16.004  -5.526  0.00  0.00     0.264 C 
ATOM     27  O1  NON d   1     -46.690  15.013  -6.185  0.00  0.00    -0.266 OA
ATOM     28  N2  NON d   1     -48.192  16.209  -4.909  0.00  0.00    -0.234 N 
ATOM     29  H23 NON d   1     -48.282  16.857  -4.137  0.00  0.00     0.197 HD
BRANCH  28  30
ATOM     30  O4  NON d   1     -49.054  15.088  -4.848  0.00  0.00    -0.287 OA
ATOM     31  H24 NON d   1     -48.761  14.563  -5.616  0.00  0.00     0.244 HD
ENDBRANCH  28  30
ENDBRANCH  25  26
ENDBRANCH   1  24
TORSDOF 5
ENDMDL
