MODEL 1
REMARK VINA RESULT:   -28.217      0.000      0.000
REMARK INTER + INTRA:         -33.877
REMARK INTER:                 -32.095
REMARK INTRA:                  -1.782
REMARK CONF_INDEPENDENT:        3.878
REMARK UNBOUND:                -1.782
REMARK  13 active torsions:
REMARK  status: ('A' for Active; 'I' for Inactive)
REMARK    1  A    between atoms: O1_2  and  C2_3 
REMARK    2  A    between atoms: C5_6  and  S1_7 
REMARK    3  A    between atoms: S1_7  and  N1_10 
REMARK    4  A    between atoms: N1_10  and  C6_11 
REMARK    5  A    between atoms: C9_14  and  O4_15 
REMARK    6  A    between atoms: O4_15  and  C10_16 
REMARK    7  A    between atoms: C10_16  and  C11_17 
REMARK    8  A    between atoms: C11_17  and  C12_18 
REMARK    9  A    between atoms: C12_18  and  C13_19 
REMARK   10  A    between atoms: C13_19  and  C14_20 
REMARK   11  A    between atoms: C14_20  and  C15_21 
REMARK   12  A    between atoms: C15_21  and  C16_22 
REMARK       I    between atoms: C16_22  and  N2_24 
REMARK   13  A    between atoms: N2_24  and  O6_25 
ROOT
ATOM      1  C6  NON d   1     -45.901  17.102  -5.245  0.00  0.00     0.023 A 
ATOM      2  C7  NON d   1     -45.231  16.508  -4.165  0.00  0.00     0.027 A 
ATOM      3  C8  NON d   1     -44.004  17.039  -3.688  0.00  0.00     0.038 A 
ATOM      4  C9  NON d   1     -43.445  18.172  -4.283  0.00  0.00     0.068 A 
ATOM      5  C17 NON d   1     -44.143  18.774  -5.334  0.00  0.00     0.038 A 
ATOM      6  C18 NON d   1     -45.353  18.251  -5.809  0.00  0.00     0.027 A 
ENDROOT
BRANCH   1   7
ATOM      7  N1  NON d   1     -47.109  16.525  -5.809  0.00  0.00    -0.181 NA
ATOM      8  H6  NON d   1     -46.908  16.037  -6.687  0.00  0.00     0.146 HD
BRANCH   7   9
ATOM      9  S1  NON d   1     -47.971  15.401  -4.845  0.00  0.00     0.245 S 
ATOM     10  O2  NON d   1     -47.065  14.416  -4.299  0.00  0.00    -0.206 OA
ATOM     11  O3  NON d   1     -49.104  15.010  -5.661  0.00  0.00    -0.206 OA
BRANCH   9  12
ATOM     12  C5  NON d   1     -48.627  16.332  -3.442  0.00  0.00     0.075 A 
ATOM     13  C4  NON d   1     -49.972  16.203  -3.069  0.00  0.00     0.027 A 
ATOM     14  C3  NON d   1     -50.412  16.681  -1.814  0.00  0.00     0.038 A 
ATOM     15  C2  NON d   1     -49.529  17.281  -0.905  0.00  0.00     0.068 A 
ATOM     16  C20 NON d   1     -48.198  17.444  -1.305  0.00  0.00     0.038 A 
ATOM     17  C19 NON d   1     -47.746  16.967  -2.561  0.00  0.00     0.027 A 
BRANCH  15  18
ATOM     18  O1  NON d   1     -50.064  17.630   0.326  0.00  0.00    -0.356 OA
ATOM     19  C1  NON d   1     -51.392  18.402   0.211  0.00  0.00     0.210 C 
ENDBRANCH  15  18
ENDBRANCH   9  12
ENDBRANCH   7   9
ENDBRANCH   1   7
BRANCH   4  20
ATOM     20  O4  NON d   1     -42.257  18.781  -3.965  0.00  0.00    -0.351 OA
BRANCH  20  21
ATOM     21  C10 NON d   1     -41.575  18.391  -2.770  0.00  0.00     0.175 C 
BRANCH  21  22
ATOM     22  C11 NON d   1     -40.130  18.945  -2.771  0.00  0.00     0.027 C 
BRANCH  22  23
ATOM     23  C12 NON d   1     -40.009  20.366  -3.348  0.00  0.00     0.002 C 
BRANCH  23  24
ATOM     24  C13 NON d   1     -39.650  20.421  -4.848  0.00  0.00     0.001 C 
BRANCH  24  25
ATOM     25  C14 NON d   1     -40.137  19.240  -5.710  0.00  0.00     0.009 C 
BRANCH  25  26
ATOM     26  C15 NON d   1     -39.556  19.221  -7.121  0.00  0.00     0.105 C 
BRANCH  26  27
ATOM     27  C16 NON d   1     -40.257  20.159  -8.093  0.00  0.00     0.240 C 
ATOM     28  O5  NON d   1     -41.300  19.892  -8.675  0.00  0.00    -0.271 OA
ATOM     29  N2  NON d   1     -39.521  21.323  -8.281  0.00  0.00    -0.237 N 
ATOM     30  H21 NON d   1     -38.913  21.647  -7.533  0.00  0.00     0.197 HD
BRANCH  29  31
ATOM     31  O6  NON d   1     -40.180  22.349  -8.992  0.00  0.00    -0.287 OA
ATOM     32  H22 NON d   1     -40.721  21.848  -9.632  0.00  0.00     0.244 HD
ENDBRANCH  29  31
ENDBRANCH  26  27
ENDBRANCH  25  26
ENDBRANCH  24  25
ENDBRANCH  23  24
ENDBRANCH  22  23
ENDBRANCH  21  22
ENDBRANCH  20  21
ENDBRANCH   4  20
TORSDOF 13
ENDMDL
MODEL 2
REMARK VINA RESULT:   -27.835      1.398      2.013
REMARK INTER + INTRA:         -33.230
REMARK INTER:                 -31.713
REMARK INTRA:                  -1.517
REMARK CONF_INDEPENDENT:        3.878
REMARK UNBOUND:                -1.517
REMARK  13 active torsions:
REMARK  status: ('A' for Active; 'I' for Inactive)
REMARK    1  A    between atoms: O1_2  and  C2_3 
REMARK    2  A    between atoms: C5_6  and  S1_7 
REMARK    3  A    between atoms: S1_7  and  N1_10 
REMARK    4  A    between atoms: N1_10  and  C6_11 
REMARK    5  A    between atoms: C9_14  and  O4_15 
REMARK    6  A    between atoms: O4_15  and  C10_16 
REMARK    7  A    between atoms: C10_16  and  C11_17 
REMARK    8  A    between atoms: C11_17  and  C12_18 
REMARK    9  A    between atoms: C12_18  and  C13_19 
REMARK   10  A    between atoms: C13_19  and  C14_20 
REMARK   11  A    between atoms: C14_20  and  C15_21 
REMARK   12  A    between atoms: C15_21  and  C16_22 
REMARK       I    between atoms: C16_22  and  N2_24 
REMARK   13  A    between atoms: N2_24  and  O6_25 
ROOT
ATOM      1  C6  NON d   1     -46.191  17.024  -4.891  0.00  0.00     0.023 A 
ATOM      2  C7  NON d   1     -45.628  16.514  -3.712  0.00  0.00     0.027 A 
ATOM      3  C8  NON d   1     -44.369  16.974  -3.247  0.00  0.00     0.038 A 
ATOM      4  C9  NON d   1     -43.668  17.952  -3.956  0.00  0.00     0.068 A 
ATOM      5  C17 NON d   1     -44.258  18.478  -5.109  0.00  0.00     0.038 A 
ATOM      6  C18 NON d   1     -45.501  18.024  -5.571  0.00  0.00     0.027 A 
ENDROOT
BRANCH   1   7
ATOM      7  N1  NON d   1     -47.434  16.505  -5.435  0.00  0.00    -0.181 NA
ATOM      8  H6  NON d   1     -47.325  16.249  -6.421  0.00  0.00     0.146 HD
BRANCH   7   9
ATOM      9  S1  NON d   1     -48.114  15.129  -4.674  0.00  0.00     0.245 S 
ATOM     10  O2  NON d   1     -47.067  14.239  -4.225  0.00  0.00    -0.206 OA
ATOM     11  O3  NON d   1     -49.145  14.676  -5.587  0.00  0.00    -0.206 OA
BRANCH   9  12
ATOM     12  C5  NON d   1     -48.951  15.730  -3.190  0.00  0.00     0.075 A 
ATOM     13  C4  NON d   1     -48.231  16.389  -2.184  0.00  0.00     0.027 A 
ATOM     14  C3  NON d   1     -48.911  17.117  -1.181  0.00  0.00     0.038 A 
ATOM     15  C2  NON d   1     -50.309  17.216  -1.166  0.00  0.00     0.068 A 
ATOM     16  C20 NON d   1     -51.020  16.520  -2.149  0.00  0.00     0.038 A 
ATOM     17  C19 NON d   1     -50.349  15.788  -3.159  0.00  0.00     0.027 A 
BRANCH  15  18
ATOM     18  O1  NON d   1     -50.852  18.031  -0.182  0.00  0.00    -0.356 OA
ATOM     19  C1  NON d   1     -52.336  18.363  -0.425  0.00  0.00     0.210 C 
ENDBRANCH  15  18
ENDBRANCH   9  12
ENDBRANCH   7   9
ENDBRANCH   1   7
BRANCH   4  20
ATOM     20  O4  NON d   1     -42.433  18.472  -3.661  0.00  0.00    -0.351 OA
BRANCH  20  21
ATOM     21  C10 NON d   1     -41.274  17.897  -4.272  0.00  0.00     0.175 C 
BRANCH  21  22
ATOM     22  C11 NON d   1     -41.326  18.087  -5.806  0.00  0.00     0.027 C 
BRANCH  22  23
ATOM     23  C12 NON d   1     -40.346  19.148  -6.336  0.00  0.00     0.002 C 
BRANCH  23  24
ATOM     24  C13 NON d   1     -39.787  18.860  -7.745  0.00  0.00     0.001 C 
BRANCH  24  25
ATOM     25  C14 NON d   1     -40.088  19.916  -8.827  0.00  0.00     0.009 C 
BRANCH  25  26
ATOM     26  C15 NON d   1     -39.248  21.184  -8.707  0.00  0.00     0.105 C 
BRANCH  26  27
ATOM     27  C16 NON d   1     -39.417  22.153  -9.868  0.00  0.00     0.240 C 
ATOM     28  O5  NON d   1     -38.808  22.070 -10.927  0.00  0.00    -0.271 OA
ATOM     29  N2  NON d   1     -40.297  23.177  -9.539  0.00  0.00    -0.237 N 
ATOM     30  H21 NON d   1     -41.024  22.998  -8.852  0.00  0.00     0.197 HD
BRANCH  29  31
ATOM     31  O6  NON d   1     -40.690  24.006 -10.612  0.00  0.00    -0.287 OA
ATOM     32  H22 NON d   1     -40.269  23.574 -11.378  0.00  0.00     0.244 HD
ENDBRANCH  29  31
ENDBRANCH  26  27
ENDBRANCH  25  26
ENDBRANCH  24  25
ENDBRANCH  23  24
ENDBRANCH  22  23
ENDBRANCH  21  22
ENDBRANCH  20  21
ENDBRANCH   4  20
TORSDOF 13
ENDMDL
MODEL 3
REMARK VINA RESULT:   -26.848      2.142      2.880
REMARK INTER + INTRA:         -33.390
REMARK INTER:                 -30.726
REMARK INTRA:                  -2.664
REMARK CONF_INDEPENDENT:        3.878
REMARK UNBOUND:                -2.664
REMARK  13 active torsions:
REMARK  status: ('A' for Active; 'I' for Inactive)
REMARK    1  A    between atoms: O1_2  and  C2_3 
REMARK    2  A    between atoms: C5_6  and  S1_7 
REMARK    3  A    between atoms: S1_7  and  N1_10 
REMARK    4  A    between atoms: N1_10  and  C6_11 
REMARK    5  A    between atoms: C9_14  and  O4_15 
REMARK    6  A    between atoms: O4_15  and  C10_16 
REMARK    7  A    between atoms: C10_16  and  C11_17 
REMARK    8  A    between atoms: C11_17  and  C12_18 
REMARK    9  A    between atoms: C12_18  and  C13_19 
REMARK   10  A    between atoms: C13_19  and  C14_20 
REMARK   11  A    between atoms: C14_20  and  C15_21 
REMARK   12  A    between atoms: C15_21  and  C16_22 
REMARK       I    between atoms: C16_22  and  N2_24 
REMARK   13  A    between atoms: N2_24  and  O6_25 
ROOT
ATOM      1  C6  NON d   1     -45.959  17.081  -5.384  0.00  0.00     0.023 A 
ATOM      2  C7  NON d   1     -45.112  16.384  -4.510  0.00  0.00     0.027 A 
ATOM      3  C8  NON d   1     -43.867  16.933  -4.108  0.00  0.00     0.038 A 
ATOM      4  C9  NON d   1     -43.464  18.187  -4.573  0.00  0.00     0.068 A 
ATOM      5  C17 NON d   1     -44.335  18.887  -5.414  0.00  0.00     0.038 A 
ATOM      6  C18 NON d   1     -45.565  18.346  -5.813  0.00  0.00     0.027 A 
ENDROOT
BRANCH   1   7
ATOM      7  N1  NON d   1     -47.195  16.502  -5.881  0.00  0.00    -0.181 NA
ATOM      8  H6  NON d   1     -47.041  16.010  -6.766  0.00  0.00     0.146 HD
BRANCH   7   9
ATOM      9  S1  NON d   1     -48.004  15.383  -4.867  0.00  0.00     0.245 S 
ATOM     10  O2  NON d   1     -47.065  14.419  -4.340  0.00  0.00    -0.206 OA
ATOM     11  O3  NON d   1     -49.162  14.964  -5.633  0.00  0.00    -0.206 OA
BRANCH   9  12
ATOM     12  C5  NON d   1     -48.620  16.328  -3.455  0.00  0.00     0.075 A 
ATOM     13  C4  NON d   1     -49.992  16.376  -3.175  0.00  0.00     0.027 A 
ATOM     14  C3  NON d   1     -50.448  16.850  -1.923  0.00  0.00     0.038 A 
ATOM     15  C2  NON d   1     -49.555  17.270  -0.927  0.00  0.00     0.068 A 
ATOM     16  C20 NON d   1     -48.190  17.258  -1.233  0.00  0.00     0.038 A 
ATOM     17  C19 NON d   1     -47.722  16.783  -2.484  0.00  0.00     0.027 A 
BRANCH  15  18
ATOM     18  O1  NON d   1     -50.121  17.630   0.287  0.00  0.00    -0.356 OA
ATOM     19  C1  NON d   1     -51.457  18.380   0.132  0.00  0.00     0.210 C 
ENDBRANCH  15  18
ENDBRANCH   9  12
ENDBRANCH   7   9
ENDBRANCH   1   7
BRANCH   4  20
ATOM     20  O4  NON d   1     -42.284  18.835  -4.309  0.00  0.00    -0.351 OA
BRANCH  20  21
ATOM     21  C10 NON d   1     -41.341  19.018  -5.370  0.00  0.00     0.175 C 
BRANCH  21  22
ATOM     22  C11 NON d   1     -40.482  20.279  -5.112  0.00  0.00     0.027 C 
BRANCH  22  23
ATOM     23  C12 NON d   1     -41.012  21.172  -3.978  0.00  0.00     0.002 C 
BRANCH  23  24
ATOM     24  C13 NON d   1     -40.063  21.304  -2.767  0.00  0.00     0.001 C 
BRANCH  24  25
ATOM     25  C14 NON d   1     -38.601  20.876  -2.997  0.00  0.00     0.009 C 
BRANCH  25  26
ATOM     26  C15 NON d   1     -38.286  19.462  -2.519  0.00  0.00     0.105 C 
BRANCH  26  27
ATOM     27  C16 NON d   1     -39.331  18.427  -2.911  0.00  0.00     0.240 C 
ATOM     28  O5  NON d   1     -39.244  17.701  -3.892  0.00  0.00    -0.271 OA
ATOM     29  N2  NON d   1     -40.421  18.467  -2.049  0.00  0.00    -0.237 N 
ATOM     30  H21 NON d   1     -40.280  18.784  -1.094  0.00  0.00     0.197 HD
BRANCH  29  31
ATOM     31  O6  NON d   1     -41.345  17.410  -2.191  0.00  0.00    -0.287 OA
ATOM     32  H22 NON d   1     -41.342  17.255  -3.155  0.00  0.00     0.244 HD
ENDBRANCH  29  31
ENDBRANCH  26  27
ENDBRANCH  25  26
ENDBRANCH  24  25
ENDBRANCH  23  24
ENDBRANCH  22  23
ENDBRANCH  21  22
ENDBRANCH  20  21
ENDBRANCH   4  20
TORSDOF 13
ENDMDL
