MODEL 1
REMARK VINA RESULT:   -34.762      0.000      0.000
REMARK INTER + INTRA:         -38.518
REMARK INTER:                 -37.745
REMARK INTRA:                  -0.773
REMARK CONF_INDEPENDENT:        2.983
REMARK UNBOUND:                -0.773
REMARK  10 active torsions:
REMARK  status: ('A' for Active; 'I' for Inactive)
REMARK    1  A    between atoms: C1_2  and  C2_4 
REMARK    2  A    between atoms: C2_4  and  C3_5 
REMARK    3  A    between atoms: C3_5  and  C4_6 
REMARK    4  A    between atoms: C4_6  and  C5_7 
REMARK    5  A    between atoms: C5_7  and  C6_8 
REMARK    6  A    between atoms: C6_8  and  C7_9 
REMARK    7  A    between atoms: C7_9  and  C8_10 
REMARK    8  A    between atoms: C8_10  and  C9_13 
REMARK    9  A    between atoms: N1_11  and  O3_12 
REMARK   10  A    between atoms: C12_16  and  C13_17 
ROOT
ATOM      1  C8  NON d   1     -46.581  16.608  -4.600  0.00  0.00     0.071 C 
ATOM      2  N1  NON d   1     -47.065  16.538  -5.810  0.00  0.00    -0.140 NA
ENDROOT
BRANCH   1   3
ATOM      3  C7  NON d   1     -47.240  16.141  -3.289  0.00  0.00     0.062 C 
BRANCH   3   4
ATOM      4  C6  NON d   1     -48.321  16.968  -2.603  0.00  0.00     0.006 C 
BRANCH   4   5
ATOM      5  C5  NON d   1     -49.483  16.141  -2.031  0.00  0.00     0.000 C 
BRANCH   5   6
ATOM      6  C4  NON d   1     -50.787  16.165  -2.840  0.00  0.00     0.001 C 
BRANCH   6   7
ATOM      7  C3  NON d   1     -51.879  17.057  -2.239  0.00  0.00     0.010 C 
BRANCH   7   8
ATOM      8  C2  NON d   1     -53.278  16.468  -2.419  0.00  0.00     0.113 C 
BRANCH   8   9
ATOM      9  C1  NON d   1     -54.458  17.445  -2.509  0.00  0.00     0.172 C 
ATOM     10  O1  NON d   1     -54.810  17.935  -1.397  0.00  0.00    -0.648 OA
ATOM     11  O2  NON d   1     -54.949  17.630  -3.655  0.00  0.00    -0.648 OA
ENDBRANCH   8   9
ENDBRANCH   7   8
ENDBRANCH   6   7
ENDBRANCH   5   6
ENDBRANCH   4   5
ENDBRANCH   3   4
ENDBRANCH   1   3
BRANCH   1  12
ATOM     12  C9  NON d   1     -45.213  17.256  -4.466  0.00  0.00    -0.009 A 
ATOM     13  C10 NON d   1     -44.832  18.380  -5.198  0.00  0.00     0.014 A 
ATOM     14  C11 NON d   1     -43.547  18.935  -5.052  0.00  0.00     0.013 A 
ATOM     15  C12 NON d   1     -42.582  18.402  -4.175  0.00  0.00    -0.026 A 
ATOM     16  C19 NON d   1     -42.995  17.269  -3.447  0.00  0.00     0.013 A 
ATOM     17  C20 NON d   1     -44.276  16.707  -3.587  0.00  0.00     0.014 A 
BRANCH  15  18
ATOM     18  C13 NON d   1     -41.209  18.993  -4.028  0.00  0.00    -0.026 A 
ATOM     19  C14 NON d   1     -40.155  18.306  -3.390  0.00  0.00     0.012 A 
ATOM     20  C15 NON d   1     -38.874  18.860  -3.245  0.00  0.00     0.001 A 
ATOM     21  C16 NON d   1     -38.599  20.125  -3.743  0.00  0.00     0.000 A 
ATOM     22  C17 NON d   1     -39.606  20.834  -4.381  0.00  0.00     0.001 A 
ATOM     23  C18 NON d   1     -40.887  20.277  -4.517  0.00  0.00     0.012 A 
ENDBRANCH  15  18
ENDBRANCH   1  12
BRANCH   2  24
ATOM     24  O3  NON d   1     -48.334  15.982  -5.897  0.00  0.00    -0.266 OA
ATOM     25  H13 NON d   1     -48.571  16.140  -6.829  0.00  0.00     0.247 HD
ENDBRANCH   2  24
TORSDOF 10
ENDMDL
