MODEL 1
REMARK VINA RESULT:   -16.077      0.000      0.000
REMARK INTER + INTRA:         -20.022
REMARK INTER:                 -18.761
REMARK INTRA:                  -1.261
REMARK CONF_INDEPENDENT:        2.685
REMARK UNBOUND:                -1.261
REMARK  9 active torsions:
REMARK  status: ('A' for Active; 'I' for Inactive)
REMARK    1  A    between atoms: C2_2  and  C3_3 
REMARK    2  A    between atoms: C2_2  and  C19_20 
REMARK    3  A    between atoms: C3_3  and  C4_4 
REMARK    4  A    between atoms: C4_4  and  C5_5 
REMARK    5  A    between atoms: C5_5  and  C6_6 
REMARK    6  A    between atoms: C6_6  and  C7_7 
REMARK    7  A    between atoms: C7_7  and  C8_8 
REMARK    8  A    between atoms: C8_8  and  C9_10 
REMARK       I    between atoms: C19_20  and  N1_22 
REMARK    9  A    between atoms: N1_22  and  O3_23 
ROOT
ATOM      1  C7  NON d   1     -43.430  17.810  -4.956  0.00  0.00     0.084 C 
ENDROOT
BRANCH   1   2
ATOM      2  C6  NON d   1     -44.779  18.061  -4.302  0.00  0.00     0.008 C 
BRANCH   2   3
ATOM      3  C5  NON d   1     -45.422  16.879  -3.603  0.00  0.00     0.000 C 
BRANCH   3   4
ATOM      4  C4  NON d   1     -46.757  17.255  -2.947  0.00  0.00     0.001 C 
BRANCH   4   5
ATOM      5  C3  NON d   1     -47.814  16.133  -2.898  0.00  0.00     0.013 C 
BRANCH   5   6
ATOM      6  C2  NON d   1     -48.574  15.547  -4.178  0.00  0.00     0.076 C 
ATOM      7  C1  NON d   1     -49.752  14.573  -4.361  0.00  0.00     0.020 C 
BRANCH   6   8
ATOM      8  C19 NON d   1     -47.679  15.906  -5.380  0.00  0.00     0.244 C 
ATOM      9  O2  NON d   1     -46.918  15.102  -5.916  0.00  0.00    -0.271 OA
ATOM     10  N1  NON d   1     -47.614  17.251  -5.669  0.00  0.00    -0.237 N 
ATOM     11  H22 NON d   1     -47.982  17.981  -5.071  0.00  0.00     0.197 HD
BRANCH  10  12
ATOM     12  O3  NON d   1     -46.576  17.630  -6.554  0.00  0.00    -0.287 OA
ATOM     13  H23 NON d   1     -46.422  16.803  -7.063  0.00  0.00     0.244 HD
ENDBRANCH  10  12
ENDBRANCH   6   8
ENDBRANCH   5   6
ENDBRANCH   4   5
ENDBRANCH   3   4
ENDBRANCH   2   3
ENDBRANCH   1   2
BRANCH   1  14
ATOM     14  C8  NON d   1     -42.233  18.044  -4.060  0.00  0.00     0.159 C 
ATOM     15  O1  NON d   1     -42.280  17.948  -2.837  0.00  0.00    -0.292 OA
BRANCH  14  16
ATOM     16  C9  NON d   1     -40.930  18.368  -4.720  0.00  0.00     0.011 A 
ATOM     17  C10 NON d   1     -39.813  18.604  -3.917  0.00  0.00     0.016 A 
ATOM     18  C11 NON d   1     -38.580  18.904  -4.500  0.00  0.00     0.013 A 
ATOM     19  C12 NON d   1     -38.449  18.986  -5.897  0.00  0.00    -0.026 A 
ATOM     20  C13 NON d   1     -37.220  19.293  -6.503  0.00  0.00     0.012 A 
ATOM     21  C17 NON d   1     -39.577  18.759  -6.712  0.00  0.00    -0.025 A 
ATOM     22  C14 NON d   1     -37.115  19.383  -7.893  0.00  0.00     0.001 A 
ATOM     23  C15 NON d   1     -38.233  19.168  -8.693  0.00  0.00     0.001 A 
ATOM     24  C16 NON d   1     -39.459  18.856  -8.108  0.00  0.00     0.012 A 
ATOM     25  C18 NON d   1     -40.806  18.443  -6.114  0.00  0.00     0.027 A 
ENDBRANCH  14  16
ENDBRANCH   1  14
TORSDOF 9
ENDMDL
MODEL 2
REMARK VINA RESULT:   -14.995      1.360      2.383
REMARK INTER + INTRA:         -18.160
REMARK INTER:                 -17.680
REMARK INTRA:                  -0.480
REMARK CONF_INDEPENDENT:        2.685
REMARK UNBOUND:                -0.480
REMARK  9 active torsions:
REMARK  status: ('A' for Active; 'I' for Inactive)
REMARK    1  A    between atoms: C2_2  and  C3_3 
REMARK    2  A    between atoms: C2_2  and  C19_20 
REMARK    3  A    between atoms: C3_3  and  C4_4 
REMARK    4  A    between atoms: C4_4  and  C5_5 
REMARK    5  A    between atoms: C5_5  and  C6_6 
REMARK    6  A    between atoms: C6_6  and  C7_7 
REMARK    7  A    between atoms: C7_7  and  C8_8 
REMARK    8  A    between atoms: C8_8  and  C9_10 
REMARK       I    between atoms: C19_20  and  N1_22 
REMARK    9  A    between atoms: N1_22  and  O3_23 
ROOT
ATOM      1  C7  NON d   1     -43.856  17.859  -3.914  0.00  0.00     0.084 C 
ENDROOT
BRANCH   1   2
ATOM      2  C6  NON d   1     -45.279  17.554  -4.354  0.00  0.00     0.008 C 
BRANCH   2   3
ATOM      3  C5  NON d   1     -46.045  16.548  -3.516  0.00  0.00     0.000 C 
BRANCH   3   4
ATOM      4  C4  NON d   1     -47.233  17.192  -2.790  0.00  0.00     0.001 C 
BRANCH   4   5
ATOM      5  C3  NON d   1     -48.624  16.654  -3.185  0.00  0.00     0.013 C 
BRANCH   5   6
ATOM      6  C2  NON d   1     -48.885  15.574  -4.335  0.00  0.00     0.076 C 
ATOM      7  C1  NON d   1     -49.677  14.255  -4.393  0.00  0.00     0.020 C 
BRANCH   6   8
ATOM      8  C19 NON d   1     -47.880  15.918  -5.449  0.00  0.00     0.244 C 
ATOM      9  O2  NON d   1     -47.055  15.114  -5.883  0.00  0.00    -0.271 OA
ATOM     10  N1  NON d   1     -47.806  17.256  -5.769  0.00  0.00    -0.237 N 
ATOM     11  H22 NON d   1     -48.245  17.994  -5.232  0.00  0.00     0.197 HD
BRANCH  10  12
ATOM     12  O3  NON d   1     -46.691  17.631  -6.555  0.00  0.00    -0.287 OA
ATOM     13  H23 NON d   1     -46.647  16.904  -7.216  0.00  0.00     0.244 HD
ENDBRANCH  10  12
ENDBRANCH   6   8
ENDBRANCH   5   6
ENDBRANCH   4   5
ENDBRANCH   3   4
ENDBRANCH   2   3
ENDBRANCH   1   2
BRANCH   1  14
ATOM     14  C8  NON d   1     -42.776  17.212  -4.754  0.00  0.00     0.159 C 
ATOM     15  O1  NON d   1     -42.958  16.195  -5.416  0.00  0.00    -0.292 OA
BRANCH  14  16
ATOM     16  C9  NON d   1     -41.439  17.883  -4.794  0.00  0.00     0.011 A 
ATOM     17  C10 NON d   1     -40.978  18.383  -6.013  0.00  0.00     0.016 A 
ATOM     18  C11 NON d   1     -39.737  19.020  -6.086  0.00  0.00     0.013 A 
ATOM     19  C12 NON d   1     -38.932  19.154  -4.942  0.00  0.00    -0.026 A 
ATOM     20  C13 NON d   1     -37.679  19.785  -4.995  0.00  0.00     0.012 A 
ATOM     21  C17 NON d   1     -39.389  18.641  -3.710  0.00  0.00    -0.025 A 
ATOM     22  C14 NON d   1     -36.889  19.895  -3.848  0.00  0.00     0.001 A 
ATOM     23  C15 NON d   1     -37.339  19.378  -2.638  0.00  0.00     0.001 A 
ATOM     24  C16 NON d   1     -38.584  18.755  -2.566  0.00  0.00     0.012 A 
ATOM     25  C18 NON d   1     -40.644  18.017  -3.648  0.00  0.00     0.027 A 
ENDBRANCH  14  16
ENDBRANCH   1  14
TORSDOF 9
ENDMDL
MODEL 3
REMARK VINA RESULT:   -14.497      1.600      2.134
REMARK INTER + INTRA:         -18.440
REMARK INTER:                 -17.181
REMARK INTRA:                  -1.258
REMARK CONF_INDEPENDENT:        2.685
REMARK UNBOUND:                -1.258
REMARK  9 active torsions:
REMARK  status: ('A' for Active; 'I' for Inactive)
REMARK    1  A    between atoms: C2_2  and  C3_3 
REMARK    2  A    between atoms: C2_2  and  C19_20 
REMARK    3  A    between atoms: C3_3  and  C4_4 
REMARK    4  A    between atoms: C4_4  and  C5_5 
REMARK    5  A    between atoms: C5_5  and  C6_6 
REMARK    6  A    between atoms: C6_6  and  C7_7 
REMARK    7  A    between atoms: C7_7  and  C8_8 
REMARK    8  A    between atoms: C8_8  and  C9_10 
REMARK       I    between atoms: C19_20  and  N1_22 
REMARK    9  A    between atoms: N1_22  and  O3_23 
ROOT
ATOM      1  C7  NON d   1     -42.780  19.017  -5.020  0.00  0.00     0.084 C 
ENDROOT
BRANCH   1   2
ATOM      2  C6  NON d   1     -43.574  17.757  -4.714  0.00  0.00     0.008 C 
BRANCH   2   3
ATOM      3  C5  NON d   1     -45.056  17.938  -4.451  0.00  0.00     0.000 C 
BRANCH   3   4
ATOM      4  C4  NON d   1     -45.510  17.198  -3.186  0.00  0.00     0.001 C 
BRANCH   4   5
ATOM      5  C3  NON d   1     -47.023  17.255  -2.888  0.00  0.00     0.013 C 
BRANCH   5   6
ATOM      6  C2  NON d   1     -48.152  16.595  -3.809  0.00  0.00     0.076 C 
ATOM      7  C1  NON d   1     -49.531  15.975  -3.517  0.00  0.00     0.020 C 
BRANCH   6   8
ATOM      8  C19 NON d   1     -47.481  16.370  -5.176  0.00  0.00     0.244 C 
ATOM      9  O2  NON d   1     -47.778  17.009  -6.185  0.00  0.00    -0.271 OA
ATOM     10  N1  NON d   1     -46.687  15.247  -5.252  0.00  0.00    -0.237 N 
ATOM     11  H22 NON d   1     -46.651  14.527  -4.541  0.00  0.00     0.197 HD
BRANCH  10  12
ATOM     12  O3  NON d   1     -46.315  14.856  -6.560  0.00  0.00    -0.287 OA
ATOM     13  H23 NON d   1     -46.766  15.530  -7.117  0.00  0.00     0.244 HD
ENDBRANCH  10  12
ENDBRANCH   6   8
ENDBRANCH   5   6
ENDBRANCH   4   5
ENDBRANCH   3   4
ENDBRANCH   2   3
ENDBRANCH   1   2
BRANCH   1  14
ATOM     14  C8  NON d   1     -41.286  18.898  -4.807  0.00  0.00     0.159 C 
ATOM     15  O1  NON d   1     -40.787  18.438  -3.785  0.00  0.00    -0.292 OA
BRANCH  14  16
ATOM     16  C9  NON d   1     -40.394  19.333  -5.926  0.00  0.00     0.011 A 
ATOM     17  C10 NON d   1     -39.130  18.752  -6.039  0.00  0.00     0.016 A 
ATOM     18  C11 NON d   1     -38.273  19.130  -7.075  0.00  0.00     0.013 A 
ATOM     19  C12 NON d   1     -38.663  20.107  -8.007  0.00  0.00    -0.026 A 
ATOM     20  C13 NON d   1     -37.815  20.507  -9.052  0.00  0.00     0.012 A 
ATOM     21  C17 NON d   1     -39.935  20.705  -7.891  0.00  0.00    -0.025 A 
ATOM     22  C14 NON d   1     -38.217  21.489  -9.959  0.00  0.00     0.001 A 
ATOM     23  C15 NON d   1     -39.469  22.084  -9.834  0.00  0.00     0.001 A 
ATOM     24  C16 NON d   1     -40.326  21.694  -8.807  0.00  0.00     0.012 A 
ATOM     25  C18 NON d   1     -40.792  20.304  -6.855  0.00  0.00     0.027 A 
ENDBRANCH  14  16
ENDBRANCH   1  14
TORSDOF 9
ENDMDL
MODEL 4
REMARK VINA RESULT:   -14.115      3.622      5.479
REMARK INTER + INTRA:         -18.342
REMARK INTER:                 -16.800
REMARK INTRA:                  -1.542
REMARK CONF_INDEPENDENT:        2.685
REMARK UNBOUND:                -1.542
REMARK  9 active torsions:
REMARK  status: ('A' for Active; 'I' for Inactive)
REMARK    1  A    between atoms: C2_2  and  C3_3 
REMARK    2  A    between atoms: C2_2  and  C19_20 
REMARK    3  A    between atoms: C3_3  and  C4_4 
REMARK    4  A    between atoms: C4_4  and  C5_5 
REMARK    5  A    between atoms: C5_5  and  C6_6 
REMARK    6  A    between atoms: C6_6  and  C7_7 
REMARK    7  A    between atoms: C7_7  and  C8_8 
REMARK    8  A    between atoms: C8_8  and  C9_10 
REMARK       I    between atoms: C19_20  and  N1_22 
REMARK    9  A    between atoms: N1_22  and  O3_23 
ROOT
ATOM      1  C7  NON d   1     -40.293  17.861  -2.532  0.00  0.00     0.084 C 
ENDROOT
BRANCH   1   2
ATOM      2  C6  NON d   1     -41.481  17.238  -3.248  0.00  0.00     0.008 C 
BRANCH   2   3
ATOM      3  C5  NON d   1     -41.996  17.975  -4.469  0.00  0.00     0.000 C 
BRANCH   3   4
ATOM      4  C4  NON d   1     -43.451  17.608  -4.790  0.00  0.00     0.001 C 
BRANCH   4   5
ATOM      5  C3  NON d   1     -44.352  17.330  -3.569  0.00  0.00     0.013 C 
BRANCH   5   6
ATOM      6  C2  NON d   1     -45.945  17.199  -3.630  0.00  0.00     0.076 C 
ATOM      7  C1  NON d   1     -47.057  17.267  -2.568  0.00  0.00     0.020 C 
BRANCH   6   8
ATOM      8  C19 NON d   1     -46.252  16.638  -5.031  0.00  0.00     0.244 C 
ATOM      9  O2  NON d   1     -46.169  17.312  -6.058  0.00  0.00    -0.271 OA
ATOM     10  N1  NON d   1     -46.850  15.398  -5.039  0.00  0.00    -0.237 N 
ATOM     11  H22 NON d   1     -47.213  14.936  -4.214  0.00  0.00     0.197 HD
BRANCH  10  12
ATOM     12  O3  NON d   1     -47.414  15.005  -6.276  0.00  0.00    -0.287 OA
ATOM     13  H23 NON d   1     -47.087  15.704  -6.886  0.00  0.00     0.244 HD
ENDBRANCH  10  12
ENDBRANCH   6   8
ENDBRANCH   5   6
ENDBRANCH   4   5
ENDBRANCH   3   4
ENDBRANCH   2   3
ENDBRANCH   1   2
BRANCH   1  14
ATOM     14  C8  NON d   1     -39.740  19.112  -3.181  0.00  0.00     0.159 C 
ATOM     15  O1  NON d   1     -39.039  19.092  -4.188  0.00  0.00    -0.292 OA
BRANCH  14  16
ATOM     16  C9  NON d   1     -40.111  20.426  -2.572  0.00  0.00     0.011 A 
ATOM     17  C10 NON d   1     -40.606  21.433  -3.402  0.00  0.00     0.016 A 
ATOM     18  C11 NON d   1     -40.968  22.671  -2.866  0.00  0.00     0.013 A 
ATOM     19  C12 NON d   1     -40.826  22.926  -1.491  0.00  0.00    -0.026 A 
ATOM     20  C13 NON d   1     -41.177  24.165  -0.933  0.00  0.00     0.012 A 
ATOM     21  C17 NON d   1     -40.316  21.915  -0.650  0.00  0.00    -0.025 A 
ATOM     22  C14 NON d   1     -41.015  24.402   0.434  0.00  0.00     0.001 A 
ATOM     23  C15 NON d   1     -40.501  23.406   1.258  0.00  0.00     0.001 A 
ATOM     24  C16 NON d   1     -40.154  22.167   0.722  0.00  0.00     0.012 A 
ATOM     25  C18 NON d   1     -39.972  20.671  -1.199  0.00  0.00     0.027 A 
ENDBRANCH  14  16
ENDBRANCH   1  14
TORSDOF 9
ENDMDL
MODEL 5
REMARK VINA RESULT:   -14.029      1.723      2.736
REMARK INTER + INTRA:         -18.322
REMARK INTER:                 -16.714
REMARK INTRA:                  -1.607
REMARK CONF_INDEPENDENT:        2.685
REMARK UNBOUND:                -1.607
REMARK  9 active torsions:
REMARK  status: ('A' for Active; 'I' for Inactive)
REMARK    1  A    between atoms: C2_2  and  C3_3 
REMARK    2  A    between atoms: C2_2  and  C19_20 
REMARK    3  A    between atoms: C3_3  and  C4_4 
REMARK    4  A    between atoms: C4_4  and  C5_5 
REMARK    5  A    between atoms: C5_5  and  C6_6 
REMARK    6  A    between atoms: C6_6  and  C7_7 
REMARK    7  A    between atoms: C7_7  and  C8_8 
REMARK    8  A    between atoms: C8_8  and  C9_10 
REMARK       I    between atoms: C19_20  and  N1_22 
REMARK    9  A    between atoms: N1_22  and  O3_23 
ROOT
ATOM      1  C7  NON d   1     -40.921  18.026  -2.213  0.00  0.00     0.084 C 
ENDROOT
BRANCH   1   2
ATOM      2  C6  NON d   1     -42.107  18.322  -3.118  0.00  0.00     0.008 C 
BRANCH   2   3
ATOM      3  C5  NON d   1     -42.205  17.506  -4.392  0.00  0.00     0.000 C 
BRANCH   3   4
ATOM      4  C4  NON d   1     -43.595  16.883  -4.570  0.00  0.00     0.001 C 
BRANCH   4   5
ATOM      5  C3  NON d   1     -44.629  17.243  -3.482  0.00  0.00     0.013 C 
BRANCH   5   6
ATOM      6  C2  NON d   1     -46.211  17.074  -3.645  0.00  0.00     0.076 C 
ATOM      7  C1  NON d   1     -47.382  17.024  -2.647  0.00  0.00     0.020 C 
BRANCH   6   8
ATOM      8  C19 NON d   1     -46.423  16.625  -5.103  0.00  0.00     0.244 C 
ATOM      9  O2  NON d   1     -46.393  17.402  -6.057  0.00  0.00    -0.271 OA
ATOM     10  N1  NON d   1     -46.878  15.334  -5.250  0.00  0.00    -0.237 N 
ATOM     11  H22 NON d   1     -47.205  14.756  -4.485  0.00  0.00     0.197 HD
BRANCH  10  12
ATOM     12  O3  NON d   1     -47.367  15.007  -6.537  0.00  0.00    -0.287 OA
ATOM     13  H23 NON d   1     -47.372  15.881  -6.987  0.00  0.00     0.244 HD
ENDBRANCH  10  12
ENDBRANCH   6   8
ENDBRANCH   5   6
ENDBRANCH   4   5
ENDBRANCH   3   4
ENDBRANCH   2   3
ENDBRANCH   1   2
BRANCH   1  14
ATOM     14  C8  NON d   1     -39.587  18.527  -2.725  0.00  0.00     0.159 C 
ATOM     15  O1  NON d   1     -38.519  18.279  -2.172  0.00  0.00    -0.292 OA
BRANCH  14  16
ATOM     16  C9  NON d   1     -39.590  19.327  -3.988  0.00  0.00     0.011 A 
ATOM     17  C10 NON d   1     -39.784  20.707  -3.906  0.00  0.00     0.016 A 
ATOM     18  C11 NON d   1     -39.787  21.486  -5.065  0.00  0.00     0.013 A 
ATOM     19  C12 NON d   1     -39.610  20.894  -6.327  0.00  0.00    -0.026 A 
ATOM     20  C13 NON d   1     -39.616  21.658  -7.505  0.00  0.00     0.012 A 
ATOM     21  C17 NON d   1     -39.424  19.499  -6.417  0.00  0.00    -0.025 A 
ATOM     22  C14 NON d   1     -39.452  21.047  -8.750  0.00  0.00     0.001 A 
ATOM     23  C15 NON d   1     -39.279  19.669  -8.834  0.00  0.00     0.001 A 
ATOM     24  C16 NON d   1     -39.263  18.897  -7.674  0.00  0.00     0.012 A 
ATOM     25  C18 NON d   1     -39.407  18.730  -5.243  0.00  0.00     0.027 A 
ENDBRANCH  14  16
ENDBRANCH   1  14
TORSDOF 9
ENDMDL
MODEL 6
REMARK VINA RESULT:   -14.018      2.932      4.030
REMARK INTER + INTRA:         -18.021
REMARK INTER:                 -16.702
REMARK INTRA:                  -1.318
REMARK CONF_INDEPENDENT:        2.685
REMARK UNBOUND:                -1.318
REMARK  9 active torsions:
REMARK  status: ('A' for Active; 'I' for Inactive)
REMARK    1  A    between atoms: C2_2  and  C3_3 
REMARK    2  A    between atoms: C2_2  and  C19_20 
REMARK    3  A    between atoms: C3_3  and  C4_4 
REMARK    4  A    between atoms: C4_4  and  C5_5 
REMARK    5  A    between atoms: C5_5  and  C6_6 
REMARK    6  A    between atoms: C6_6  and  C7_7 
REMARK    7  A    between atoms: C7_7  and  C8_8 
REMARK    8  A    between atoms: C8_8  and  C9_10 
REMARK       I    between atoms: C19_20  and  N1_22 
REMARK    9  A    between atoms: N1_22  and  O3_23 
ROOT
ATOM      1  C7  NON d   1     -41.068  19.670  -5.335  0.00  0.00     0.084 C 
ENDROOT
BRANCH   1   2
ATOM      2  C6  NON d   1     -41.312  18.380  -4.568  0.00  0.00     0.008 C 
BRANCH   2   3
ATOM      3  C5  NON d   1     -42.454  17.510  -5.056  0.00  0.00     0.000 C 
BRANCH   3   4
ATOM      4  C4  NON d   1     -43.823  18.110  -4.709  0.00  0.00     0.001 C 
BRANCH   4   5
ATOM      5  C3  NON d   1     -44.589  17.406  -3.569  0.00  0.00     0.013 C 
BRANCH   5   6
ATOM      6  C2  NON d   1     -46.167  17.147  -3.563  0.00  0.00     0.076 C 
ATOM      7  C1  NON d   1     -47.234  17.119  -2.454  0.00  0.00     0.020 C 
BRANCH   6   8
ATOM      8  C19 NON d   1     -46.489  16.574  -4.956  0.00  0.00     0.244 C 
ATOM      9  O2  NON d   1     -46.330  17.209  -5.998  0.00  0.00    -0.271 OA
ATOM     10  N1  NON d   1     -47.186  15.386  -4.945  0.00  0.00    -0.237 N 
ATOM     11  H22 NON d   1     -47.603  14.978  -4.117  0.00  0.00     0.197 HD
BRANCH  10  12
ATOM     12  O3  NON d   1     -47.753  15.005  -6.184  0.00  0.00    -0.287 OA
ATOM     13  H23 NON d   1     -47.868  15.870  -6.637  0.00  0.00     0.244 HD
ENDBRANCH  10  12
ENDBRANCH   6   8
ENDBRANCH   5   6
ENDBRANCH   4   5
ENDBRANCH   3   4
ENDBRANCH   2   3
ENDBRANCH   1   2
BRANCH   1  14
ATOM     14  C8  NON d   1     -40.455  19.490  -6.707  0.00  0.00     0.159 C 
ATOM     15  O1  NON d   1     -40.243  18.391  -7.210  0.00  0.00    -0.292 OA
BRANCH  14  16
ATOM     16  C9  NON d   1     -40.137  20.727  -7.487  0.00  0.00     0.011 A 
ATOM     17  C10 NON d   1     -40.194  21.961  -6.838  0.00  0.00     0.016 A 
ATOM     18  C11 NON d   1     -39.898  23.135  -7.534  0.00  0.00     0.013 A 
ATOM     19  C12 NON d   1     -39.553  23.093  -8.896  0.00  0.00    -0.026 A 
ATOM     20  C13 NON d   1     -39.258  24.262  -9.616  0.00  0.00     0.012 A 
ATOM     21  C17 NON d   1     -39.504  21.849  -9.559  0.00  0.00    -0.025 A 
ATOM     22  C14 NON d   1     -38.931  24.198 -10.972  0.00  0.00     0.001 A 
ATOM     23  C15 NON d   1     -38.895  22.970 -11.625  0.00  0.00     0.001 A 
ATOM     24  C16 NON d   1     -39.178  21.800 -10.923  0.00  0.00     0.012 A 
ATOM     25  C18 NON d   1     -39.789  20.676  -8.844  0.00  0.00     0.027 A 
ENDBRANCH  14  16
ENDBRANCH   1  14
TORSDOF 9
ENDMDL
MODEL 7
REMARK VINA RESULT:   -13.884      3.918      5.500
REMARK INTER + INTRA:         -17.928
REMARK INTER:                 -16.568
REMARK INTRA:                  -1.359
REMARK CONF_INDEPENDENT:        2.685
REMARK UNBOUND:                -1.359
REMARK  9 active torsions:
REMARK  status: ('A' for Active; 'I' for Inactive)
REMARK    1  A    between atoms: C2_2  and  C3_3 
REMARK    2  A    between atoms: C2_2  and  C19_20 
REMARK    3  A    between atoms: C3_3  and  C4_4 
REMARK    4  A    between atoms: C4_4  and  C5_5 
REMARK    5  A    between atoms: C5_5  and  C6_6 
REMARK    6  A    between atoms: C6_6  and  C7_7 
REMARK    7  A    between atoms: C7_7  and  C8_8 
REMARK    8  A    between atoms: C8_8  and  C9_10 
REMARK       I    between atoms: C19_20  and  N1_22 
REMARK    9  A    between atoms: N1_22  and  O3_23 
ROOT
ATOM      1  C7  NON d   1     -40.510  19.429  -4.666  0.00  0.00     0.084 C 
ENDROOT
BRANCH   1   2
ATOM      2  C6  NON d   1     -41.627  18.664  -3.973  0.00  0.00     0.008 C 
BRANCH   2   3
ATOM      3  C5  NON d   1     -42.801  18.251  -4.840  0.00  0.00     0.000 C 
BRANCH   3   4
ATOM      4  C4  NON d   1     -43.503  17.000  -4.297  0.00  0.00     0.001 C 
BRANCH   4   5
ATOM      5  C3  NON d   1     -44.558  17.252  -3.200  0.00  0.00     0.013 C 
BRANCH   5   6
ATOM      6  C2  NON d   1     -46.138  17.117  -3.413  0.00  0.00     0.076 C 
ATOM      7  C1  NON d   1     -47.348  17.199  -2.466  0.00  0.00     0.020 C 
BRANCH   6   8
ATOM      8  C19 NON d   1     -46.307  16.534  -4.829  0.00  0.00     0.244 C 
ATOM      9  O2  NON d   1     -45.984  17.142  -5.850  0.00  0.00    -0.271 OA
ATOM     10  N1  NON d   1     -47.057  15.381  -4.893  0.00  0.00    -0.237 N 
ATOM     11  H22 NON d   1     -47.596  15.009  -4.121  0.00  0.00     0.197 HD
BRANCH  10  12
ATOM     12  O3  NON d   1     -47.479  15.005  -6.190  0.00  0.00    -0.287 OA
ATOM     13  H23 NON d   1     -46.966  15.618  -6.763  0.00  0.00     0.244 HD
ENDBRANCH  10  12
ENDBRANCH   6   8
ENDBRANCH   5   6
ENDBRANCH   4   5
ENDBRANCH   3   4
ENDBRANCH   2   3
ENDBRANCH   1   2
BRANCH   1  14
ATOM     14  C8  NON d   1     -40.547  20.930  -4.469  0.00  0.00     0.159 C 
ATOM     15  O1  NON d   1     -40.695  21.726  -5.391  0.00  0.00    -0.292 OA
BRANCH  14  16
ATOM     16  C9  NON d   1     -40.435  21.444  -3.068  0.00  0.00     0.011 A 
ATOM     17  C10 NON d   1     -40.067  20.556  -2.057  0.00  0.00     0.016 A 
ATOM     18  C11 NON d   1     -39.947  21.003  -0.739  0.00  0.00     0.013 A 
ATOM     19  C12 NON d   1     -40.209  22.345  -0.411  0.00  0.00    -0.026 A 
ATOM     20  C13 NON d   1     -40.101  22.813   0.908  0.00  0.00     0.012 A 
ATOM     21  C17 NON d   1     -40.592  23.244  -1.428  0.00  0.00    -0.025 A 
ATOM     22  C14 NON d   1     -40.379  24.147   1.214  0.00  0.00     0.001 A 
ATOM     23  C15 NON d   1     -40.768  25.027   0.210  0.00  0.00     0.001 A 
ATOM     24  C16 NON d   1     -40.873  24.581  -1.106  0.00  0.00     0.012 A 
ATOM     25  C18 NON d   1     -40.693  22.784  -2.750  0.00  0.00     0.027 A 
ENDBRANCH  14  16
ENDBRANCH   1  14
TORSDOF 9
ENDMDL
MODEL 8
REMARK VINA RESULT:   -13.785      3.562      5.199
REMARK INTER + INTRA:         -17.943
REMARK INTER:                 -16.470
REMARK INTRA:                  -1.473
REMARK CONF_INDEPENDENT:        2.685
REMARK UNBOUND:                -1.473
REMARK  9 active torsions:
REMARK  status: ('A' for Active; 'I' for Inactive)
REMARK    1  A    between atoms: C2_2  and  C3_3 
REMARK    2  A    between atoms: C2_2  and  C19_20 
REMARK    3  A    between atoms: C3_3  and  C4_4 
REMARK    4  A    between atoms: C4_4  and  C5_5 
REMARK    5  A    between atoms: C5_5  and  C6_6 
REMARK    6  A    between atoms: C6_6  and  C7_7 
REMARK    7  A    between atoms: C7_7  and  C8_8 
REMARK    8  A    between atoms: C8_8  and  C9_10 
REMARK       I    between atoms: C19_20  and  N1_22 
REMARK    9  A    between atoms: N1_22  and  O3_23 
ROOT
ATOM      1  C7  NON d   1     -40.137  19.116  -5.200  0.00  0.00     0.084 C 
ENDROOT
BRANCH   1   2
ATOM      2  C6  NON d   1     -41.278  18.509  -4.399  0.00  0.00     0.008 C 
BRANCH   2   3
ATOM      3  C5  NON d   1     -42.618  18.405  -5.103  0.00  0.00     0.000 C 
BRANCH   3   4
ATOM      4  C4  NON d   1     -43.318  17.072  -4.812  0.00  0.00     0.001 C 
BRANCH   4   5
ATOM      5  C3  NON d   1     -44.284  17.076  -3.608  0.00  0.00     0.013 C 
BRANCH   5   6
ATOM      6  C2  NON d   1     -45.878  17.117  -3.727  0.00  0.00     0.076 C 
ATOM      7  C1  NON d   1     -47.017  17.244  -2.698  0.00  0.00     0.020 C 
BRANCH   6   8
ATOM      8  C19 NON d   1     -46.189  16.669  -5.167  0.00  0.00     0.244 C 
ATOM      9  O2  NON d   1     -46.295  17.456  -6.108  0.00  0.00    -0.271 OA
ATOM     10  N1  NON d   1     -46.571  15.352  -5.293  0.00  0.00    -0.237 N 
ATOM     11  H22 NON d   1     -46.790  14.746  -4.512  0.00  0.00     0.197 HD
BRANCH  10  12
ATOM     12  O3  NON d   1     -47.150  15.005  -6.537  0.00  0.00    -0.287 OA
ATOM     13  H23 NON d   1     -46.871  15.752  -7.113  0.00  0.00     0.244 HD
ENDBRANCH  10  12
ENDBRANCH   6   8
ENDBRANCH   5   6
ENDBRANCH   4   5
ENDBRANCH   3   4
ENDBRANCH   2   3
ENDBRANCH   1   2
BRANCH   1  14
ATOM     14  C8  NON d   1     -40.303  20.583  -5.536  0.00  0.00     0.159 C 
ATOM     15  O1  NON d   1     -40.402  21.002  -6.685  0.00  0.00    -0.292 OA
BRANCH  14  16
ATOM     16  C9  NON d   1     -40.387  21.546  -4.395  0.00  0.00     0.011 A 
ATOM     17  C10 NON d   1     -40.707  22.878  -4.664  0.00  0.00     0.016 A 
ATOM     18  C11 NON d   1     -40.800  23.803  -3.622  0.00  0.00     0.013 A 
ATOM     19  C12 NON d   1     -40.559  23.412  -2.294  0.00  0.00    -0.026 A 
ATOM     20  C13 NON d   1     -40.641  24.328  -1.232  0.00  0.00     0.012 A 
ATOM     21  C17 NON d   1     -40.225  22.070  -2.017  0.00  0.00    -0.025 A 
ATOM     22  C14 NON d   1     -40.384  23.921   0.079  0.00  0.00     0.001 A 
ATOM     23  C15 NON d   1     -40.044  22.599   0.346  0.00  0.00     0.001 A 
ATOM     24  C16 NON d   1     -39.966  21.676  -0.695  0.00  0.00     0.012 A 
ATOM     25  C18 NON d   1     -40.151  21.148  -3.072  0.00  0.00     0.027 A 
ENDBRANCH  14  16
ENDBRANCH   1  14
TORSDOF 9
ENDMDL
MODEL 9
REMARK VINA RESULT:   -13.647      3.344      4.554
REMARK INTER + INTRA:         -17.884
REMARK INTER:                 -16.332
REMARK INTRA:                  -1.552
REMARK CONF_INDEPENDENT:        2.685
REMARK UNBOUND:                -1.552
REMARK  9 active torsions:
REMARK  status: ('A' for Active; 'I' for Inactive)
REMARK    1  A    between atoms: C2_2  and  C3_3 
REMARK    2  A    between atoms: C2_2  and  C19_20 
REMARK    3  A    between atoms: C3_3  and  C4_4 
REMARK    4  A    between atoms: C4_4  and  C5_5 
REMARK    5  A    between atoms: C5_5  and  C6_6 
REMARK    6  A    between atoms: C6_6  and  C7_7 
REMARK    7  A    between atoms: C7_7  and  C8_8 
REMARK    8  A    between atoms: C8_8  and  C9_10 
REMARK       I    between atoms: C19_20  and  N1_22 
REMARK    9  A    between atoms: N1_22  and  O3_23 
ROOT
ATOM      1  C7  NON d   1     -40.363  17.760  -2.646  0.00  0.00     0.084 C 
ENDROOT
BRANCH   1   2
ATOM      2  C6  NON d   1     -41.844  17.691  -2.985  0.00  0.00     0.008 C 
BRANCH   2   3
ATOM      3  C5  NON d   1     -42.212  17.865  -4.446  0.00  0.00     0.000 C 
BRANCH   3   4
ATOM      4  C4  NON d   1     -43.730  17.928  -4.652  0.00  0.00     0.001 C 
BRANCH   4   5
ATOM      5  C3  NON d   1     -44.584  17.425  -3.468  0.00  0.00     0.013 C 
BRANCH   5   6
ATOM      6  C2  NON d   1     -46.167  17.209  -3.521  0.00  0.00     0.076 C 
ATOM      7  C1  NON d   1     -47.274  17.198  -2.451  0.00  0.00     0.020 C 
BRANCH   6   8
ATOM      8  C19 NON d   1     -46.454  16.659  -4.930  0.00  0.00     0.244 C 
ATOM      9  O2  NON d   1     -46.392  17.349  -5.948  0.00  0.00    -0.271 OA
ATOM     10  N1  NON d   1     -47.013  15.399  -4.956  0.00  0.00    -0.237 N 
ATOM     11  H22 NON d   1     -47.361  14.915  -4.138  0.00  0.00     0.197 HD
BRANCH  10  12
ATOM     12  O3  NON d   1     -47.561  15.006  -6.200  0.00  0.00    -0.287 OA
ATOM     13  H23 NON d   1     -47.038  15.540  -6.838  0.00  0.00     0.244 HD
ENDBRANCH  10  12
ENDBRANCH   6   8
ENDBRANCH   5   6
ENDBRANCH   4   5
ENDBRANCH   3   4
ENDBRANCH   2   3
ENDBRANCH   1   2
BRANCH   1  14
ATOM     14  C8  NON d   1     -39.598  18.862  -3.348  0.00  0.00     0.159 C 
ATOM     15  O1  NON d   1     -38.777  18.650  -4.235  0.00  0.00    -0.292 OA
BRANCH  14  16
ATOM     16  C9  NON d   1     -39.902  20.272  -2.951  0.00  0.00     0.011 A 
ATOM     17  C10 NON d   1     -39.997  20.580  -1.593  0.00  0.00     0.016 A 
ATOM     18  C11 NON d   1     -40.273  21.887  -1.187  0.00  0.00     0.013 A 
ATOM     19  C12 NON d   1     -40.473  22.905  -2.136  0.00  0.00    -0.026 A 
ATOM     20  C13 NON d   1     -40.759  24.224  -1.749  0.00  0.00     0.012 A 
ATOM     21  C17 NON d   1     -40.390  22.597  -3.509  0.00  0.00    -0.025 A 
ATOM     22  C14 NON d   1     -40.968  25.217  -2.708  0.00  0.00     0.001 A 
ATOM     23  C15 NON d   1     -40.895  24.906  -4.062  0.00  0.00     0.001 A 
ATOM     24  C16 NON d   1     -40.606  23.603  -4.463  0.00  0.00     0.012 A 
ATOM     25  C18 NON d   1     -40.095  21.283  -3.902  0.00  0.00     0.027 A 
ENDBRANCH  14  16
ENDBRANCH   1  14
TORSDOF 9
ENDMDL
