MODEL 1
REMARK VINA RESULT:   -29.629      0.000      0.000
REMARK INTER + INTRA:         -36.609
REMARK INTER:                 -32.911
REMARK INTRA:                  -3.698
REMARK CONF_INDEPENDENT:        3.281
REMARK UNBOUND:                -3.698
REMARK  11 active torsions:
REMARK  status: ('A' for Active; 'I' for Inactive)
REMARK    1  A    between atoms: C2_2  and  C3_4 
REMARK    2  A    between atoms: C3_4  and  C4_5 
REMARK    3  A    between atoms: C4_5  and  C5_6 
REMARK    4  A    between atoms: C5_6  and  C6_7 
REMARK    5  A    between atoms: C6_7  and  C7_8 
REMARK    6  A    between atoms: C8_9  and  C7_8 
REMARK    7  A    between atoms: C8_9  and  N1_10 
REMARK    8  A    between atoms: C8_9  and  C16_22 
REMARK    9  A    between atoms: N1_10  and  S1_11 
REMARK   10  A    between atoms: S1_11  and  C9_14 
REMARK   11  A    between atoms: C17_24  and  C18_25 
ROOT
ATOM      1  C9  NON d   1     -42.724  18.638  -4.765  0.00  0.00     0.081 A 
ATOM      2  C10 NON d   1     -42.316  17.796  -3.700  0.00  0.00     0.025 A 
ATOM      3  C11 NON d   1     -43.108  16.752  -3.199  0.00  0.00     0.003 A 
ATOM      4  C12 NON d   1     -44.358  16.506  -3.740  0.00  0.00     0.023 A 
ATOM      5  C13 NON d   1     -44.814  17.298  -4.789  0.00  0.00     0.046 A 
ATOM      6  C14 NON d   1     -46.117  17.066  -5.350  0.00  0.00     0.099 C 
ATOM      7  N2  NON d   1     -47.163  16.880  -5.809  0.00  0.00    -0.191 NA
ATOM      8  C15 NON d   1     -44.000  18.329  -5.299  0.00  0.00     0.048 A 
ENDROOT
BRANCH   1   9
ATOM      9  S1  NON d   1     -41.904  19.757  -5.431  0.00  0.00     0.259 S 
ATOM     10  O2  NON d   1     -42.182  20.697  -4.337  0.00  0.00    -0.201 OA
ATOM     11  O3  NON d   1     -40.659  18.971  -5.396  0.00  0.00    -0.201 OA
BRANCH   9  12
ATOM     12  N1  NON d   1     -41.082  20.876  -6.098  0.00  0.00    -0.303 N 
ATOM     13  H15 NON d   1     -41.114  20.687  -7.105  0.00  0.00     0.173 HD
BRANCH  12  14
ATOM     14  C8  NON d   1     -39.785  21.379  -5.436  0.00  0.00     0.162 C 
BRANCH  14  15
ATOM     15  C7  NON d   1     -38.314  21.528  -6.004  0.00  0.00     0.034 C 
BRANCH  15  16
ATOM     16  C6  NON d   1     -37.318  20.347  -5.826  0.00  0.00     0.002 C 
BRANCH  16  17
ATOM     17  C5  NON d   1     -37.850  18.954  -6.221  0.00  0.00     0.000 C 
BRANCH  17  18
ATOM     18  C4  NON d   1     -37.788  18.596  -7.707  0.00  0.00     0.007 C 
BRANCH  18  19
ATOM     19  C3  NON d   1     -38.036  19.784  -8.633  0.00  0.00     0.077 C 
BRANCH  19  20
ATOM     20  C2  NON d   1     -39.494  20.191  -8.723  0.00  0.00     0.123 C 
ATOM     21  C1  NON d   1     -39.776  21.607  -9.143  0.00  0.00     0.091 C 
ATOM     22  O1  NON d   1     -40.418  19.407  -8.508  0.00  0.00    -0.298 OA
ENDBRANCH  19  20
ENDBRANCH  18  19
ENDBRANCH  17  18
ENDBRANCH  16  17
ENDBRANCH  15  16
ENDBRANCH  14  15
BRANCH  14  23
ATOM     23  C16 NON d   1     -39.702  21.506  -3.904  0.00  0.00     0.128 C 
ATOM     24  N3  NON d   1     -39.587  22.614  -3.187  0.00  0.00    -0.231 NA
ATOM     25  C17 NON d   1     -39.772  22.254  -1.867  0.00  0.00     0.084 C 
ATOM     26  C24 NON d   1     -39.832  20.882  -1.763  0.00  0.00     0.122 C 
ATOM     27  N4  NON d   1     -39.956  20.452  -3.052  0.00  0.00    -0.350 N 
ATOM     28  H26 NON d   1     -40.213  19.518  -3.350  0.00  0.00     0.166 HD
BRANCH  25  29
ATOM     29  C18 NON d   1     -40.051  23.177  -0.778  0.00  0.00    -0.006 A 
ATOM     30  C19 NON d   1     -40.614  24.430  -1.065  0.00  0.00     0.014 A 
ATOM     31  C20 NON d   1     -41.036  25.275  -0.033  0.00  0.00     0.001 A 
ATOM     32  C21 NON d   1     -40.889  24.882   1.295  0.00  0.00     0.000 A 
ATOM     33  C22 NON d   1     -40.312  23.649   1.595  0.00  0.00     0.001 A 
ATOM     34  C23 NON d   1     -39.896  22.801   0.565  0.00  0.00     0.014 A 
ENDBRANCH  25  29
ENDBRANCH  14  23
ENDBRANCH  12  14
ENDBRANCH   9  12
ENDBRANCH   1   9
TORSDOF 11
ENDMDL
MODEL 2
REMARK VINA RESULT:   -28.400      1.129      2.359
REMARK INTER + INTRA:         -35.600
REMARK INTER:                 -31.681
REMARK INTRA:                  -3.919
REMARK CONF_INDEPENDENT:        3.281
REMARK UNBOUND:                -3.919
REMARK  11 active torsions:
REMARK  status: ('A' for Active; 'I' for Inactive)
REMARK    1  A    between atoms: C2_2  and  C3_4 
REMARK    2  A    between atoms: C3_4  and  C4_5 
REMARK    3  A    between atoms: C4_5  and  C5_6 
REMARK    4  A    between atoms: C5_6  and  C6_7 
REMARK    5  A    between atoms: C6_7  and  C7_8 
REMARK    6  A    between atoms: C8_9  and  C7_8 
REMARK    7  A    between atoms: C8_9  and  N1_10 
REMARK    8  A    between atoms: C8_9  and  C16_22 
REMARK    9  A    between atoms: N1_10  and  S1_11 
REMARK   10  A    between atoms: S1_11  and  C9_14 
REMARK   11  A    between atoms: C17_24  and  C18_25 
ROOT
ATOM      1  C9  NON d   1     -42.769  18.723  -4.909  0.00  0.00     0.081 A 
ATOM      2  C10 NON d   1     -42.375  17.997  -3.758  0.00  0.00     0.025 A 
ATOM      3  C11 NON d   1     -43.176  17.013  -3.159  0.00  0.00     0.003 A 
ATOM      4  C12 NON d   1     -44.421  16.715  -3.683  0.00  0.00     0.023 A 
ATOM      5  C13 NON d   1     -44.864  17.395  -4.814  0.00  0.00     0.046 A 
ATOM      6  C14 NON d   1     -46.162  17.110  -5.361  0.00  0.00     0.099 C 
ATOM      7  N2  NON d   1     -47.204  16.880  -5.810  0.00  0.00    -0.191 NA
ATOM      8  C15 NON d   1     -44.040  18.365  -5.421  0.00  0.00     0.048 A 
ENDROOT
BRANCH   1   9
ATOM      9  S1  NON d   1     -41.937  19.764  -5.681  0.00  0.00     0.259 S 
ATOM     10  O2  NON d   1     -40.809  18.836  -5.841  0.00  0.00    -0.201 OA
ATOM     11  O3  NON d   1     -42.931  19.870  -6.762  0.00  0.00    -0.201 OA
BRANCH   9  12
ATOM     12  N1  NON d   1     -41.106  20.806  -6.453  0.00  0.00    -0.303 N 
ATOM     13  H15 NON d   1     -40.952  20.408  -7.385  0.00  0.00     0.173 HD
BRANCH  12  14
ATOM     14  C8  NON d   1     -39.983  21.580  -5.737  0.00  0.00     0.162 C 
BRANCH  14  15
ATOM     15  C7  NON d   1     -38.622  22.183  -6.278  0.00  0.00     0.034 C 
BRANCH  15  16
ATOM     16  C6  NON d   1     -37.787  21.355  -7.296  0.00  0.00     0.002 C 
BRANCH  16  17
ATOM     17  C5  NON d   1     -38.044  19.834  -7.298  0.00  0.00     0.000 C 
BRANCH  17  18
ATOM     18  C4  NON d   1     -37.189  18.996  -6.345  0.00  0.00     0.007 C 
BRANCH  18  19
ATOM     19  C3  NON d   1     -37.303  19.423  -4.884  0.00  0.00     0.077 C 
BRANCH  19  20
ATOM     20  C2  NON d   1     -37.880  18.349  -3.981  0.00  0.00     0.123 C 
ATOM     21  C1  NON d   1     -36.954  17.765  -2.950  0.00  0.00     0.091 C 
ATOM     22  O1  NON d   1     -39.054  17.988  -4.042  0.00  0.00    -0.298 OA
ENDBRANCH  19  20
ENDBRANCH  18  19
ENDBRANCH  17  18
ENDBRANCH  16  17
ENDBRANCH  15  16
ENDBRANCH  14  15
BRANCH  14  23
ATOM     23  C16 NON d   1     -39.906  21.578  -4.199  0.00  0.00     0.128 C 
ATOM     24  N3  NON d   1     -39.981  22.617  -3.381  0.00  0.00    -0.231 NA
ATOM     25  C17 NON d   1     -40.083  22.109  -2.101  0.00  0.00     0.084 C 
ATOM     26  C24 NON d   1     -39.897  20.745  -2.126  0.00  0.00     0.122 C 
ATOM     27  N4  NON d   1     -39.959  20.421  -3.450  0.00  0.00    -0.350 N 
ATOM     28  H26 NON d   1     -40.050  19.487  -3.836  0.00  0.00     0.166 HD
BRANCH  25  29
ATOM     29  C18 NON d   1     -40.509  22.863  -0.932  0.00  0.00    -0.006 A 
ATOM     30  C19 NON d   1     -40.204  22.377   0.349  0.00  0.00     0.014 A 
ATOM     31  C20 NON d   1     -40.461  23.152   1.485  0.00  0.00     0.001 A 
ATOM     32  C21 NON d   1     -41.036  24.414   1.353  0.00  0.00     0.000 A 
ATOM     33  C22 NON d   1     -41.363  24.900   0.089  0.00  0.00     0.001 A 
ATOM     34  C23 NON d   1     -41.100  24.129  -1.048  0.00  0.00     0.014 A 
ENDBRANCH  25  29
ENDBRANCH  14  23
ENDBRANCH  12  14
ENDBRANCH   9  12
ENDBRANCH   1   9
TORSDOF 11
ENDMDL
