MODEL 1
REMARK VINA RESULT:   -34.314      0.000      0.000
REMARK INTER + INTRA:         -36.314
REMARK INTER:                 -35.507
REMARK INTRA:                  -0.807
REMARK CONF_INDEPENDENT:        1.193
REMARK UNBOUND:                -0.807
REMARK  4 active torsions:
REMARK  status: ('A' for Active; 'I' for Inactive)
REMARK       I    between atoms: C1_2  and  N1_3 
REMARK    1  A    between atoms: C1_2  and  C14_17 
REMARK    2  A    between atoms: N1_3  and  C2_4 
REMARK    3  A    between atoms: C4_6  and  C5_7 
REMARK    4  A    between atoms: C13_15  and  O2_16 
ROOT
ATOM      1  C2  NON d   1     -41.862  18.026  -4.523  0.00  0.00     0.069 A 
ATOM      2  C3  NON d   1     -41.247  18.474  -5.719  0.00  0.00     0.044 A 
ATOM      3  C4  NON d   1     -39.934  19.006  -5.777  0.00  0.00    -0.024 A 
ATOM      4  C11 NON d   1     -39.261  19.082  -4.546  0.00  0.00     0.015 A 
ATOM      5  C12 NON d   1     -39.833  18.629  -3.355  0.00  0.00     0.040 A 
ATOM      6  C13 NON d   1     -41.114  18.085  -3.347  0.00  0.00     0.092 A 
ENDROOT
BRANCH   1   7
ATOM      7  N1  NON d   1     -43.190  17.540  -4.654  0.00  0.00    -0.319 N 
ATOM      8  C1  NON d   1     -44.349  18.191  -5.051  0.00  0.00     0.282 C 
ATOM      9  O1  NON d   1     -44.456  19.343  -5.452  0.00  0.00    -0.265 OA
ATOM     10  H1  NON d   1     -43.307  16.548  -4.483  0.00  0.00     0.169 HD
BRANCH   8  11
ATOM     11  C14 NON d   1     -45.523  17.339  -5.011  0.00  0.00     0.170 A 
ATOM     12  C15 NON d   1     -46.034  16.543  -4.008  0.00  0.00     0.067 A 
ATOM     13  C16 NON d   1     -47.205  15.998  -4.558  0.00  0.00     0.149 A 
ATOM     14  N2  NON d   1     -47.411  16.413  -5.810  0.00  0.00    -0.140 NA
ATOM     15  O3  NON d   1     -46.347  17.255  -6.097  0.00  0.00    -0.208 OA
ENDBRANCH   8  11
ENDBRANCH   1   7
BRANCH   6  16
ATOM     16  O2  NON d   1     -41.557  17.551  -2.178  0.00  0.00    -0.358 OA
ATOM     17  H10 NON d   1     -41.001  17.851  -1.444  0.00  0.00     0.217 HD
ENDBRANCH   6  16
BRANCH   3  18
ATOM     18  C5  NON d   1     -39.286  19.451  -7.060  0.00  0.00    -0.026 A 
ATOM     19  C6  NON d   1     -39.830  20.468  -7.873  0.00  0.00     0.012 A 
ATOM     20  C7  NON d   1     -39.228  20.868  -9.075  0.00  0.00     0.001 A 
ATOM     21  C8  NON d   1     -38.056  20.265  -9.510  0.00  0.00     0.000 A 
ATOM     22  C9  NON d   1     -37.485  19.263  -8.741  0.00  0.00     0.001 A 
ATOM     23  C10 NON d   1     -38.092  18.867  -7.540  0.00  0.00     0.012 A 
ENDBRANCH   3  18
TORSDOF 4
ENDMDL
MODEL 2
REMARK VINA RESULT:   -33.753      1.349      1.620
REMARK INTER + INTRA:         -36.913
REMARK INTER:                 -34.946
REMARK INTRA:                  -1.967
REMARK CONF_INDEPENDENT:        1.193
REMARK UNBOUND:                -1.967
REMARK  4 active torsions:
REMARK  status: ('A' for Active; 'I' for Inactive)
REMARK       I    between atoms: C1_2  and  N1_3 
REMARK    1  A    between atoms: C1_2  and  C14_17 
REMARK    2  A    between atoms: N1_3  and  C2_4 
REMARK    3  A    between atoms: C4_6  and  C5_7 
REMARK    4  A    between atoms: C13_15  and  O2_16 
ROOT
ATOM      1  C2  NON d   1     -42.293  18.451  -4.858  0.00  0.00     0.069 A 
ATOM      2  C3  NON d   1     -41.894  19.294  -5.926  0.00  0.00     0.044 A 
ATOM      3  C4  NON d   1     -40.619  19.908  -6.010  0.00  0.00    -0.024 A 
ATOM      4  C11 NON d   1     -39.752  19.642  -4.937  0.00  0.00     0.015 A 
ATOM      5  C12 NON d   1     -40.109  18.800  -3.881  0.00  0.00     0.040 A 
ATOM      6  C13 NON d   1     -41.360  18.193  -3.853  0.00  0.00     0.092 A 
ENDROOT
BRANCH   1   7
ATOM      7  N1  NON d   1     -43.615  17.938  -4.934  0.00  0.00    -0.319 N 
ATOM      8  C1  NON d   1     -44.379  17.283  -3.979  0.00  0.00     0.282 C 
ATOM      9  O1  NON d   1     -44.085  17.066  -2.810  0.00  0.00    -0.265 OA
ATOM     10  H1  NON d   1     -44.104  18.125  -5.801  0.00  0.00     0.169 HD
BRANCH   8  11
ATOM     11  C14 NON d   1     -45.683  16.880  -4.472  0.00  0.00     0.170 A 
ATOM     12  C15 NON d   1     -46.819  16.469  -3.808  0.00  0.00     0.067 A 
ATOM     13  C16 NON d   1     -47.760  16.255  -4.827  0.00  0.00     0.149 A 
ATOM     14  N2  NON d   1     -47.254  16.505  -6.037  0.00  0.00    -0.140 NA
ATOM     15  O3  NON d   1     -45.942  16.894  -5.813  0.00  0.00    -0.208 OA
ENDBRANCH   8  11
ENDBRANCH   1   7
BRANCH   6  16
ATOM     16  O2  NON d   1     -41.592  17.290  -2.863  0.00  0.00    -0.358 OA
ATOM     17  H10 NON d   1     -42.509  17.359  -2.558  0.00  0.00     0.217 HD
ENDBRANCH   6  16
BRANCH   3  18
ATOM     18  C5  NON d   1     -40.203  20.776  -7.166  0.00  0.00    -0.026 A 
ATOM     19  C6  NON d   1     -39.963  22.160  -7.030  0.00  0.00     0.012 A 
ATOM     20  C7  NON d   1     -39.588  22.966  -8.115  0.00  0.00     0.001 A 
ATOM     21  C8  NON d   1     -39.438  22.416  -9.380  0.00  0.00     0.000 A 
ATOM     22  C9  NON d   1     -39.661  21.060  -9.560  0.00  0.00     0.001 A 
ATOM     23  C10 NON d   1     -40.036  20.259  -8.471  0.00  0.00     0.012 A 
ENDBRANCH   3  18
TORSDOF 4
ENDMDL
MODEL 3
REMARK VINA RESULT:   -33.713      1.435      1.802
REMARK INTER + INTRA:         -36.914
REMARK INTER:                 -34.906
REMARK INTRA:                  -2.007
REMARK CONF_INDEPENDENT:        1.193
REMARK UNBOUND:                -2.007
REMARK  4 active torsions:
REMARK  status: ('A' for Active; 'I' for Inactive)
REMARK       I    between atoms: C1_2  and  N1_3 
REMARK    1  A    between atoms: C1_2  and  C14_17 
REMARK    2  A    between atoms: N1_3  and  C2_4 
REMARK    3  A    between atoms: C4_6  and  C5_7 
REMARK    4  A    between atoms: C13_15  and  O2_16 
ROOT
ATOM      1  C2  NON d   1     -42.323  18.436  -4.892  0.00  0.00     0.069 A 
ATOM      2  C3  NON d   1     -41.949  19.319  -5.937  0.00  0.00     0.044 A 
ATOM      3  C4  NON d   1     -40.678  19.939  -6.026  0.00  0.00    -0.024 A 
ATOM      4  C11 NON d   1     -39.786  19.636  -4.983  0.00  0.00     0.015 A 
ATOM      5  C12 NON d   1     -40.118  18.754  -3.952  0.00  0.00     0.040 A 
ATOM      6  C13 NON d   1     -41.368  18.143  -3.918  0.00  0.00     0.092 A 
ENDROOT
BRANCH   1   7
ATOM      7  N1  NON d   1     -43.645  17.923  -4.957  0.00  0.00    -0.319 N 
ATOM      8  C1  NON d   1     -44.415  17.298  -3.986  0.00  0.00     0.282 C 
ATOM      9  O1  NON d   1     -44.126  17.117  -2.810  0.00  0.00    -0.265 OA
ATOM     10  H1  NON d   1     -44.130  18.083  -5.832  0.00  0.00     0.169 HD
BRANCH   8  11
ATOM     11  C14 NON d   1     -45.717  16.882  -4.472  0.00  0.00     0.170 A 
ATOM     12  C15 NON d   1     -46.840  16.445  -3.803  0.00  0.00     0.067 A 
ATOM     13  C16 NON d   1     -47.788  16.231  -4.815  0.00  0.00     0.149 A 
ATOM     14  N2  NON d   1     -47.298  16.505  -6.027  0.00  0.00    -0.140 NA
ATOM     15  O3  NON d   1     -45.990  16.911  -5.810  0.00  0.00    -0.208 OA
ENDBRANCH   8  11
ENDBRANCH   1   7
BRANCH   6  16
ATOM     16  O2  NON d   1     -41.576  17.203  -2.958  0.00  0.00    -0.358 OA
ATOM     17  H10 NON d   1     -42.437  17.343  -2.537  0.00  0.00     0.217 HD
ENDBRANCH   6  16
BRANCH   3  18
ATOM     18  C5  NON d   1     -40.289  20.851  -7.157  0.00  0.00    -0.026 A 
ATOM     19  C6  NON d   1     -40.237  20.418  -8.499  0.00  0.00     0.012 A 
ATOM     20  C7  NON d   1     -39.860  21.270  -9.548  0.00  0.00     0.001 A 
ATOM     21  C8  NON d   1     -39.519  22.590  -9.293  0.00  0.00     0.000 A 
ATOM     22  C9  NON d   1     -39.558  23.060  -7.989  0.00  0.00     0.001 A 
ATOM     23  C10 NON d   1     -39.936  22.203  -6.945  0.00  0.00     0.012 A 
ENDBRANCH   3  18
TORSDOF 4
ENDMDL
MODEL 4
REMARK VINA RESULT:   -33.419      1.147      1.642
REMARK INTER + INTRA:         -35.467
REMARK INTER:                 -34.612
REMARK INTRA:                  -0.855
REMARK CONF_INDEPENDENT:        1.193
REMARK UNBOUND:                -0.855
REMARK  4 active torsions:
REMARK  status: ('A' for Active; 'I' for Inactive)
REMARK       I    between atoms: C1_2  and  N1_3 
REMARK    1  A    between atoms: C1_2  and  C14_17 
REMARK    2  A    between atoms: N1_3  and  C2_4 
REMARK    3  A    between atoms: C4_6  and  C5_7 
REMARK    4  A    between atoms: C13_15  and  O2_16 
ROOT
ATOM      1  C2  NON d   1     -42.033  18.432  -4.394  0.00  0.00     0.069 A 
ATOM      2  C3  NON d   1     -41.653  19.364  -5.392  0.00  0.00     0.044 A 
ATOM      3  C4  NON d   1     -40.431  20.082  -5.374  0.00  0.00    -0.024 A 
ATOM      4  C11 NON d   1     -39.599  19.826  -4.271  0.00  0.00     0.015 A 
ATOM      5  C12 NON d   1     -39.937  18.898  -3.283  0.00  0.00     0.040 A 
ATOM      6  C13 NON d   1     -41.133  18.191  -3.355  0.00  0.00     0.092 A 
ENDROOT
BRANCH   1   7
ATOM      7  N1  NON d   1     -43.302  17.819  -4.569  0.00  0.00    -0.319 N 
ATOM      8  C1  NON d   1     -44.487  18.336  -5.074  0.00  0.00     0.282 C 
ATOM      9  O1  NON d   1     -44.669  19.447  -5.554  0.00  0.00    -0.265 OA
ATOM     10  H1  NON d   1     -43.342  16.832  -4.341  0.00  0.00     0.169 HD
BRANCH   8  11
ATOM     11  C14 NON d   1     -45.581  17.384  -5.045  0.00  0.00     0.170 A 
ATOM     12  C15 NON d   1     -45.953  16.455  -4.097  0.00  0.00     0.067 A 
ATOM     13  C16 NON d   1     -47.112  15.863  -4.625  0.00  0.00     0.149 A 
ATOM     14  N2  NON d   1     -47.439  16.376  -5.813  0.00  0.00    -0.140 NA
ATOM     15  O3  NON d   1     -46.471  17.331  -6.080  0.00  0.00    -0.208 OA
ENDBRANCH   8  11
ENDBRANCH   1   7
BRANCH   6  16
ATOM     16  O2  NON d   1     -41.338  17.217  -2.430  0.00  0.00    -0.358 OA
ATOM     17  H10 NON d   1     -40.520  16.718  -2.286  0.00  0.00     0.217 HD
ENDBRANCH   6  16
BRANCH   3  18
ATOM     18  C5  NON d   1     -40.032  21.047  -6.457  0.00  0.00    -0.026 A 
ATOM     19  C6  NON d   1     -39.951  20.674  -7.815  0.00  0.00     0.012 A 
ATOM     20  C7  NON d   1     -39.565  21.575  -8.819  0.00  0.00     0.001 A 
ATOM     21  C8  NON d   1     -39.242  22.886  -8.500  0.00  0.00     0.000 A 
ATOM     22  C9  NON d   1     -39.309  23.297  -7.177  0.00  0.00     0.001 A 
ATOM     23  C10 NON d   1     -39.696  22.391  -6.179  0.00  0.00     0.012 A 
ENDBRANCH   3  18
TORSDOF 4
ENDMDL
MODEL 5
REMARK VINA RESULT:   -32.689      3.133      4.095
REMARK INTER + INTRA:         -35.340
REMARK INTER:                 -33.883
REMARK INTRA:                  -1.458
REMARK CONF_INDEPENDENT:        1.193
REMARK UNBOUND:                -1.458
REMARK  4 active torsions:
REMARK  status: ('A' for Active; 'I' for Inactive)
REMARK       I    between atoms: C1_2  and  N1_3 
REMARK    1  A    between atoms: C1_2  and  C14_17 
REMARK    2  A    between atoms: N1_3  and  C2_4 
REMARK    3  A    between atoms: C4_6  and  C5_7 
REMARK    4  A    between atoms: C13_15  and  O2_16 
ROOT
ATOM      1  C2  NON d   1     -42.283  18.979  -4.906  0.00  0.00     0.069 A 
ATOM      2  C3  NON d   1     -42.170  20.274  -4.340  0.00  0.00     0.044 A 
ATOM      3  C4  NON d   1     -40.964  21.019  -4.313  0.00  0.00    -0.024 A 
ATOM      4  C11 NON d   1     -39.848  20.378  -4.880  0.00  0.00     0.015 A 
ATOM      5  C12 NON d   1     -39.933  19.112  -5.463  0.00  0.00     0.040 A 
ATOM      6  C13 NON d   1     -41.145  18.428  -5.495  0.00  0.00     0.092 A 
ENDROOT
BRANCH   1   7
ATOM      7  N1  NON d   1     -43.567  18.378  -4.827  0.00  0.00    -0.319 N 
ATOM      8  C1  NON d   1     -43.929  17.067  -4.552  0.00  0.00     0.282 C 
ATOM      9  O1  NON d   1     -43.191  16.140  -4.242  0.00  0.00    -0.265 OA
ATOM     10  H1  NON d   1     -44.350  19.012  -4.933  0.00  0.00     0.169 HD
BRANCH   8  11
ATOM     11  C14 NON d   1     -45.362  16.849  -4.607  0.00  0.00     0.170 A 
ATOM     12  C15 NON d   1     -46.315  16.814  -3.612  0.00  0.00     0.067 A 
ATOM     13  C16 NON d   1     -47.524  16.602  -4.293  0.00  0.00     0.149 A 
ATOM     14  N2  NON d   1     -47.344  16.505  -5.613  0.00  0.00    -0.140 NA
ATOM     15  O3  NON d   1     -45.980  16.656  -5.810  0.00  0.00    -0.208 OA
ENDBRANCH   8  11
ENDBRANCH   1   7
BRANCH   6  16
ATOM     16  O2  NON d   1     -41.181  17.258  -6.188  0.00  0.00    -0.358 OA
ATOM     17  H10 NON d   1     -41.811  16.648  -5.777  0.00  0.00     0.217 HD
ENDBRANCH   6  16
BRANCH   3  18
ATOM     18  C5  NON d   1     -40.868  22.404  -3.734  0.00  0.00    -0.026 A 
ATOM     19  C6  NON d   1     -41.049  23.567  -4.512  0.00  0.00     0.012 A 
ATOM     20  C7  NON d   1     -40.945  24.856  -3.968  0.00  0.00     0.001 A 
ATOM     21  C8  NON d   1     -40.656  25.030  -2.622  0.00  0.00     0.000 A 
ATOM     22  C9  NON d   1     -40.473  23.914  -1.819  0.00  0.00     0.001 A 
ATOM     23  C10 NON d   1     -40.578  22.628  -2.369  0.00  0.00     0.012 A 
ENDBRANCH   3  18
TORSDOF 4
ENDMDL
MODEL 6
REMARK VINA RESULT:   -31.986      2.178      4.462
REMARK INTER + INTRA:         -34.601
REMARK INTER:                 -33.179
REMARK INTRA:                  -1.421
REMARK CONF_INDEPENDENT:        1.193
REMARK UNBOUND:                -1.421
REMARK  4 active torsions:
REMARK  status: ('A' for Active; 'I' for Inactive)
REMARK       I    between atoms: C1_2  and  N1_3 
REMARK    1  A    between atoms: C1_2  and  C14_17 
REMARK    2  A    between atoms: N1_3  and  C2_4 
REMARK    3  A    between atoms: C4_6  and  C5_7 
REMARK    4  A    between atoms: C13_15  and  O2_16 
ROOT
ATOM      1  C2  NON d   1     -42.358  19.417  -5.323  0.00  0.00     0.069 A 
ATOM      2  C3  NON d   1     -41.653  19.631  -4.113  0.00  0.00     0.044 A 
ATOM      3  C4  NON d   1     -40.414  20.316  -4.035  0.00  0.00    -0.024 A 
ATOM      4  C11 NON d   1     -39.899  20.770  -5.261  0.00  0.00     0.015 A 
ATOM      5  C12 NON d   1     -40.581  20.591  -6.467  0.00  0.00     0.040 A 
ATOM      6  C13 NON d   1     -41.811  19.940  -6.495  0.00  0.00     0.092 A 
ENDROOT
BRANCH   1   7
ATOM      7  N1  NON d   1     -43.576  18.695  -5.211  0.00  0.00    -0.319 N 
ATOM      8  C1  NON d   1     -43.958  17.712  -4.309  0.00  0.00     0.282 C 
ATOM      9  O1  NON d   1     -43.324  17.298  -3.347  0.00  0.00    -0.265 OA
ATOM     10  H1  NON d   1     -44.307  18.975  -5.855  0.00  0.00     0.169 HD
BRANCH   8  11
ATOM     11  C14 NON d   1     -45.288  17.192  -4.563  0.00  0.00     0.170 A 
ATOM     12  C15 NON d   1     -46.220  16.627  -3.719  0.00  0.00     0.067 A 
ATOM     13  C16 NON d   1     -47.323  16.360  -4.544  0.00  0.00     0.149 A 
ATOM     14  N2  NON d   1     -47.100  16.723  -5.810  0.00  0.00    -0.140 NA
ATOM     15  O3  NON d   1     -45.815  17.243  -5.823  0.00  0.00    -0.208 OA
ENDBRANCH   8  11
ENDBRANCH   1   7
BRANCH   6  16
ATOM     16  O2  NON d   1     -42.475  19.913  -7.681  0.00  0.00    -0.358 OA
ATOM     17  H10 NON d   1     -42.197  20.658  -8.234  0.00  0.00     0.217 HD
ENDBRANCH   6  16
BRANCH   3  18
ATOM     18  C5  NON d   1     -39.693  20.560  -2.737  0.00  0.00    -0.026 A 
ATOM     19  C6  NON d   1     -38.360  20.150  -2.520  0.00  0.00     0.012 A 
ATOM     20  C7  NON d   1     -37.698  20.369  -1.303  0.00  0.00     0.001 A 
ATOM     21  C8  NON d   1     -38.346  21.006  -0.254  0.00  0.00     0.000 A 
ATOM     22  C9  NON d   1     -39.656  21.428  -0.424  0.00  0.00     0.001 A 
ATOM     23  C10 NON d   1     -40.312  21.207  -1.644  0.00  0.00     0.012 A 
ENDBRANCH   3  18
TORSDOF 4
ENDMDL
