MODEL 1
REMARK VINA RESULT:   -14.909      0.000      0.000
REMARK INTER + INTRA:         -19.633
REMARK INTER:                 -18.190
REMARK INTRA:                  -1.443
REMARK CONF_INDEPENDENT:        3.281
REMARK UNBOUND:                -1.443
REMARK  11 active torsions:
REMARK  status: ('A' for Active; 'I' for Inactive)
REMARK    1  A    between atoms: C2_4  and  C3_5 
REMARK    2  A    between atoms: C3_5  and  C4_6 
REMARK    3  A    between atoms: C16_22  and  C17_23 
REMARK    4  A    between atoms: C17_23  and  C18_24 
REMARK    5  A    between atoms: C18_24  and  C19_25 
REMARK    6  A    between atoms: C19_25  and  C20_26 
REMARK    7  A    between atoms: C20_26  and  C21_27 
REMARK    8  A    between atoms: C21_27  and  C22_28 
REMARK    9  A    between atoms: C23_30  and  C22_28 
REMARK   10  A    between atoms: C26_36  and  C27_37 
REMARK   11  A    between atoms: C27_37  and  C28_38 
ROOT
ATOM      1  O1  NON d   1     -39.693  25.210  -5.475  0.00  0.00    -0.271 OA
ATOM      2  C1  NON d   1     -40.127  24.070  -5.299  0.00  0.00     0.241 C 
ATOM      3  N1  NON d   1     -40.301  23.309  -6.441  0.00  0.00    -0.346 N 
ATOM      4  C2  NON d   1     -39.511  23.305  -7.772  0.00  0.00     0.181 C 
ATOM      5  C10 NON d   1     -39.463  21.774  -8.359  0.00  0.00     0.243 C 
ATOM      6  O2  NON d   1     -40.501  21.236  -8.754  0.00  0.00    -0.271 OA
ATOM      7  N2  NON d   1     -38.283  21.013  -8.182  0.00  0.00    -0.337 N 
ATOM      8  C11 NON d   1     -37.166  21.366  -9.045  0.00  0.00     0.127 C 
ATOM      9  C12 NON d   1     -36.886  20.073  -9.784  0.00  0.00     0.022 C 
ATOM     10  C13 NON d   1     -36.938  19.047  -8.660  0.00  0.00     0.037 C 
ATOM     11  C14 NON d   1     -38.115  19.500  -7.743  0.00  0.00     0.179 C 
ATOM     12  C15 NON d   1     -37.791  18.718  -6.128  0.00  0.00     0.241 C 
ATOM     13  O3  NON d   1     -36.863  17.878  -6.133  0.00  0.00    -0.271 OA
ATOM     14  N3  NON d   1     -38.414  18.715  -4.838  0.00  0.00    -0.346 N 
ATOM     15  C16 NON d   1     -39.607  19.316  -3.726  0.00  0.00     0.176 C 
ATOM     16  C25 NON d   1     -39.596  20.871  -2.956  0.00  0.00     0.241 C 
ATOM     17  O6  NON d   1     -38.722  21.158  -2.137  0.00  0.00    -0.271 OA
ATOM     18  N4  NON d   1     -40.465  21.849  -3.530  0.00  0.00    -0.346 N 
ATOM     19  C26 NON d   1     -40.264  23.395  -3.721  0.00  0.00     0.180 C 
ATOM     20  H1  NON d   1     -41.050  22.621  -6.394  0.00  0.00     0.163 HD
ATOM     21  H17 NON d   1     -37.793  18.125  -4.290  0.00  0.00     0.163 HD
ATOM     22  H32 NON d   1     -41.198  21.508  -4.145  0.00  0.00     0.163 HD
ENDROOT
BRANCH  15  23
ATOM     23  C17 NON d   1     -39.931  18.157  -2.795  0.00  0.00     0.035 C 
BRANCH  23  24
ATOM     24  C18 NON d   1     -41.453  18.037  -2.547  0.00  0.00     0.002 C 
BRANCH  24  25
ATOM     25  C19 NON d   1     -42.405  18.154  -3.759  0.00  0.00     0.000 C 
BRANCH  25  26
ATOM     26  C20 NON d   1     -43.758  17.370  -3.673  0.00  0.00     0.007 C 
BRANCH  26  27
ATOM     27  C21 NON d   1     -44.374  16.961  -5.056  0.00  0.00     0.081 C 
BRANCH  27  28
ATOM     28  C22 NON d   1     -45.939  17.240  -5.436  0.00  0.00     0.157 C 
ATOM     29  O4  NON d   1     -45.948  18.006  -6.422  0.00  0.00    -0.295 OA
BRANCH  28  30
ATOM     30  C23 NON d   1     -47.411  16.378  -5.028  0.00  0.00     0.214 A 
ATOM     31  C24 NON d   1     -47.796  15.007  -4.473  0.00  0.00     0.208 A 
ATOM     32  O5  NON d   1     -48.053  15.367  -5.811  0.00  0.00    -0.373 OA
ENDBRANCH  28  30
ENDBRANCH  27  28
ENDBRANCH  26  27
ENDBRANCH  25  26
ENDBRANCH  24  25
ENDBRANCH  23  24
ENDBRANCH  15  23
BRANCH  19  33
ATOM     33  C27 NON d   1     -41.302  24.097  -2.792  0.00  0.00     0.073 C 
BRANCH  33  34
ATOM     34  C28 NON d   1     -41.087  24.555  -1.355  0.00  0.00    -0.056 A 
ATOM     35  C29 NON d   1     -41.064  25.876  -0.906  0.00  0.00     0.007 A 
ATOM     36  C30 NON d   1     -41.062  26.195   0.461  0.00  0.00     0.001 A 
ATOM     37  C31 NON d   1     -41.019  25.192   1.417  0.00  0.00     0.000 A 
ATOM     38  C32 NON d   1     -40.959  23.867   1.004  0.00  0.00     0.001 A 
ATOM     39  C33 NON d   1     -41.002  23.555  -0.361  0.00  0.00     0.007 A 
ENDBRANCH  33  34
ENDBRANCH  19  33
BRANCH   4  40
ATOM     40  C3  NON d   1     -40.167  24.328  -8.718  0.00  0.00     0.073 C 
BRANCH  40  41
ATOM     41  C4  NON d   1     -39.744  24.296 -10.175  0.00  0.00    -0.056 A 
ATOM     42  C5  NON d   1     -38.437  23.964 -10.544  0.00  0.00     0.007 A 
ATOM     43  C6  NON d   1     -38.074  23.875 -11.890  0.00  0.00     0.001 A 
ATOM     44  C7  NON d   1     -39.025  24.075 -12.887  0.00  0.00     0.000 A 
ATOM     45  C8  NON d   1     -40.336  24.383 -12.536  0.00  0.00     0.001 A 
ATOM     46  C9  NON d   1     -40.690  24.506 -11.197  0.00  0.00     0.007 A 
ENDBRANCH  40  41
ENDBRANCH   4  40
TORSDOF 11
ENDMDL
MODEL 2
REMARK VINA RESULT:   -13.625      2.229      4.843
REMARK INTER + INTRA:         -19.040
REMARK INTER:                 -16.906
REMARK INTRA:                  -2.134
REMARK CONF_INDEPENDENT:        3.281
REMARK UNBOUND:                -2.134
REMARK  11 active torsions:
REMARK  status: ('A' for Active; 'I' for Inactive)
REMARK    1  A    between atoms: C2_4  and  C3_5 
REMARK    2  A    between atoms: C3_5  and  C4_6 
REMARK    3  A    between atoms: C16_22  and  C17_23 
REMARK    4  A    between atoms: C17_23  and  C18_24 
REMARK    5  A    between atoms: C18_24  and  C19_25 
REMARK    6  A    between atoms: C19_25  and  C20_26 
REMARK    7  A    between atoms: C20_26  and  C21_27 
REMARK    8  A    between atoms: C21_27  and  C22_28 
REMARK    9  A    between atoms: C23_30  and  C22_28 
REMARK   10  A    between atoms: C26_36  and  C27_37 
REMARK   11  A    between atoms: C27_37  and  C28_38 
ROOT
ATOM      1  O1  NON d   1     -36.846  23.299  -2.182  0.00  0.00    -0.271 OA
ATOM      2  C1  NON d   1     -37.911  22.687  -2.282  0.00  0.00     0.241 C 
ATOM      3  N1  NON d   1     -38.809  23.191  -3.206  0.00  0.00    -0.346 N 
ATOM      4  C2  NON d   1     -38.562  23.917  -4.550  0.00  0.00     0.181 C 
ATOM      5  C10 NON d   1     -39.743  23.497  -5.609  0.00  0.00     0.243 C 
ATOM      6  O2  NON d   1     -40.905  23.862  -5.407  0.00  0.00    -0.271 OA
ATOM      7  N2  NON d   1     -39.457  22.529  -6.600  0.00  0.00    -0.337 N 
ATOM      8  C11 NON d   1     -38.638  22.985  -7.713  0.00  0.00     0.127 C 
ATOM      9  C12 NON d   1     -39.526  22.730  -8.914  0.00  0.00     0.022 C 
ATOM     10  C13 NON d   1     -40.055  21.330  -8.627  0.00  0.00     0.037 C 
ATOM     11  C14 NON d   1     -40.329  21.301  -7.093  0.00  0.00     0.179 C 
ATOM     12  C15 NON d   1     -40.329  19.534  -6.642  0.00  0.00     0.241 C 
ATOM     13  O3  NON d   1     -40.305  18.748  -7.615  0.00  0.00    -0.271 OA
ATOM     14  N3  NON d   1     -40.478  18.776  -5.435  0.00  0.00    -0.346 N 
ATOM     15  C16 NON d   1     -40.616  18.686  -3.704  0.00  0.00     0.176 C 
ATOM     16  C25 NON d   1     -39.339  18.961  -2.561  0.00  0.00     0.241 C 
ATOM     17  O6  NON d   1     -38.377  18.194  -2.501  0.00  0.00    -0.271 OA
ATOM     18  N4  NON d   1     -39.346  20.240  -1.925  0.00  0.00    -0.346 N 
ATOM     19  C26 NON d   1     -38.152  21.169  -1.506  0.00  0.00     0.180 C 
ATOM     20  H1  NON d   1     -39.791  23.037  -2.985  0.00  0.00     0.163 HD
ATOM     21  H17 NON d   1     -40.366  17.818  -5.756  0.00  0.00     0.163 HD
ATOM     22  H32 NON d   1     -40.210  20.773  -1.975  0.00  0.00     0.163 HD
ENDROOT
BRANCH  15  23
ATOM     23  C17 NON d   1     -41.462  17.455  -3.417  0.00  0.00     0.035 C 
BRANCH  23  24
ATOM     24  C18 NON d   1     -42.969  17.747  -3.605  0.00  0.00     0.002 C 
BRANCH  24  25
ATOM     25  C19 NON d   1     -43.794  16.795  -4.501  0.00  0.00     0.000 C 
BRANCH  25  26
ATOM     26  C20 NON d   1     -45.204  17.300  -4.959  0.00  0.00     0.007 C 
BRANCH  26  27
ATOM     27  C21 NON d   1     -46.414  16.684  -4.176  0.00  0.00     0.081 C 
BRANCH  27  28
ATOM     28  C22 NON d   1     -47.553  15.764  -4.903  0.00  0.00     0.157 C 
ATOM     29  O4  NON d   1     -47.021  15.242  -5.905  0.00  0.00    -0.295 OA
BRANCH  28  30
ATOM     30  C23 NON d   1     -49.070  15.107  -4.319  0.00  0.00     0.214 A 
ATOM     31  C24 NON d   1     -50.056  15.385  -3.185  0.00  0.00     0.208 A 
ATOM     32  O5  NON d   1     -49.248  14.231  -3.202  0.00  0.00    -0.373 OA
ENDBRANCH  28  30
ENDBRANCH  27  28
ENDBRANCH  26  27
ENDBRANCH  25  26
ENDBRANCH  24  25
ENDBRANCH  23  24
ENDBRANCH  15  23
BRANCH  19  33
ATOM     33  C27 NON d   1     -38.152  21.219   0.053  0.00  0.00     0.073 C 
BRANCH  33  34
ATOM     34  C28 NON d   1     -38.885  22.217   0.941  0.00  0.00    -0.056 A 
ATOM     35  C29 NON d   1     -38.294  23.143   1.801  0.00  0.00     0.007 A 
ATOM     36  C30 NON d   1     -39.040  24.155   2.427  0.00  0.00     0.001 A 
ATOM     37  C31 NON d   1     -40.414  24.225   2.254  0.00  0.00     0.000 A 
ATOM     38  C32 NON d   1     -41.046  23.269   1.468  0.00  0.00     0.001 A 
ATOM     39  C33 NON d   1     -40.290  22.286   0.815  0.00  0.00     0.007 A 
ENDBRANCH  33  34
ENDBRANCH  19  33
BRANCH   4  40
ATOM     40  C3  NON d   1     -38.472  25.428  -4.265  0.00  0.00     0.073 C 
BRANCH  40  41
ATOM     41  C4  NON d   1     -39.153  25.939  -3.010  0.00  0.00    -0.056 A 
ATOM     42  C5  NON d   1     -40.518  26.245  -2.998  0.00  0.00     0.007 A 
ATOM     43  C6  NON d   1     -41.149  26.654  -1.821  0.00  0.00     0.001 A 
ATOM     44  C7  NON d   1     -40.433  26.721  -0.628  0.00  0.00     0.000 A 
ATOM     45  C8  NON d   1     -39.080  26.396  -0.618  0.00  0.00     0.001 A 
ATOM     46  C9  NON d   1     -38.442  26.023  -1.797  0.00  0.00     0.007 A 
ENDBRANCH  40  41
ENDBRANCH   4  40
TORSDOF 11
ENDMDL
MODEL 3
REMARK VINA RESULT:   -13.274      2.323      6.144
REMARK INTER + INTRA:         -17.922
REMARK INTER:                 -16.555
REMARK INTRA:                  -1.366
REMARK CONF_INDEPENDENT:        3.281
REMARK UNBOUND:                -1.366
REMARK  11 active torsions:
REMARK  status: ('A' for Active; 'I' for Inactive)
REMARK    1  A    between atoms: C2_4  and  C3_5 
REMARK    2  A    between atoms: C3_5  and  C4_6 
REMARK    3  A    between atoms: C16_22  and  C17_23 
REMARK    4  A    between atoms: C17_23  and  C18_24 
REMARK    5  A    between atoms: C18_24  and  C19_25 
REMARK    6  A    between atoms: C19_25  and  C20_26 
REMARK    7  A    between atoms: C20_26  and  C21_27 
REMARK    8  A    between atoms: C21_27  and  C22_28 
REMARK    9  A    between atoms: C23_30  and  C22_28 
REMARK   10  A    between atoms: C26_36  and  C27_37 
REMARK   11  A    between atoms: C27_37  and  C28_38 
ROOT
ATOM      1  O1  NON d   1     -40.055  24.302  -6.762  0.00  0.00    -0.271 OA
ATOM      2  C1  NON d   1     -39.603  23.300  -6.204  0.00  0.00     0.241 C 
ATOM      3  N1  NON d   1     -38.651  23.535  -5.227  0.00  0.00    -0.346 N 
ATOM      4  C2  NON d   1     -38.490  24.725  -4.250  0.00  0.00     0.181 C 
ATOM      5  C10 NON d   1     -37.895  24.170  -2.826  0.00  0.00     0.243 C 
ATOM      6  O2  NON d   1     -36.744  23.725  -2.774  0.00  0.00    -0.271 OA
ATOM      7  N2  NON d   1     -38.784  23.987  -1.741  0.00  0.00    -0.337 N 
ATOM      8  C11 NON d   1     -39.223  25.201  -1.070  0.00  0.00     0.127 C 
ATOM      9  C12 NON d   1     -38.766  24.984   0.358  0.00  0.00     0.022 C 
ATOM     10  C13 NON d   1     -39.192  23.544   0.614  0.00  0.00     0.037 C 
ATOM     11  C14 NON d   1     -38.890  22.784  -0.714  0.00  0.00     0.179 C 
ATOM     12  C15 NON d   1     -39.946  21.299  -0.666  0.00  0.00     0.241 C 
ATOM     13  O3  NON d   1     -40.516  21.101   0.431  0.00  0.00    -0.271 OA
ATOM     14  N3  NON d   1     -40.213  20.192  -1.535  0.00  0.00    -0.346 N 
ATOM     15  C16 NON d   1     -40.041  19.387  -3.066  0.00  0.00     0.176 C 
ATOM     16  C25 NON d   1     -40.795  19.854  -4.559  0.00  0.00     0.241 C 
ATOM     17  O6  NON d   1     -42.018  19.790  -4.688  0.00  0.00    -0.271 OA
ATOM     18  N4  NON d   1     -39.958  20.557  -5.478  0.00  0.00    -0.346 N 
ATOM     19  C26 NON d   1     -40.295  21.743  -6.451  0.00  0.00     0.180 C 
ATOM     20  H1  NON d   1     -37.960  22.797  -5.108  0.00  0.00     0.163 HD
ATOM     21  H17 NON d   1     -40.913  19.665  -1.020  0.00  0.00     0.163 HD
ATOM     22  H32 NON d   1     -38.955  20.498  -5.325  0.00  0.00     0.163 HD
ENDROOT
BRANCH  15  23
ATOM     23  C17 NON d   1     -40.115  17.898  -2.765  0.00  0.00     0.035 C 
BRANCH  23  24
ATOM     24  C18 NON d   1     -41.379  17.256  -3.384  0.00  0.00     0.002 C 
BRANCH  24  25
ATOM     25  C19 NON d   1     -42.760  17.821  -2.981  0.00  0.00     0.000 C 
BRANCH  25  26
ATOM     26  C20 NON d   1     -44.019  17.090  -3.558  0.00  0.00     0.007 C 
BRANCH  26  27
ATOM     27  C21 NON d   1     -44.382  17.466  -5.036  0.00  0.00     0.081 C 
BRANCH  27  28
ATOM     28  C22 NON d   1     -45.922  17.476  -5.585  0.00  0.00     0.157 C 
ATOM     29  O4  NON d   1     -45.960  18.256  -6.560  0.00  0.00    -0.295 OA
BRANCH  28  30
ATOM     30  C23 NON d   1     -47.252  16.358  -5.352  0.00  0.00     0.214 A 
ATOM     31  C24 NON d   1     -47.586  15.180  -4.437  0.00  0.00     0.208 A 
ATOM     32  O5  NON d   1     -47.321  15.005  -5.810  0.00  0.00    -0.373 OA
ENDBRANCH  28  30
ENDBRANCH  27  28
ENDBRANCH  26  27
ENDBRANCH  25  26
ENDBRANCH  24  25
ENDBRANCH  23  24
ENDBRANCH  15  23
BRANCH  19  33
ATOM     33  C27 NON d   1     -40.156  21.184  -7.900  0.00  0.00     0.073 C 
BRANCH  33  34
ATOM     34  C28 NON d   1     -38.969  20.429  -8.485  0.00  0.00    -0.056 A 
ATOM     35  C29 NON d   1     -38.000  20.954  -9.340  0.00  0.00     0.007 A 
ATOM     36  C30 NON d   1     -36.834  20.242  -9.666  0.00  0.00     0.001 A 
ATOM     37  C31 NON d   1     -36.642  18.954  -9.191  0.00  0.00     0.000 A 
ATOM     38  C32 NON d   1     -37.626  18.369  -8.403  0.00  0.00     0.001 A 
ATOM     39  C33 NON d   1     -38.767  19.101  -8.049  0.00  0.00     0.007 A 
ENDBRANCH  33  34
ENDBRANCH  19  33
BRANCH   4  40
ATOM     40  C3  NON d   1     -37.611  25.788  -4.935  0.00  0.00     0.073 C 
BRANCH  40  41
ATOM     41  C4  NON d   1     -37.858  26.046  -6.410  0.00  0.00    -0.056 A 
ATOM     42  C5  NON d   1     -37.189  25.315  -7.396  0.00  0.00     0.007 A 
ATOM     43  C6  NON d   1     -37.469  25.516  -8.750  0.00  0.00     0.001 A 
ATOM     44  C7  NON d   1     -38.454  26.423  -9.135  0.00  0.00     0.000 A 
ATOM     45  C8  NON d   1     -39.146  27.141  -8.164  0.00  0.00     0.001 A 
ATOM     46  C9  NON d   1     -38.842  26.967  -6.818  0.00  0.00     0.007 A 
ENDBRANCH  40  41
ENDBRANCH   4  40
TORSDOF 11
ENDMDL
MODEL 4
REMARK VINA RESULT:   -12.560      1.967      5.131
REMARK INTER + INTRA:         -17.910
REMARK INTER:                 -15.841
REMARK INTRA:                  -2.069
REMARK CONF_INDEPENDENT:        3.281
REMARK UNBOUND:                -2.069
REMARK  11 active torsions:
REMARK  status: ('A' for Active; 'I' for Inactive)
REMARK    1  A    between atoms: C2_4  and  C3_5 
REMARK    2  A    between atoms: C3_5  and  C4_6 
REMARK    3  A    between atoms: C16_22  and  C17_23 
REMARK    4  A    between atoms: C17_23  and  C18_24 
REMARK    5  A    between atoms: C18_24  and  C19_25 
REMARK    6  A    between atoms: C19_25  and  C20_26 
REMARK    7  A    between atoms: C20_26  and  C21_27 
REMARK    8  A    between atoms: C21_27  and  C22_28 
REMARK    9  A    between atoms: C23_30  and  C22_28 
REMARK   10  A    between atoms: C26_36  and  C27_37 
REMARK   11  A    between atoms: C27_37  and  C28_38 
ROOT
ATOM      1  O1  NON d   1     -36.980  23.639  -2.382  0.00  0.00    -0.271 OA
ATOM      2  C1  NON d   1     -38.025  23.126  -2.786  0.00  0.00     0.241 C 
ATOM      3  N1  NON d   1     -38.817  23.929  -3.588  0.00  0.00    -0.346 N 
ATOM      4  C2  NON d   1     -38.425  25.040  -4.592  0.00  0.00     0.181 C 
ATOM      5  C10 NON d   1     -39.480  25.020  -5.848  0.00  0.00     0.243 C 
ATOM      6  O2  NON d   1     -40.659  25.339  -5.664  0.00  0.00    -0.271 OA
ATOM      7  N2  NON d   1     -39.083  24.413  -7.062  0.00  0.00    -0.337 N 
ATOM      8  C11 NON d   1     -38.147  25.175  -7.875  0.00  0.00     0.127 C 
ATOM      9  C12 NON d   1     -38.895  25.348  -9.182  0.00  0.00     0.022 C 
ATOM     10  C13 NON d   1     -39.448  23.949  -9.419  0.00  0.00     0.037 C 
ATOM     11  C14 NON d   1     -39.891  23.437  -8.014  0.00  0.00     0.179 C 
ATOM     12  C15 NON d   1     -39.934  21.620  -8.160  0.00  0.00     0.241 C 
ATOM     13  O3  NON d   1     -39.800  21.188  -9.327  0.00  0.00    -0.271 OA
ATOM     14  N3  NON d   1     -40.213  20.520  -7.286  0.00  0.00    -0.346 N 
ATOM     15  C16 NON d   1     -40.542  19.883  -5.702  0.00  0.00     0.176 C 
ATOM     16  C25 NON d   1     -39.401  19.735  -4.402  0.00  0.00     0.241 C 
ATOM     17  O6  NON d   1     -38.449  18.959  -4.491  0.00  0.00    -0.271 OA
ATOM     18  N4  NON d   1     -39.483  20.742  -3.392  0.00  0.00    -0.346 N 
ATOM     19  C26 NON d   1     -38.345  21.448  -2.571  0.00  0.00     0.180 C 
ATOM     20  H1  NON d   1     -39.817  23.744  -3.534  0.00  0.00     0.163 HD
ATOM     21  H17 NON d   1     -40.063  19.712  -7.885  0.00  0.00     0.163 HD
ATOM     22  H32 NON d   1     -40.338  21.291  -3.358  0.00  0.00     0.163 HD
ENDROOT
BRANCH  15  23
ATOM     23  C17 NON d   1     -41.410  18.654  -5.918  0.00  0.00     0.035 C 
BRANCH  23  24
ATOM     24  C18 NON d   1     -42.680  18.694  -5.036  0.00  0.00     0.002 C 
BRANCH  24  25
ATOM     25  C19 NON d   1     -42.687  17.879  -3.722  0.00  0.00     0.000 C 
BRANCH  25  26
ATOM     26  C20 NON d   1     -43.589  16.600  -3.688  0.00  0.00     0.007 C 
BRANCH  26  27
ATOM     27  C21 NON d   1     -45.128  16.879  -3.574  0.00  0.00     0.081 C 
BRANCH  27  28
ATOM     28  C22 NON d   1     -46.095  17.011  -4.885  0.00  0.00     0.157 C 
ATOM     29  O4  NON d   1     -45.401  17.482  -5.810  0.00  0.00    -0.295 OA
BRANCH  28  30
ATOM     30  C23 NON d   1     -47.628  16.259  -5.286  0.00  0.00     0.214 A 
ATOM     31  C24 NON d   1     -48.406  15.006  -4.886  0.00  0.00     0.208 A 
ATOM     32  O5  NON d   1     -47.830  15.149  -6.164  0.00  0.00    -0.373 OA
ENDBRANCH  28  30
ENDBRANCH  27  28
ENDBRANCH  26  27
ENDBRANCH  25  26
ENDBRANCH  24  25
ENDBRANCH  23  24
ENDBRANCH  15  23
BRANCH  19  33
ATOM     33  C27 NON d   1     -38.518  20.995  -1.089  0.00  0.00     0.073 C 
BRANCH  33  34
ATOM     34  C28 NON d   1     -39.077  21.819   0.064  0.00  0.00    -0.056 A 
ATOM     35  C29 NON d   1     -38.336  22.412   1.088  0.00  0.00     0.007 A 
ATOM     36  C30 NON d   1     -38.913  23.317   1.992  0.00  0.00     0.001 A 
ATOM     37  C31 NON d   1     -40.268  23.603   1.932  0.00  0.00     0.000 A 
ATOM     38  C32 NON d   1     -41.052  22.968   0.977  0.00  0.00     0.001 A 
ATOM     39  C33 NON d   1     -40.462  22.096   0.052  0.00  0.00     0.007 A 
ENDBRANCH  33  34
ENDBRANCH  19  33
BRANCH   4  40
ATOM     40  C3  NON d   1     -38.373  26.375  -3.827  0.00  0.00     0.073 C 
BRANCH  40  41
ATOM     41  C4  NON d   1     -39.078  26.435  -2.485  0.00  0.00    -0.056 A 
ATOM     42  C5  NON d   1     -38.548  27.169  -1.419  0.00  0.00     0.007 A 
ATOM     43  C6  NON d   1     -39.236  27.269  -0.208  0.00  0.00     0.001 A 
ATOM     44  C7  NON d   1     -40.486  26.672  -0.060  0.00  0.00     0.000 A 
ATOM     45  C8  NON d   1     -41.038  25.958  -1.119  0.00  0.00     0.001 A 
ATOM     46  C9  NON d   1     -40.338  25.828  -2.314  0.00  0.00     0.007 A 
ENDBRANCH  40  41
ENDBRANCH   4  40
TORSDOF 11
ENDMDL
MODEL 5
REMARK VINA RESULT:   -12.488      2.027      6.270
REMARK INTER + INTRA:         -17.639
REMARK INTER:                 -15.769
REMARK INTRA:                  -1.869
REMARK CONF_INDEPENDENT:        3.281
REMARK UNBOUND:                -1.869
REMARK  11 active torsions:
REMARK  status: ('A' for Active; 'I' for Inactive)
REMARK    1  A    between atoms: C2_4  and  C3_5 
REMARK    2  A    between atoms: C3_5  and  C4_6 
REMARK    3  A    between atoms: C16_22  and  C17_23 
REMARK    4  A    between atoms: C17_23  and  C18_24 
REMARK    5  A    between atoms: C18_24  and  C19_25 
REMARK    6  A    between atoms: C19_25  and  C20_26 
REMARK    7  A    between atoms: C20_26  and  C21_27 
REMARK    8  A    between atoms: C21_27  and  C22_28 
REMARK    9  A    between atoms: C23_30  and  C22_28 
REMARK   10  A    between atoms: C26_36  and  C27_37 
REMARK   11  A    between atoms: C27_37  and  C28_38 
ROOT
ATOM      1  O1  NON d   1     -40.476  24.396  -8.652  0.00  0.00    -0.271 OA
ATOM      2  C1  NON d   1     -39.899  23.601  -7.906  0.00  0.00     0.241 C 
ATOM      3  N1  NON d   1     -39.078  24.165  -6.946  0.00  0.00    -0.346 N 
ATOM      4  C2  NON d   1     -39.199  25.510  -6.189  0.00  0.00     0.181 C 
ATOM      5  C10 NON d   1     -38.624  25.317  -4.664  0.00  0.00     0.243 C 
ATOM      6  O2  NON d   1     -37.420  25.106  -4.485  0.00  0.00    -0.271 OA
ATOM      7  N2  NON d   1     -39.545  25.157  -3.603  0.00  0.00    -0.337 N 
ATOM      8  C11 NON d   1     -40.236  26.364  -3.177  0.00  0.00     0.127 C 
ATOM      9  C12 NON d   1     -39.856  26.474  -1.714  0.00  0.00     0.022 C 
ATOM     10  C13 NON d   1     -40.044  25.043  -1.228  0.00  0.00     0.037 C 
ATOM     11  C14 NON d   1     -39.516  24.142  -2.386  0.00  0.00     0.179 C 
ATOM     12  C15 NON d   1     -40.301  22.518  -2.122  0.00  0.00     0.241 C 
ATOM     13  O3  NON d   1     -40.907  22.402  -1.033  0.00  0.00    -0.271 OA
ATOM     14  N3  NON d   1     -40.306  21.252  -2.794  0.00  0.00    -0.346 N 
ATOM     15  C16 NON d   1     -39.884  20.249  -4.150  0.00  0.00     0.176 C 
ATOM     16  C25 NON d   1     -40.595  20.317  -5.732  0.00  0.00     0.241 C 
ATOM     17  O6  NON d   1     -41.775  20.008  -5.901  0.00  0.00    -0.271 OA
ATOM     18  N4  NON d   1     -39.827  20.999  -6.724  0.00  0.00    -0.346 N 
ATOM     19  C26 NON d   1     -40.291  21.925  -7.905  0.00  0.00     0.180 C 
ATOM     20  H1  NON d   1     -38.280  23.597  -6.670  0.00  0.00     0.163 HD
ATOM     21  H17 NON d   1     -40.940  20.698  -2.224  0.00  0.00     0.163 HD
ATOM     22  H32 NON d   1     -38.843  21.151  -6.519  0.00  0.00     0.163 HD
ENDROOT
BRANCH  15  23
ATOM     23  C17 NON d   1     -39.721  18.843  -3.594  0.00  0.00     0.035 C 
BRANCH  23  24
ATOM     24  C18 NON d   1     -40.881  17.921  -4.036  0.00  0.00     0.002 C 
BRANCH  24  25
ATOM     25  C19 NON d   1     -42.272  18.134  -3.396  0.00  0.00     0.000 C 
BRANCH  25  26
ATOM     26  C20 NON d   1     -43.472  18.365  -4.375  0.00  0.00     0.007 C 
BRANCH  26  27
ATOM     27  C21 NON d   1     -44.464  17.157  -4.502  0.00  0.00     0.081 C 
BRANCH  27  28
ATOM     28  C22 NON d   1     -45.945  17.305  -5.178  0.00  0.00     0.157 C 
ATOM     29  O4  NON d   1     -45.813  18.005  -6.204  0.00  0.00    -0.295 OA
BRANCH  28  30
ATOM     30  C23 NON d   1     -47.417  16.374  -4.981  0.00  0.00     0.214 A 
ATOM     31  C24 NON d   1     -47.818  15.005  -4.432  0.00  0.00     0.208 A 
ATOM     32  O5  NON d   1     -47.864  15.297  -5.810  0.00  0.00    -0.373 OA
ENDBRANCH  28  30
ENDBRANCH  27  28
ENDBRANCH  26  27
ENDBRANCH  25  26
ENDBRANCH  24  25
ENDBRANCH  23  24
ENDBRANCH  15  23
BRANCH  19  33
ATOM     33  C27 NON d   1     -39.950  21.168  -9.225  0.00  0.00     0.073 C 
BRANCH  33  34
ATOM     34  C28 NON d   1     -38.726  21.368 -10.110  0.00  0.00    -0.056 A 
ATOM     35  C29 NON d   1     -37.432  20.920  -9.838  0.00  0.00     0.007 A 
ATOM     36  C30 NON d   1     -36.412  20.972 -10.800  0.00  0.00     0.001 A 
ATOM     37  C31 NON d   1     -36.647  21.537 -12.045  0.00  0.00     0.000 A 
ATOM     38  C32 NON d   1     -37.902  22.066 -12.320  0.00  0.00     0.001 A 
ATOM     39  C33 NON d   1     -38.927  21.974 -11.369  0.00  0.00     0.007 A 
ENDBRANCH  33  34
ENDBRANCH  19  33
BRANCH   4  40
ATOM     40  C3  NON d   1     -38.469  26.587  -7.012  0.00  0.00     0.073 C 
BRANCH  40  41
ATOM     41  C4  NON d   1     -38.138  26.253  -8.454  0.00  0.00    -0.056 A 
ATOM     42  C5  NON d   1     -37.130  25.338  -8.773  0.00  0.00     0.007 A 
ATOM     43  C6  NON d   1     -36.875  24.989 -10.102  0.00  0.00     0.001 A 
ATOM     44  C7  NON d   1     -37.655  25.518 -11.128  0.00  0.00     0.000 A 
ATOM     45  C8  NON d   1     -38.678  26.411 -10.824  0.00  0.00     0.001 A 
ATOM     46  C9  NON d   1     -38.909  26.787  -9.505  0.00  0.00     0.007 A 
ENDBRANCH  40  41
ENDBRANCH   4  40
TORSDOF 11
ENDMDL
