MODEL 1
REMARK VINA RESULT:   -17.282      0.000      0.000
REMARK INTER + INTRA:         -20.809
REMARK INTER:                 -19.668
REMARK INTRA:                  -1.141
REMARK CONF_INDEPENDENT:        2.386
REMARK UNBOUND:                -1.141
REMARK  8 active torsions:
REMARK  status: ('A' for Active; 'I' for Inactive)
REMARK    1  A    between atoms: C1_2  and  C2_3 
REMARK       I    between atoms: C1_2  and  N3_21 
REMARK    2  A    between atoms: C2_3  and  C3_4 
REMARK    3  A    between atoms: C3_4  and  C4_5 
REMARK    4  A    between atoms: C4_5  and  C5_6 
REMARK    5  A    between atoms: C5_6  and  C6_7 
REMARK    6  A    between atoms: C6_7  and  N1_8 
REMARK       I    between atoms: N1_8  and  C7_9 
REMARK       I    between atoms: C7_9  and  N2_11 
REMARK       I    between atoms: N2_11  and  C8_12 
REMARK    7  A    between atoms: C8_12  and  C9_14 
REMARK    8  A    between atoms: N3_21  and  O4_22 
ROOT
ATOM      1  N1  NON d   1     -48.256  15.396  -3.610  0.00  0.00    -0.343 N 
ATOM      2  C7  NON d   1     -47.410  15.748  -4.659  0.00  0.00     0.323 C 
ATOM      3  O2  NON d   1     -47.602  15.381  -5.810  0.00  0.00    -0.247 OA
ATOM      4  N2  NON d   1     -46.331  16.485  -4.221  0.00  0.00    -0.275 N 
ATOM      5  C8  NON d   1     -45.568  17.264  -5.075  0.00  0.00     0.259 C 
ATOM      6  O3  NON d   1     -45.970  17.681  -6.161  0.00  0.00    -0.267 OA
ATOM      7  H11 NON d   1     -48.282  16.081  -2.868  0.00  0.00     0.164 HD
ATOM      8  H12 NON d   1     -45.976  16.207  -3.325  0.00  0.00     0.173 HD
ENDROOT
BRANCH   1   9
ATOM      9  C6  NON d   1     -49.550  14.842  -3.981  0.00  0.00     0.124 C 
BRANCH   9  10
ATOM     10  C5  NON d   1     -50.699  15.221  -3.048  0.00  0.00     0.020 C 
BRANCH  10  11
ATOM     11  C4  NON d   1     -50.536  16.607  -2.418  0.00  0.00     0.002 C 
BRANCH  11  12
ATOM     12  C3  NON d   1     -51.873  17.255  -2.018  0.00  0.00     0.009 C 
BRANCH  12  13
ATOM     13  C2  NON d   1     -53.120  16.465  -2.434  0.00  0.00     0.105 C 
BRANCH  13  14
ATOM     14  C1  NON d   1     -54.418  17.255  -2.547  0.00  0.00     0.240 C 
ATOM     15  O1  NON d   1     -55.037  17.402  -3.595  0.00  0.00    -0.271 OA
ATOM     16  N3  NON d   1     -54.761  17.833  -1.331  0.00  0.00    -0.237 N 
ATOM     17  H17 NON d   1     -54.423  17.415  -0.472  0.00  0.00     0.197 HD
BRANCH  16  18
ATOM     18  O4  NON d   1     -56.062  18.373  -1.261  0.00  0.00    -0.287 OA
ATOM     19  H18 NON d   1     -56.429  18.147  -2.135  0.00  0.00     0.244 HD
ENDBRANCH  16  18
ENDBRANCH  13  14
ENDBRANCH  12  13
ENDBRANCH  11  12
ENDBRANCH  10  11
ENDBRANCH   9  10
ENDBRANCH   1   9
BRANCH   5  20
ATOM     20  C9  NON d   1     -44.220  17.716  -4.612  0.00  0.00     0.032 A 
ATOM     21  C10 NON d   1     -43.571  16.929  -3.642  0.00  0.00     0.018 A 
ATOM     22  C11 NON d   1     -42.288  17.248  -3.190  0.00  0.00     0.019 A 
ATOM     23  C12 NON d   1     -41.639  18.366  -3.704  0.00  0.00     0.006 A 
ATOM     24  I1  NON d   1     -39.719  18.835  -3.059  0.00  0.00    -0.045 I 
ATOM     25  C13 NON d   1     -42.268  19.165  -4.661  0.00  0.00     0.019 A 
ATOM     26  C14 NON d   1     -43.555  18.842  -5.116  0.00  0.00     0.018 A 
ENDBRANCH   5  20
TORSDOF 8
ENDMDL
MODEL 2
REMARK VINA RESULT:   -17.105      1.135      1.708
REMARK INTER + INTRA:         -19.888
REMARK INTER:                 -19.491
REMARK INTRA:                  -0.397
REMARK CONF_INDEPENDENT:        2.386
REMARK UNBOUND:                -0.397
REMARK  8 active torsions:
REMARK  status: ('A' for Active; 'I' for Inactive)
REMARK    1  A    between atoms: C1_2  and  C2_3 
REMARK       I    between atoms: C1_2  and  N3_21 
REMARK    2  A    between atoms: C2_3  and  C3_4 
REMARK    3  A    between atoms: C3_4  and  C4_5 
REMARK    4  A    between atoms: C4_5  and  C5_6 
REMARK    5  A    between atoms: C5_6  and  C6_7 
REMARK    6  A    between atoms: C6_7  and  N1_8 
REMARK       I    between atoms: N1_8  and  C7_9 
REMARK       I    between atoms: C7_9  and  N2_11 
REMARK       I    between atoms: N2_11  and  C8_12 
REMARK    7  A    between atoms: C8_12  and  C9_14 
REMARK    8  A    between atoms: N3_21  and  O4_22 
ROOT
ATOM      1  N1  NON d   1     -48.316  15.445  -3.601  0.00  0.00    -0.343 N 
ATOM      2  C7  NON d   1     -47.471  15.757  -4.662  0.00  0.00     0.323 C 
ATOM      3  O2  NON d   1     -47.697  15.403  -5.811  0.00  0.00    -0.247 OA
ATOM      4  N2  NON d   1     -46.350  16.439  -4.239  0.00  0.00    -0.275 N 
ATOM      5  C8  NON d   1     -45.562  17.182  -5.104  0.00  0.00     0.259 C 
ATOM      6  O3  NON d   1     -45.959  17.620  -6.182  0.00  0.00    -0.267 OA
ATOM      7  H11 NON d   1     -48.297  16.129  -2.858  0.00  0.00     0.164 HD
ATOM      8  H12 NON d   1     -45.996  16.142  -3.349  0.00  0.00     0.173 HD
ENDROOT
BRANCH   1   9
ATOM      9  C6  NON d   1     -49.642  14.956  -3.953  0.00  0.00     0.124 C 
BRANCH   9  10
ATOM     10  C5  NON d   1     -50.732  15.272  -2.930  0.00  0.00     0.020 C 
BRANCH  10  11
ATOM     11  C4  NON d   1     -50.706  16.724  -2.445  0.00  0.00     0.002 C 
BRANCH  11  12
ATOM     12  C3  NON d   1     -52.078  17.230  -1.964  0.00  0.00     0.009 C 
BRANCH  12  13
ATOM     13  C2  NON d   1     -52.048  18.013  -0.646  0.00  0.00     0.105 C 
BRANCH  13  14
ATOM     14  C1  NON d   1     -53.324  18.752  -0.266  0.00  0.00     0.240 C 
ATOM     15  O1  NON d   1     -53.412  19.973  -0.205  0.00  0.00    -0.271 OA
ATOM     16  N3  NON d   1     -54.341  17.863   0.062  0.00  0.00    -0.237 N 
ATOM     17  H17 NON d   1     -54.319  16.925  -0.321  0.00  0.00     0.197 HD
BRANCH  16  18
ATOM     18  O4  NON d   1     -55.626  18.429   0.185  0.00  0.00    -0.287 OA
ATOM     19  H18 NON d   1     -56.194  17.641   0.263  0.00  0.00     0.244 HD
ENDBRANCH  16  18
ENDBRANCH  13  14
ENDBRANCH  12  13
ENDBRANCH  11  12
ENDBRANCH  10  11
ENDBRANCH   9  10
ENDBRANCH   1   9
BRANCH   5  20
ATOM     20  C9  NON d   1     -44.186  17.566  -4.660  0.00  0.00     0.032 A 
ATOM     21  C10 NON d   1     -43.676  18.794  -5.121  0.00  0.00     0.018 A 
ATOM     22  C11 NON d   1     -42.420  19.255  -4.716  0.00  0.00     0.019 A 
ATOM     23  C12 NON d   1     -41.658  18.486  -3.842  0.00  0.00     0.006 A 
ATOM     24  I1  NON d   1     -39.802  19.176  -3.210  0.00  0.00    -0.045 I 
ATOM     25  C13 NON d   1     -42.142  17.262  -3.377  0.00  0.00     0.019 A 
ATOM     26  C14 NON d   1     -43.404  16.802  -3.783  0.00  0.00     0.018 A 
ENDBRANCH   5  20
TORSDOF 8
ENDMDL
MODEL 3
REMARK VINA RESULT:   -14.792      4.233      5.586
REMARK INTER + INTRA:         -18.842
REMARK INTER:                 -17.178
REMARK INTRA:                  -1.664
REMARK CONF_INDEPENDENT:        2.386
REMARK UNBOUND:                -1.664
REMARK  8 active torsions:
REMARK  status: ('A' for Active; 'I' for Inactive)
REMARK    1  A    between atoms: C1_2  and  C2_3 
REMARK       I    between atoms: C1_2  and  N3_21 
REMARK    2  A    between atoms: C2_3  and  C3_4 
REMARK    3  A    between atoms: C3_4  and  C4_5 
REMARK    4  A    between atoms: C4_5  and  C5_6 
REMARK    5  A    between atoms: C5_6  and  C6_7 
REMARK    6  A    between atoms: C6_7  and  N1_8 
REMARK       I    between atoms: N1_8  and  C7_9 
REMARK       I    between atoms: C7_9  and  N2_11 
REMARK       I    between atoms: N2_11  and  C8_12 
REMARK    7  A    between atoms: C8_12  and  C9_14 
REMARK    8  A    between atoms: N3_21  and  O4_22 
ROOT
ATOM      1  N1  NON d   1     -45.173  17.946  -3.896  0.00  0.00    -0.343 N 
ATOM      2  C7  NON d   1     -43.789  17.788  -3.924  0.00  0.00     0.323 C 
ATOM      3  O2  NON d   1     -43.212  16.925  -3.277  0.00  0.00    -0.247 OA
ATOM      4  N2  NON d   1     -43.181  18.749  -4.703  0.00  0.00    -0.275 N 
ATOM      5  C8  NON d   1     -41.895  18.599  -5.198  0.00  0.00     0.259 C 
ATOM      6  O3  NON d   1     -41.339  17.510  -5.332  0.00  0.00    -0.267 OA
ATOM      7  H11 NON d   1     -45.550  18.326  -4.752  0.00  0.00     0.164 HD
ATOM      8  H12 NON d   1     -43.610  19.654  -4.655  0.00  0.00     0.173 HD
ENDROOT
BRANCH   1   9
ATOM      9  C6  NON d   1     -45.937  16.848  -3.320  0.00  0.00     0.124 C 
BRANCH   9  10
ATOM     10  C5  NON d   1     -47.225  17.269  -2.613  0.00  0.00     0.020 C 
BRANCH  10  11
ATOM     11  C4  NON d   1     -48.205  16.113  -2.401  0.00  0.00     0.002 C 
BRANCH  11  12
ATOM     12  C3  NON d   1     -49.243  15.979  -3.530  0.00  0.00     0.009 C 
BRANCH  12  13
ATOM     13  C2  NON d   1     -48.792  15.120  -4.718  0.00  0.00     0.105 C 
BRANCH  13  14
ATOM     14  C1  NON d   1     -47.679  15.693  -5.586  0.00  0.00     0.240 C 
ATOM     15  O1  NON d   1     -46.917  15.006  -6.256  0.00  0.00    -0.271 OA
ATOM     16  N3  NON d   1     -47.606  17.075  -5.462  0.00  0.00    -0.237 N 
ATOM     17  H17 NON d   1     -48.433  17.591  -5.186  0.00  0.00     0.197 HD
BRANCH  16  18
ATOM     18  O4  NON d   1     -46.783  17.726  -6.404  0.00  0.00    -0.287 OA
ATOM     19  H18 NON d   1     -46.443  16.982  -6.934  0.00  0.00     0.244 HD
ENDBRANCH  16  18
ENDBRANCH  13  14
ENDBRANCH  12  13
ENDBRANCH  11  12
ENDBRANCH  10  11
ENDBRANCH   9  10
ENDBRANCH   1   9
BRANCH   5  20
ATOM     20  C9  NON d   1     -41.180  19.813  -5.697  0.00  0.00     0.032 A 
ATOM     21  C10 NON d   1     -41.027  19.948  -7.090  0.00  0.00     0.018 A 
ATOM     22  C11 NON d   1     -40.416  21.076  -7.646  0.00  0.00     0.019 A 
ATOM     23  C12 NON d   1     -39.948  22.084  -6.809  0.00  0.00     0.006 A 
ATOM     24  I1  NON d   1     -39.064  23.778  -7.627  0.00  0.00    -0.045 I 
ATOM     25  C13 NON d   1     -40.084  21.967  -5.424  0.00  0.00     0.019 A 
ATOM     26  C14 NON d   1     -40.699  20.836  -4.868  0.00  0.00     0.018 A 
ENDBRANCH   5  20
TORSDOF 8
ENDMDL
MODEL 4
REMARK VINA RESULT:   -14.541      5.674      8.850
REMARK INTER + INTRA:         -18.030
REMARK INTER:                 -16.927
REMARK INTRA:                  -1.103
REMARK CONF_INDEPENDENT:        2.386
REMARK UNBOUND:                -1.103
REMARK  8 active torsions:
REMARK  status: ('A' for Active; 'I' for Inactive)
REMARK    1  A    between atoms: C1_2  and  C2_3 
REMARK       I    between atoms: C1_2  and  N3_21 
REMARK    2  A    between atoms: C2_3  and  C3_4 
REMARK    3  A    between atoms: C3_4  and  C4_5 
REMARK    4  A    between atoms: C4_5  and  C5_6 
REMARK    5  A    between atoms: C5_6  and  C6_7 
REMARK    6  A    between atoms: C6_7  and  N1_8 
REMARK       I    between atoms: N1_8  and  C7_9 
REMARK       I    between atoms: C7_9  and  N2_11 
REMARK       I    between atoms: N2_11  and  C8_12 
REMARK    7  A    between atoms: C8_12  and  C9_14 
REMARK    8  A    between atoms: N3_21  and  O4_22 
ROOT
ATOM      1  N1  NON d   1     -40.102  18.625  -2.131  0.00  0.00    -0.343 N 
ATOM      2  C7  NON d   1     -39.874  19.978  -2.367  0.00  0.00     0.323 C 
ATOM      3  O2  NON d   1     -39.486  20.402  -3.446  0.00  0.00    -0.247 OA
ATOM      4  N2  NON d   1     -40.077  20.736  -1.233  0.00  0.00    -0.275 N 
ATOM      5  C8  NON d   1     -40.288  22.104  -1.282  0.00  0.00     0.259 C 
ATOM      6  O3  NON d   1     -40.693  22.697  -2.282  0.00  0.00    -0.267 OA
ATOM      7  H11 NON d   1     -40.814  18.453  -1.435  0.00  0.00     0.164 HD
ATOM      8  H12 NON d   1     -39.790  20.291  -0.381  0.00  0.00     0.173 HD
ENDROOT
BRANCH   1   9
ATOM      9  C6  NON d   1     -40.168  17.767  -3.305  0.00  0.00     0.124 C 
BRANCH   9  10
ATOM     10  C5  NON d   1     -41.422  17.949  -4.159  0.00  0.00     0.020 C 
BRANCH  10  11
ATOM     11  C4  NON d   1     -42.656  17.253  -3.580  0.00  0.00     0.002 C 
BRANCH  11  12
ATOM     12  C3  NON d   1     -43.699  16.874  -4.647  0.00  0.00     0.009 C 
BRANCH  12  13
ATOM     13  C2  NON d   1     -45.146  17.234  -4.287  0.00  0.00     0.105 C 
BRANCH  13  14
ATOM     14  C1  NON d   1     -46.198  16.958  -5.353  0.00  0.00     0.240 C 
ATOM     15  O1  NON d   1     -46.478  17.742  -6.253  0.00  0.00    -0.271 OA
ATOM     16  N3  NON d   1     -46.835  15.744  -5.128  0.00  0.00    -0.237 N 
ATOM     17  H17 NON d   1     -46.352  15.022  -4.606  0.00  0.00     0.197 HD
BRANCH  16  18
ATOM     18  O4  NON d   1     -47.644  15.277  -6.184  0.00  0.00    -0.287 OA
ATOM     19  H18 NON d   1     -47.908  16.105  -6.626  0.00  0.00     0.244 HD
ENDBRANCH  16  18
ENDBRANCH  13  14
ENDBRANCH  12  13
ENDBRANCH  11  12
ENDBRANCH  10  11
ENDBRANCH   9  10
ENDBRANCH   1   9
BRANCH   5  20
ATOM     20  C9  NON d   1     -40.120  22.895  -0.024  0.00  0.00     0.032 A 
ATOM     21  C10 NON d   1     -41.110  23.849   0.278  0.00  0.00     0.018 A 
ATOM     22  C11 NON d   1     -41.059  24.597   1.458  0.00  0.00     0.019 A 
ATOM     23  C12 NON d   1     -40.011  24.398   2.350  0.00  0.00     0.006 A 
ATOM     24  I1  NON d   1     -39.941  25.483   4.122  0.00  0.00    -0.045 I 
ATOM     25  C13 NON d   1     -39.015  23.461   2.067  0.00  0.00     0.019 A 
ATOM     26  C14 NON d   1     -39.069  22.710   0.883  0.00  0.00     0.018 A 
ENDBRANCH   5  20
TORSDOF 8
ENDMDL
