MODEL 1
REMARK VINA RESULT:   -15.501      0.000      0.000
REMARK INTER + INTRA:         -19.308
REMARK INTER:                 -17.888
REMARK INTRA:                  -1.420
REMARK CONF_INDEPENDENT:        2.386
REMARK UNBOUND:                -1.420
REMARK  8 active torsions:
REMARK  status: ('A' for Active; 'I' for Inactive)
REMARK    1  A    between atoms: C3_3  and  C4_4 
REMARK    2  A    between atoms: C10_11  and  C11_12 
REMARK    3  A    between atoms: C15_16  and  C16_17 
REMARK    4  A    between atoms: C17_18  and  C18_19 
REMARK       I    between atoms: C18_19  and  N2_21 
REMARK    5  A    between atoms: N2_21  and  O2_22 
REMARK    6  A    between atoms: N3_24  and  C20_25 
REMARK    7  A    between atoms: C20_25  and  C21_26 
REMARK    8  A    between atoms: C21_26  and  C22_27 
ROOT
ATOM      1  C1  NON d   1     -38.978  23.988  -5.502  0.00  0.00     0.071 C 
ATOM      2  C2  NON d   1     -39.673  22.621  -5.644  0.00  0.00     0.039 A 
ATOM      3  C3  NON d   1     -40.075  21.950  -6.779  0.00  0.00     0.091 A 
ATOM      4  N1  NON d   1     -40.761  20.818  -6.423  0.00  0.00    -0.228 NA
ATOM      5  C10 NON d   1     -40.829  20.719  -5.098  0.00  0.00     0.141 A 
ATOM      6  N3  NON d   1     -40.160  21.833  -4.547  0.00  0.00    -0.332 N 
ENDROOT
BRANCH   5   7
ATOM      7  C11 NON d   1     -41.457  19.479  -4.512  0.00  0.00     0.011 C 
ATOM      8  C12 NON d   1     -41.017  19.058  -3.244  0.00  0.00     0.015 C 
ATOM      9  C13 NON d   1     -41.557  17.937  -2.588  0.00  0.00     0.002 C 
ATOM     10  C14 NON d   1     -42.616  17.227  -3.151  0.00  0.00     0.011 C 
ATOM     11  C15 NON d   1     -43.074  17.579  -4.414  0.00  0.00    -0.035 C 
ATOM     12  C19 NON d   1     -42.399  18.629  -5.100  0.00  0.00     0.026 C 
BRANCH  11  13
ATOM     13  C16 NON d   1     -44.274  17.006  -5.061  0.00  0.00     0.017 C 
ATOM     14  C17 NON d   1     -45.450  16.637  -4.519  0.00  0.00     0.077 C 
BRANCH  14  15
ATOM     15  C18 NON d   1     -46.557  16.248  -5.446  0.00  0.00     0.264 C 
ATOM     16  O1  NON d   1     -47.093  15.140  -5.397  0.00  0.00    -0.266 OA
ATOM     17  N2  NON d   1     -46.971  17.159  -6.369  0.00  0.00    -0.234 N 
ATOM     18  H14 NON d   1     -47.675  16.864  -7.042  0.00  0.00     0.197 HD
BRANCH  17  19
ATOM     19  O2  NON d   1     -46.303  18.378  -6.561  0.00  0.00    -0.287 OA
ATOM     20  H15 NON d   1     -46.071  18.650  -5.653  0.00  0.00     0.244 HD
ENDBRANCH  17  19
ENDBRANCH  14  15
ENDBRANCH  11  13
ENDBRANCH   5   7
BRANCH   6  21
ATOM     21  C20 NON d   1     -39.857  22.252  -3.167  0.00  0.00     0.135 C 
BRANCH  21  22
ATOM     22  C21 NON d   1     -40.690  23.285  -2.427  0.00  0.00     0.058 C 
BRANCH  22  23
ATOM     23  C22 NON d   1     -40.829  23.290  -0.918  0.00  0.00    -0.057 A 
ATOM     24  C23 NON d   1     -41.331  24.472  -0.336  0.00  0.00     0.007 A 
ATOM     25  C24 NON d   1     -41.355  24.656   1.045  0.00  0.00     0.001 A 
ATOM     26  C25 NON d   1     -40.889  23.649   1.877  0.00  0.00     0.000 A 
ATOM     27  C26 NON d   1     -40.406  22.462   1.323  0.00  0.00     0.001 A 
ATOM     28  C27 NON d   1     -40.370  22.282  -0.069  0.00  0.00     0.007 A 
ENDBRANCH  22  23
ENDBRANCH  21  22
ENDBRANCH   6  21
BRANCH   3  29
ATOM     29  C4  NON d   1     -39.827  22.306  -8.179  0.00  0.00    -0.005 A 
ATOM     30  C5  NON d   1     -40.068  23.587  -8.703  0.00  0.00     0.014 A 
ATOM     31  C6  NON d   1     -39.755  23.898 -10.031  0.00  0.00     0.001 A 
ATOM     32  C7  NON d   1     -39.221  22.925 -10.867  0.00  0.00     0.000 A 
ATOM     33  C8  NON d   1     -39.005  21.639 -10.379  0.00  0.00     0.001 A 
ATOM     34  C9  NON d   1     -39.303  21.335  -9.045  0.00  0.00     0.014 A 
ENDBRANCH   3  29
TORSDOF 8
ENDMDL
MODEL 2
REMARK VINA RESULT:   -14.817      1.408      2.088
REMARK INTER + INTRA:         -18.567
REMARK INTER:                 -17.203
REMARK INTRA:                  -1.364
REMARK CONF_INDEPENDENT:        2.386
REMARK UNBOUND:                -1.364
REMARK  8 active torsions:
REMARK  status: ('A' for Active; 'I' for Inactive)
REMARK    1  A    between atoms: C3_3  and  C4_4 
REMARK    2  A    between atoms: C10_11  and  C11_12 
REMARK    3  A    between atoms: C15_16  and  C16_17 
REMARK    4  A    between atoms: C17_18  and  C18_19 
REMARK       I    between atoms: C18_19  and  N2_21 
REMARK    5  A    between atoms: N2_21  and  O2_22 
REMARK    6  A    between atoms: N3_24  and  C20_25 
REMARK    7  A    between atoms: C20_25  and  C21_26 
REMARK    8  A    between atoms: C21_26  and  C22_27 
ROOT
ATOM      1  C1  NON d   1     -37.814  22.791  -5.845  0.00  0.00     0.071 C 
ATOM      2  C2  NON d   1     -38.616  21.479  -5.771  0.00  0.00     0.039 A 
ATOM      3  C3  NON d   1     -38.690  20.439  -6.672  0.00  0.00     0.091 A 
ATOM      4  N1  NON d   1     -39.624  19.530  -6.247  0.00  0.00    -0.228 NA
ATOM      5  C10 NON d   1     -40.170  19.934  -5.102  0.00  0.00     0.141 A 
ATOM      6  N3  NON d   1     -39.576  21.164  -4.750  0.00  0.00    -0.332 N 
ENDROOT
BRANCH   5   7
ATOM      7  C11 NON d   1     -41.148  19.010  -4.420  0.00  0.00     0.011 C 
ATOM      8  C12 NON d   1     -41.064  18.882  -3.022  0.00  0.00     0.015 C 
ATOM      9  C13 NON d   1     -41.946  18.076  -2.279  0.00  0.00     0.002 C 
ATOM     10  C14 NON d   1     -43.001  17.414  -2.907  0.00  0.00     0.011 C 
ATOM     11  C15 NON d   1     -43.117  17.480  -4.289  0.00  0.00    -0.035 C 
ATOM     12  C19 NON d   1     -42.116  18.189  -5.010  0.00  0.00     0.026 C 
BRANCH  11  13
ATOM     13  C16 NON d   1     -44.262  16.947  -5.060  0.00  0.00     0.017 C 
ATOM     14  C17 NON d   1     -45.445  16.473  -4.628  0.00  0.00     0.077 C 
BRANCH  14  15
ATOM     15  C18 NON d   1     -46.490  16.161  -5.649  0.00  0.00     0.264 C 
ATOM     16  O1  NON d   1     -47.019  15.050  -5.728  0.00  0.00    -0.266 OA
ATOM     17  N2  NON d   1     -46.857  17.145  -6.515  0.00  0.00    -0.234 N 
ATOM     18  H14 NON d   1     -47.517  16.907  -7.251  0.00  0.00     0.197 HD
BRANCH  17  19
ATOM     19  O2  NON d   1     -46.190  18.380  -6.560  0.00  0.00    -0.287 OA
ATOM     20  H15 NON d   1     -46.092  18.615  -5.618  0.00  0.00     0.244 HD
ENDBRANCH  17  19
ENDBRANCH  14  15
ENDBRANCH  11  13
ENDBRANCH   5   7
BRANCH   6  21
ATOM     21  C20 NON d   1     -39.717  22.063  -3.591  0.00  0.00     0.135 C 
BRANCH  21  22
ATOM     22  C21 NON d   1     -39.842  21.545  -2.168  0.00  0.00     0.058 C 
BRANCH  22  23
ATOM     23  C22 NON d   1     -40.208  22.443  -1.003  0.00  0.00    -0.057 A 
ATOM     24  C23 NON d   1     -40.315  21.824   0.259  0.00  0.00     0.007 A 
ATOM     25  C24 NON d   1     -40.797  22.508   1.373  0.00  0.00     0.001 A 
ATOM     26  C25 NON d   1     -41.170  23.839   1.248  0.00  0.00     0.000 A 
ATOM     27  C26 NON d   1     -41.053  24.478   0.012  0.00  0.00     0.001 A 
ATOM     28  C27 NON d   1     -40.579  23.784  -1.112  0.00  0.00     0.007 A 
ENDBRANCH  22  23
ENDBRANCH  21  22
ENDBRANCH   6  21
BRANCH   3  29
ATOM     29  C4  NON d   1     -37.913  20.245  -7.899  0.00  0.00    -0.005 A 
ATOM     30  C5  NON d   1     -37.350  19.013  -8.269  0.00  0.00     0.014 A 
ATOM     31  C6  NON d   1     -36.671  18.860  -9.483  0.00  0.00     0.001 A 
ATOM     32  C7  NON d   1     -36.518  19.946 -10.337  0.00  0.00     0.000 A 
ATOM     33  C8  NON d   1     -37.038  21.185  -9.975  0.00  0.00     0.001 A 
ATOM     34  C9  NON d   1     -37.732  21.332  -8.769  0.00  0.00     0.014 A 
ENDBRANCH   3  29
TORSDOF 8
ENDMDL
MODEL 3
REMARK VINA RESULT:   -14.710      1.549      5.984
REMARK INTER + INTRA:         -18.583
REMARK INTER:                 -17.096
REMARK INTRA:                  -1.487
REMARK CONF_INDEPENDENT:        2.386
REMARK UNBOUND:                -1.487
REMARK  8 active torsions:
REMARK  status: ('A' for Active; 'I' for Inactive)
REMARK    1  A    between atoms: C3_3  and  C4_4 
REMARK    2  A    between atoms: C10_11  and  C11_12 
REMARK    3  A    between atoms: C15_16  and  C16_17 
REMARK    4  A    between atoms: C17_18  and  C18_19 
REMARK       I    between atoms: C18_19  and  N2_21 
REMARK    5  A    between atoms: N2_21  and  O2_22 
REMARK    6  A    between atoms: N3_24  and  C20_25 
REMARK    7  A    between atoms: C20_25  and  C21_26 
REMARK    8  A    between atoms: C21_26  and  C22_27 
ROOT
ATOM      1  C1  NON d   1     -39.038  23.526  -6.359  0.00  0.00     0.071 C 
ATOM      2  C2  NON d   1     -39.885  22.619  -5.447  0.00  0.00     0.039 A 
ATOM      3  C3  NON d   1     -40.542  22.917  -4.273  0.00  0.00     0.091 A 
ATOM      4  N1  NON d   1     -41.069  21.770  -3.739  0.00  0.00    -0.228 NA
ATOM      5  C10 NON d   1     -40.781  20.728  -4.515  0.00  0.00     0.141 A 
ATOM      6  N3  NON d   1     -40.030  21.200  -5.612  0.00  0.00    -0.332 N 
ENDROOT
BRANCH   5   7
ATOM      7  C11 NON d   1     -41.368  19.388  -4.146  0.00  0.00     0.011 C 
ATOM      8  C12 NON d   1     -40.883  18.756  -2.986  0.00  0.00     0.015 C 
ATOM      9  C13 NON d   1     -41.382  17.523  -2.529  0.00  0.00     0.002 C 
ATOM     10  C14 NON d   1     -42.444  16.901  -3.185  0.00  0.00     0.011 C 
ATOM     11  C15 NON d   1     -42.944  17.462  -4.352  0.00  0.00    -0.035 C 
ATOM     12  C19 NON d   1     -42.311  18.634  -4.853  0.00  0.00     0.026 C 
BRANCH  11  13
ATOM     13  C16 NON d   1     -44.152  16.986  -5.060  0.00  0.00     0.017 C 
ATOM     14  C17 NON d   1     -45.307  16.505  -4.565  0.00  0.00     0.077 C 
BRANCH  14  15
ATOM     15  C18 NON d   1     -46.432  16.261  -5.519  0.00  0.00     0.264 C 
ATOM     16  O1  NON d   1     -47.081  15.213  -5.512  0.00  0.00    -0.266 OA
ATOM     17  N2  NON d   1     -46.734  17.237  -6.419  0.00  0.00    -0.234 N 
ATOM     18  H14 NON d   1     -47.452  17.038  -7.110  0.00  0.00     0.197 HD
BRANCH  17  19
ATOM     19  O2  NON d   1     -45.940  18.386  -6.562  0.00  0.00    -0.287 OA
ATOM     20  H15 NON d   1     -46.041  18.610  -7.507  0.00  0.00     0.244 HD
ENDBRANCH  17  19
ENDBRANCH  14  15
ENDBRANCH  11  13
ENDBRANCH   5   7
BRANCH   6  21
ATOM     21  C20 NON d   1     -39.474  20.553  -6.813  0.00  0.00     0.135 C 
BRANCH  21  22
ATOM     22  C21 NON d   1     -40.154  20.631  -8.170  0.00  0.00     0.058 C 
BRANCH  22  23
ATOM     23  C22 NON d   1     -39.826  21.707  -9.185  0.00  0.00    -0.057 A 
ATOM     24  C23 NON d   1     -38.840  21.390 -10.141  0.00  0.00     0.007 A 
ATOM     25  C24 NON d   1     -38.340  22.346 -11.023  0.00  0.00     0.001 A 
ATOM     26  C25 NON d   1     -38.830  23.643 -10.975  0.00  0.00     0.000 A 
ATOM     27  C26 NON d   1     -39.821  23.974 -10.049  0.00  0.00     0.001 A 
ATOM     28  C27 NON d   1     -40.315  23.014  -9.152  0.00  0.00     0.007 A 
ENDBRANCH  22  23
ENDBRANCH  21  22
ENDBRANCH   6  21
BRANCH   3  29
ATOM     29  C4  NON d   1     -40.719  24.227  -3.640  0.00  0.00    -0.005 A 
ATOM     30  C5  NON d   1     -41.428  25.282  -4.236  0.00  0.00     0.014 A 
ATOM     31  C6  NON d   1     -41.627  26.494  -3.565  0.00  0.00     0.001 A 
ATOM     32  C7  NON d   1     -41.096  26.682  -2.294  0.00  0.00     0.000 A 
ATOM     33  C8  NON d   1     -40.360  25.661  -1.698  0.00  0.00     0.001 A 
ATOM     34  C9  NON d   1     -40.177  24.444  -2.364  0.00  0.00     0.014 A 
ENDBRANCH   3  29
TORSDOF 8
ENDMDL
MODEL 4
REMARK VINA RESULT:   -14.486      2.138      5.513
REMARK INTER + INTRA:         -18.678
REMARK INTER:                 -16.872
REMARK INTRA:                  -1.806
REMARK CONF_INDEPENDENT:        2.386
REMARK UNBOUND:                -1.806
REMARK  8 active torsions:
REMARK  status: ('A' for Active; 'I' for Inactive)
REMARK    1  A    between atoms: C3_3  and  C4_4 
REMARK    2  A    between atoms: C10_11  and  C11_12 
REMARK    3  A    between atoms: C15_16  and  C16_17 
REMARK    4  A    between atoms: C17_18  and  C18_19 
REMARK       I    between atoms: C18_19  and  N2_21 
REMARK    5  A    between atoms: N2_21  and  O2_22 
REMARK    6  A    between atoms: N3_24  and  C20_25 
REMARK    7  A    between atoms: C20_25  and  C21_26 
REMARK    8  A    between atoms: C21_26  and  C22_27 
ROOT
ATOM      1  C1  NON d   1     -39.661  23.852  -6.402  0.00  0.00     0.071 C 
ATOM      2  C2  NON d   1     -40.265  22.856  -5.394  0.00  0.00     0.039 A 
ATOM      3  C3  NON d   1     -40.486  22.996  -4.041  0.00  0.00     0.091 A 
ATOM      4  N1  NON d   1     -40.932  21.807  -3.524  0.00  0.00    -0.228 NA
ATOM      5  C10 NON d   1     -41.009  20.889  -4.484  0.00  0.00     0.141 A 
ATOM      6  N3  NON d   1     -40.598  21.492  -5.692  0.00  0.00    -0.332 N 
ENDROOT
BRANCH   5   7
ATOM      7  C11 NON d   1     -41.583  19.541  -4.129  0.00  0.00     0.011 C 
ATOM      8  C12 NON d   1     -41.090  18.900  -2.977  0.00  0.00     0.015 C 
ATOM      9  C13 NON d   1     -41.576  17.658  -2.533  0.00  0.00     0.002 C 
ATOM     10  C14 NON d   1     -42.635  17.034  -3.192  0.00  0.00     0.011 C 
ATOM     11  C15 NON d   1     -43.144  17.604  -4.351  0.00  0.00    -0.035 C 
ATOM     12  C19 NON d   1     -42.522  18.787  -4.842  0.00  0.00     0.026 C 
BRANCH  11  13
ATOM     13  C16 NON d   1     -44.349  17.124  -5.062  0.00  0.00     0.017 C 
ATOM     14  C17 NON d   1     -45.445  16.509  -4.580  0.00  0.00     0.077 C 
BRANCH  14  15
ATOM     15  C18 NON d   1     -46.594  16.294  -5.511  0.00  0.00     0.264 C 
ATOM     16  O1  NON d   1     -47.290  15.277  -5.468  0.00  0.00    -0.266 OA
ATOM     17  N2  NON d   1     -46.866  17.260  -6.430  0.00  0.00    -0.234 N 
ATOM     18  H14 NON d   1     -47.604  17.077  -7.106  0.00  0.00     0.197 HD
BRANCH  17  19
ATOM     19  O2  NON d   1     -46.024  18.368  -6.614  0.00  0.00    -0.287 OA
ATOM     20  H15 NON d   1     -46.093  18.544  -7.572  0.00  0.00     0.244 HD
ENDBRANCH  17  19
ENDBRANCH  14  15
ENDBRANCH  11  13
ENDBRANCH   5   7
BRANCH   6  21
ATOM     21  C20 NON d   1     -40.517  21.017  -7.085  0.00  0.00     0.135 C 
BRANCH  21  22
ATOM     22  C21 NON d   1     -39.858  19.700  -7.461  0.00  0.00     0.058 C 
BRANCH  22  23
ATOM     23  C22 NON d   1     -38.552  19.239  -6.845  0.00  0.00    -0.057 A 
ATOM     24  C23 NON d   1     -37.637  18.607  -7.713  0.00  0.00     0.007 A 
ATOM     25  C24 NON d   1     -36.476  18.000  -7.237  0.00  0.00     0.001 A 
ATOM     26  C25 NON d   1     -36.199  18.026  -5.878  0.00  0.00     0.000 A 
ATOM     27  C26 NON d   1     -37.082  18.663  -5.004  0.00  0.00     0.001 A 
ATOM     28  C27 NON d   1     -38.257  19.263  -5.481  0.00  0.00     0.007 A 
ENDBRANCH  22  23
ENDBRANCH  21  22
ENDBRANCH   6  21
BRANCH   3  29
ATOM     29  C4  NON d   1     -40.321  24.195  -3.214  0.00  0.00    -0.005 A 
ATOM     30  C5  NON d   1     -41.247  25.250  -3.191  0.00  0.00     0.014 A 
ATOM     31  C6  NON d   1     -41.079  26.345  -2.336  0.00  0.00     0.001 A 
ATOM     32  C7  NON d   1     -39.966  26.417  -1.508  0.00  0.00     0.000 A 
ATOM     33  C8  NON d   1     -39.017  25.399  -1.538  0.00  0.00     0.001 A 
ATOM     34  C9  NON d   1     -39.195  24.297  -2.381  0.00  0.00     0.014 A 
ENDBRANCH   3  29
TORSDOF 8
ENDMDL
MODEL 5
REMARK VINA RESULT:   -14.420      1.025      1.597
REMARK INTER + INTRA:         -18.750
REMARK INTER:                 -16.806
REMARK INTRA:                  -1.944
REMARK CONF_INDEPENDENT:        2.386
REMARK UNBOUND:                -1.944
REMARK  8 active torsions:
REMARK  status: ('A' for Active; 'I' for Inactive)
REMARK    1  A    between atoms: C3_3  and  C4_4 
REMARK    2  A    between atoms: C10_11  and  C11_12 
REMARK    3  A    between atoms: C15_16  and  C16_17 
REMARK    4  A    between atoms: C17_18  and  C18_19 
REMARK       I    between atoms: C18_19  and  N2_21 
REMARK    5  A    between atoms: N2_21  and  O2_22 
REMARK    6  A    between atoms: N3_24  and  C20_25 
REMARK    7  A    between atoms: C20_25  and  C21_26 
REMARK    8  A    between atoms: C21_26  and  C22_27 
ROOT
ATOM      1  C1  NON d   1     -37.306  22.172  -5.796  0.00  0.00     0.071 C 
ATOM      2  C2  NON d   1     -38.594  21.328  -5.788  0.00  0.00     0.039 A 
ATOM      3  C3  NON d   1     -39.610  21.263  -6.716  0.00  0.00     0.091 A 
ATOM      4  N1  NON d   1     -40.618  20.467  -6.238  0.00  0.00    -0.228 NA
ATOM      5  C10 NON d   1     -40.306  20.008  -5.028  0.00  0.00     0.141 A 
ATOM      6  N3  NON d   1     -39.036  20.520  -4.686  0.00  0.00    -0.332 N 
ENDROOT
BRANCH   5   7
ATOM      7  C11 NON d   1     -41.248  19.025  -4.379  0.00  0.00     0.011 C 
ATOM      8  C12 NON d   1     -41.143  18.835  -2.989  0.00  0.00     0.015 C 
ATOM      9  C13 NON d   1     -41.992  17.971  -2.276  0.00  0.00     0.002 C 
ATOM     10  C14 NON d   1     -43.034  17.307  -2.922  0.00  0.00     0.011 C 
ATOM     11  C15 NON d   1     -43.169  17.432  -4.298  0.00  0.00    -0.035 C 
ATOM     12  C19 NON d   1     -42.198  18.204  -4.996  0.00  0.00     0.026 C 
BRANCH  11  13
ATOM     13  C16 NON d   1     -44.307  16.902  -5.080  0.00  0.00     0.017 C 
ATOM     14  C17 NON d   1     -45.504  16.452  -4.662  0.00  0.00     0.077 C 
BRANCH  14  15
ATOM     15  C18 NON d   1     -46.535  16.136  -5.697  0.00  0.00     0.264 C 
ATOM     16  O1  NON d   1     -47.036  15.014  -5.802  0.00  0.00    -0.266 OA
ATOM     17  N2  NON d   1     -46.920  17.129  -6.544  0.00  0.00    -0.234 N 
ATOM     18  H14 NON d   1     -47.569  16.890  -7.290  0.00  0.00     0.197 HD
BRANCH  17  19
ATOM     19  O2  NON d   1     -46.284  18.380  -6.560  0.00  0.00    -0.287 OA
ATOM     20  H15 NON d   1     -46.267  18.633  -5.617  0.00  0.00     0.244 HD
ENDBRANCH  17  19
ENDBRANCH  14  15
ENDBRANCH  11  13
ENDBRANCH   5   7
BRANCH   6  21
ATOM     21  C20 NON d   1     -38.148  20.336  -3.525  0.00  0.00     0.135 C 
BRANCH  21  22
ATOM     22  C21 NON d   1     -38.561  20.718  -2.113  0.00  0.00     0.058 C 
BRANCH  22  23
ATOM     23  C22 NON d   1     -39.402  21.943  -1.815  0.00  0.00    -0.057 A 
ATOM     24  C23 NON d   1     -39.442  22.365  -0.470  0.00  0.00     0.007 A 
ATOM     25  C24 NON d   1     -40.301  23.377  -0.045  0.00  0.00     0.001 A 
ATOM     26  C25 NON d   1     -41.132  23.999  -0.965  0.00  0.00     0.000 A 
ATOM     27  C26 NON d   1     -41.094  23.611  -2.305  0.00  0.00     0.001 A 
ATOM     28  C27 NON d   1     -40.238  22.583  -2.731  0.00  0.00     0.007 A 
ENDBRANCH  22  23
ENDBRANCH  21  22
ENDBRANCH   6  21
BRANCH   3  29
ATOM     29  C4  NON d   1     -39.673  21.893  -8.038  0.00  0.00    -0.005 A 
ATOM     30  C5  NON d   1     -40.108  23.211  -8.245  0.00  0.00     0.014 A 
ATOM     31  C6  NON d   1     -40.089  23.791  -9.519  0.00  0.00     0.001 A 
ATOM     32  C7  NON d   1     -39.659  23.051 -10.614  0.00  0.00     0.000 A 
ATOM     33  C8  NON d   1     -39.255  21.731 -10.438  0.00  0.00     0.001 A 
ATOM     34  C9  NON d   1     -39.258  21.159  -9.161  0.00  0.00     0.014 A 
ENDBRANCH   3  29
TORSDOF 8
ENDMDL
MODEL 6
REMARK VINA RESULT:   -13.182      2.242      5.586
REMARK INTER + INTRA:         -17.753
REMARK INTER:                 -15.568
REMARK INTRA:                  -2.185
REMARK CONF_INDEPENDENT:        2.386
REMARK UNBOUND:                -2.185
REMARK  8 active torsions:
REMARK  status: ('A' for Active; 'I' for Inactive)
REMARK    1  A    between atoms: C3_3  and  C4_4 
REMARK    2  A    between atoms: C10_11  and  C11_12 
REMARK    3  A    between atoms: C15_16  and  C16_17 
REMARK    4  A    between atoms: C17_18  and  C18_19 
REMARK       I    between atoms: C18_19  and  N2_21 
REMARK    5  A    between atoms: N2_21  and  O2_22 
REMARK    6  A    between atoms: N3_24  and  C20_25 
REMARK    7  A    between atoms: C20_25  and  C21_26 
REMARK    8  A    between atoms: C21_26  and  C22_27 
ROOT
ATOM      1  C1  NON d   1     -37.721  23.750  -3.880  0.00  0.00     0.071 C 
ATOM      2  C2  NON d   1     -38.994  22.898  -3.716  0.00  0.00     0.039 A 
ATOM      3  C3  NON d   1     -40.271  23.280  -3.365  0.00  0.00     0.091 A 
ATOM      4  N1  NON d   1     -41.059  22.167  -3.223  0.00  0.00    -0.228 NA
ATOM      5  C10 NON d   1     -40.349  21.068  -3.463  0.00  0.00     0.141 A 
ATOM      6  N3  NON d   1     -39.032  21.464  -3.778  0.00  0.00    -0.332 N 
ENDROOT
BRANCH   5   7
ATOM      7  C11 NON d   1     -41.071  19.744  -3.459  0.00  0.00     0.011 C 
ATOM      8  C12 NON d   1     -40.759  18.828  -2.437  0.00  0.00     0.015 C 
ATOM      9  C13 NON d   1     -41.395  17.580  -2.316  0.00  0.00     0.002 C 
ATOM     10  C14 NON d   1     -42.429  17.224  -3.181  0.00  0.00     0.011 C 
ATOM     11  C15 NON d   1     -42.762  18.074  -4.227  0.00  0.00    -0.035 C 
ATOM     12  C19 NON d   1     -41.992  19.260  -4.395  0.00  0.00     0.026 C 
BRANCH  11  13
ATOM     13  C16 NON d   1     -43.924  17.886  -5.123  0.00  0.00     0.017 C 
ATOM     14  C17 NON d   1     -45.066  17.204  -4.920  0.00  0.00     0.077 C 
BRANCH  14  15
ATOM     15  C18 NON d   1     -46.149  17.330  -5.942  0.00  0.00     0.264 C 
ATOM     16  O1  NON d   1     -46.347  18.378  -6.560  0.00  0.00    -0.266 OA
ATOM     17  N2  NON d   1     -46.934  16.245  -6.184  0.00  0.00    -0.234 N 
ATOM     18  H14 NON d   1     -47.713  16.358  -6.829  0.00  0.00     0.197 HD
BRANCH  17  19
ATOM     19  O2  NON d   1     -46.843  15.076  -5.413  0.00  0.00    -0.287 OA
ATOM     20  H15 NON d   1     -47.123  15.372  -4.526  0.00  0.00     0.244 HD
ENDBRANCH  17  19
ENDBRANCH  14  15
ENDBRANCH  11  13
ENDBRANCH   5   7
BRANCH   6  21
ATOM     21  C20 NON d   1     -37.820  20.727  -4.179  0.00  0.00     0.135 C 
BRANCH  21  22
ATOM     22  C21 NON d   1     -37.838  19.654  -5.256  0.00  0.00     0.058 C 
BRANCH  22  23
ATOM     23  C22 NON d   1     -38.815  19.679  -6.414  0.00  0.00    -0.057 A 
ATOM     24  C23 NON d   1     -38.534  18.815  -7.492  0.00  0.00     0.007 A 
ATOM     25  C24 NON d   1     -39.264  18.860  -8.678  0.00  0.00     0.001 A 
ATOM     26  C25 NON d   1     -40.306  19.768  -8.804  0.00  0.00     0.000 A 
ATOM     27  C26 NON d   1     -40.615  20.619  -7.741  0.00  0.00     0.001 A 
ATOM     28  C27 NON d   1     -39.870  20.582  -6.552  0.00  0.00     0.007 A 
ENDBRANCH  22  23
ENDBRANCH  21  22
ENDBRANCH   6  21
BRANCH   3  29
ATOM     29  C4  NON d   1     -40.793  24.636  -3.180  0.00  0.00    -0.005 A 
ATOM     30  C5  NON d   1     -40.634  25.369  -1.993  0.00  0.00     0.014 A 
ATOM     31  C6  NON d   1     -41.094  26.686  -1.885  0.00  0.00     0.001 A 
ATOM     32  C7  NON d   1     -41.747  27.286  -2.956  0.00  0.00     0.000 A 
ATOM     33  C8  NON d   1     -41.946  26.567  -4.131  0.00  0.00     0.001 A 
ATOM     34  C9  NON d   1     -41.470  25.255  -4.243  0.00  0.00     0.014 A 
ENDBRANCH   3  29
TORSDOF 8
ENDMDL
MODEL 7
REMARK VINA RESULT:   -12.798      1.888      6.531
REMARK INTER + INTRA:         -17.106
REMARK INTER:                 -15.184
REMARK INTRA:                  -1.921
REMARK CONF_INDEPENDENT:        2.386
REMARK UNBOUND:                -1.921
REMARK  8 active torsions:
REMARK  status: ('A' for Active; 'I' for Inactive)
REMARK    1  A    between atoms: C3_3  and  C4_4 
REMARK    2  A    between atoms: C10_11  and  C11_12 
REMARK    3  A    between atoms: C15_16  and  C16_17 
REMARK    4  A    between atoms: C17_18  and  C18_19 
REMARK       I    between atoms: C18_19  and  N2_21 
REMARK    5  A    between atoms: N2_21  and  O2_22 
REMARK    6  A    between atoms: N3_24  and  C20_25 
REMARK    7  A    between atoms: C20_25  and  C21_26 
REMARK    8  A    between atoms: C21_26  and  C22_27 
ROOT
ATOM      1  C1  NON d   1     -39.211  24.634  -3.523  0.00  0.00     0.071 C 
ATOM      2  C2  NON d   1     -39.874  23.332  -3.035  0.00  0.00     0.039 A 
ATOM      3  C3  NON d   1     -40.244  22.955  -1.762  0.00  0.00     0.091 A 
ATOM      4  N1  NON d   1     -40.689  21.659  -1.779  0.00  0.00    -0.228 NA
ATOM      5  C10 NON d   1     -40.622  21.167  -3.014  0.00  0.00     0.141 A 
ATOM      6  N3  NON d   1     -40.111  22.178  -3.855  0.00  0.00    -0.332 N 
ENDROOT
BRANCH   5   7
ATOM      7  C11 NON d   1     -41.170  19.782  -3.254  0.00  0.00     0.011 C 
ATOM      8  C12 NON d   1     -40.679  18.734  -2.453  0.00  0.00     0.015 C 
ATOM      9  C13 NON d   1     -41.143  17.412  -2.567  0.00  0.00     0.002 C 
ATOM     10  C14 NON d   1     -42.176  17.095  -3.448  0.00  0.00     0.011 C 
ATOM     11  C15 NON d   1     -42.681  18.082  -4.285  0.00  0.00    -0.035 C 
ATOM     12  C19 NON d   1     -42.079  19.371  -4.235  0.00  0.00     0.026 C 
BRANCH  11  13
ATOM     13  C16 NON d   1     -43.864  17.917  -5.157  0.00  0.00     0.017 C 
ATOM     14  C17 NON d   1     -44.956  17.150  -4.990  0.00  0.00     0.077 C 
BRANCH  14  15
ATOM     15  C18 NON d   1     -46.084  17.315  -5.957  0.00  0.00     0.264 C 
ATOM     16  O1  NON d   1     -46.294  18.380  -6.542  0.00  0.00    -0.266 OA
ATOM     17  N2  NON d   1     -46.897  16.248  -6.185  0.00  0.00    -0.234 N 
ATOM     18  H14 NON d   1     -47.703  16.387  -6.789  0.00  0.00     0.197 HD
BRANCH  17  19
ATOM     19  O2  NON d   1     -46.789  15.060  -5.444  0.00  0.00    -0.287 OA
ATOM     20  H15 NON d   1     -46.906  15.361  -4.523  0.00  0.00     0.244 HD
ENDBRANCH  17  19
ENDBRANCH  14  15
ENDBRANCH  11  13
ENDBRANCH   5   7
BRANCH   6  21
ATOM     21  C20 NON d   1     -39.861  22.259  -5.305  0.00  0.00     0.135 C 
BRANCH  21  22
ATOM     22  C21 NON d   1     -40.506  21.307  -6.298  0.00  0.00     0.058 C 
BRANCH  22  23
ATOM     23  C22 NON d   1     -39.736  20.188  -6.971  0.00  0.00    -0.057 A 
ATOM     24  C23 NON d   1     -38.346  20.377  -7.111  0.00  0.00     0.007 A 
ATOM     25  C24 NON d   1     -37.557  19.497  -7.850  0.00  0.00     0.001 A 
ATOM     26  C25 NON d   1     -38.146  18.395  -8.454  0.00  0.00     0.000 A 
ATOM     27  C26 NON d   1     -39.518  18.178  -8.311  0.00  0.00     0.001 A 
ATOM     28  C27 NON d   1     -40.314  19.072  -7.578  0.00  0.00     0.007 A 
ENDBRANCH  22  23
ENDBRANCH  21  22
ENDBRANCH   6  21
BRANCH   3  29
ATOM     29  C4  NON d   1     -40.223  23.758  -0.536  0.00  0.00    -0.005 A 
ATOM     30  C5  NON d   1     -39.113  23.827   0.321  0.00  0.00     0.014 A 
ATOM     31  C6  NON d   1     -39.116  24.659   1.447  0.00  0.00     0.001 A 
ATOM     32  C7  NON d   1     -40.241  25.415   1.751  0.00  0.00     0.000 A 
ATOM     33  C8  NON d   1     -41.366  25.336   0.934  0.00  0.00     0.001 A 
ATOM     34  C9  NON d   1     -41.354  24.517  -0.200  0.00  0.00     0.014 A 
ENDBRANCH   3  29
TORSDOF 8
ENDMDL
MODEL 8
REMARK VINA RESULT:   -12.570      2.879      3.775
REMARK INTER + INTRA:         -17.159
REMARK INTER:                 -14.957
REMARK INTRA:                  -2.202
REMARK CONF_INDEPENDENT:        2.386
REMARK UNBOUND:                -2.202
REMARK  8 active torsions:
REMARK  status: ('A' for Active; 'I' for Inactive)
REMARK    1  A    between atoms: C3_3  and  C4_4 
REMARK    2  A    between atoms: C10_11  and  C11_12 
REMARK    3  A    between atoms: C15_16  and  C16_17 
REMARK    4  A    between atoms: C17_18  and  C18_19 
REMARK       I    between atoms: C18_19  and  N2_21 
REMARK    5  A    between atoms: N2_21  and  O2_22 
REMARK    6  A    between atoms: N3_24  and  C20_25 
REMARK    7  A    between atoms: C20_25  and  C21_26 
REMARK    8  A    between atoms: C21_26  and  C22_27 
ROOT
ATOM      1  C1  NON d   1     -37.093  20.614  -8.930  0.00  0.00     0.071 C 
ATOM      2  C2  NON d   1     -38.401  20.501  -8.125  0.00  0.00     0.039 A 
ATOM      3  C3  NON d   1     -39.481  21.355  -8.075  0.00  0.00     0.091 A 
ATOM      4  N1  NON d   1     -40.370  20.914  -7.129  0.00  0.00    -0.228 NA
ATOM      5  C10 NON d   1     -39.915  19.804  -6.553  0.00  0.00     0.141 A 
ATOM      6  N3  NON d   1     -38.670  19.492  -7.139  0.00  0.00    -0.332 N 
ENDROOT
BRANCH   5   7
ATOM      7  C11 NON d   1     -40.807  19.107  -5.557  0.00  0.00     0.011 C 
ATOM      8  C12 NON d   1     -40.550  19.313  -4.189  0.00  0.00     0.015 C 
ATOM      9  C13 NON d   1     -41.339  18.741  -3.175  0.00  0.00     0.002 C 
ATOM     10  C14 NON d   1     -42.469  17.989  -3.493  0.00  0.00     0.011 C 
ATOM     11  C15 NON d   1     -42.757  17.728  -4.826  0.00  0.00    -0.035 C 
ATOM     12  C19 NON d   1     -41.847  18.206  -5.812  0.00  0.00     0.026 C 
BRANCH  11  13
ATOM     13  C16 NON d   1     -43.992  17.070  -5.304  0.00  0.00     0.017 C 
ATOM     14  C17 NON d   1     -45.116  16.759  -4.632  0.00  0.00     0.077 C 
BRANCH  14  15
ATOM     15  C18 NON d   1     -46.284  16.251  -5.416  0.00  0.00     0.264 C 
ATOM     16  O1  NON d   1     -46.699  15.097  -5.298  0.00  0.00    -0.266 OA
ATOM     17  N2  NON d   1     -46.893  17.104  -6.285  0.00  0.00    -0.234 N 
ATOM     18  H14 NON d   1     -47.641  16.733  -6.866  0.00  0.00     0.197 HD
BRANCH  17  19
ATOM     19  O2  NON d   1     -46.376  18.379  -6.560  0.00  0.00    -0.287 OA
ATOM     20  H15 NON d   1     -45.900  18.250  -7.403  0.00  0.00     0.244 HD
ENDBRANCH  17  19
ENDBRANCH  14  15
ENDBRANCH  11  13
ENDBRANCH   5   7
BRANCH   6  21
ATOM     21  C20 NON d   1     -37.719  18.380  -6.967  0.00  0.00     0.135 C 
BRANCH  21  22
ATOM     22  C21 NON d   1     -36.596  18.419  -5.943  0.00  0.00     0.058 C 
BRANCH  22  23
ATOM     23  C22 NON d   1     -36.802  18.920  -4.528  0.00  0.00    -0.057 A 
ATOM     24  C23 NON d   1     -37.411  18.024  -3.626  0.00  0.00     0.007 A 
ATOM     25  C24 NON d   1     -37.796  18.420  -2.347  0.00  0.00     0.001 A 
ATOM     26  C25 NON d   1     -37.565  19.726  -1.937  0.00  0.00     0.000 A 
ATOM     27  C26 NON d   1     -36.945  20.625  -2.808  0.00  0.00     0.001 A 
ATOM     28  C27 NON d   1     -36.569  20.228  -4.100  0.00  0.00     0.007 A 
ENDBRANCH  22  23
ENDBRANCH  21  22
ENDBRANCH   6  21
BRANCH   3  29
ATOM     29  C4  NON d   1     -39.731  22.551  -8.884  0.00  0.00    -0.005 A 
ATOM     30  C5  NON d   1     -40.233  23.750  -8.354  0.00  0.00     0.014 A 
ATOM     31  C6  NON d   1     -40.394  24.887  -9.155  0.00  0.00     0.001 A 
ATOM     32  C7  NON d   1     -40.080  24.836 -10.508  0.00  0.00     0.000 A 
ATOM     33  C8  NON d   1     -39.613  23.647 -11.062  0.00  0.00     0.001 A 
ATOM     34  C9  NON d   1     -39.436  22.517 -10.256  0.00  0.00     0.014 A 
ENDBRANCH   3  29
TORSDOF 8
ENDMDL
