MODEL 1
REMARK VINA RESULT:   -13.360      0.000      0.000
REMARK INTER + INTRA:         -15.300
REMARK INTER:                 -14.255
REMARK INTRA:                  -1.045
REMARK CONF_INDEPENDENT:        0.895
REMARK UNBOUND:                -1.045
REMARK  3 active torsions:
REMARK  status: ('A' for Active; 'I' for Inactive)
REMARK    1  A    between atoms: C2_2  and  C5_5 
REMARK    2  A    between atoms: C8_8  and  C9_9 
REMARK       I    between atoms: C9_9  and  N1_11 
REMARK    3  A    between atoms: N1_11  and  O2_12 
ROOT
ATOM      1  C5  NON d   1     -42.331  18.158  -3.910  0.00  0.00    -0.051 A 
ATOM      2  C6  NON d   1     -43.102  19.044  -4.691  0.00  0.00     0.009 A 
ATOM      3  C7  NON d   1     -44.371  18.683  -5.142  0.00  0.00     0.017 A 
ATOM      4  C8  NON d   1     -44.868  17.403  -4.878  0.00  0.00     0.034 A 
ATOM      5  C10 NON d   1     -44.116  16.506  -4.109  0.00  0.00     0.017 A 
ATOM      6  C11 NON d   1     -42.869  16.890  -3.608  0.00  0.00     0.009 A 
ENDROOT
BRANCH   4   7
ATOM      7  C9  NON d   1     -46.195  17.036  -5.428  0.00  0.00     0.275 C 
ATOM      8  O1  NON d   1     -46.799  17.784  -6.193  0.00  0.00    -0.265 OA
ATOM      9  N1  NON d   1     -46.666  15.787  -5.092  0.00  0.00    -0.233 N 
ATOM     10  H12 NON d   1     -46.037  15.044  -4.808  0.00  0.00     0.197 HD
BRANCH   9  11
ATOM     11  O2  NON d   1     -47.815  15.380  -5.819  0.00  0.00    -0.287 OA
ATOM     12  H13 NON d   1     -47.856  16.055  -6.535  0.00  0.00     0.244 HD
ENDBRANCH   9  11
ENDBRANCH   4   7
BRANCH   1  13
ATOM     13  C2  NON d   1     -40.927  18.570  -3.431  0.00  0.00    -0.024 C 
ATOM     14  C1  NON d   1     -39.522  18.981  -2.952  0.00  0.00     0.019 C 
ATOM     15  C3  NON d   1     -41.240  18.009  -2.031  0.00  0.00     0.019 C 
ATOM     16  C4  NON d   1     -40.614  19.131  -4.831  0.00  0.00     0.019 C 
ENDBRANCH   1  13
TORSDOF 3
ENDMDL
MODEL 2
REMARK VINA RESULT:   -13.312      0.128      1.745
REMARK INTER + INTRA:         -15.234
REMARK INTER:                 -14.207
REMARK INTRA:                  -1.027
REMARK CONF_INDEPENDENT:        0.895
REMARK UNBOUND:                -1.027
REMARK  3 active torsions:
REMARK  status: ('A' for Active; 'I' for Inactive)
REMARK    1  A    between atoms: C2_2  and  C5_5 
REMARK    2  A    between atoms: C8_8  and  C9_9 
REMARK       I    between atoms: C9_9  and  N1_11 
REMARK    3  A    between atoms: N1_11  and  O2_12 
ROOT
ATOM      1  C5  NON d   1     -42.361  18.214  -3.997  0.00  0.00    -0.051 A 
ATOM      2  C6  NON d   1     -42.927  16.957  -3.699  0.00  0.00     0.009 A 
ATOM      3  C7  NON d   1     -44.167  16.589  -4.219  0.00  0.00     0.017 A 
ATOM      4  C8  NON d   1     -44.897  17.496  -4.993  0.00  0.00     0.034 A 
ATOM      5  C10 NON d   1     -44.355  18.752  -5.297  0.00  0.00     0.017 A 
ATOM      6  C11 NON d   1     -43.086  19.097  -4.823  0.00  0.00     0.009 A 
ENDROOT
BRANCH   4   7
ATOM      7  C9  NON d   1     -46.239  17.089  -5.475  0.00  0.00     0.275 C 
ATOM      8  O1  NON d   1     -46.915  17.830  -6.185  0.00  0.00    -0.265 OA
ATOM      9  N1  NON d   1     -46.642  15.816  -5.143  0.00  0.00    -0.233 N 
ATOM     10  H12 NON d   1     -45.969  15.092  -4.915  0.00  0.00     0.197 HD
BRANCH   9  11
ATOM     11  O2  NON d   1     -47.814  15.380  -5.813  0.00  0.00    -0.287 OA
ATOM     12  H13 NON d   1     -47.792  15.915  -6.639  0.00  0.00     0.244 HD
ENDBRANCH   9  11
ENDBRANCH   4   7
BRANCH   1  13
ATOM     13  C2  NON d   1     -40.995  18.608  -3.404  0.00  0.00    -0.024 C 
ATOM     14  C1  NON d   1     -39.630  19.002  -2.811  0.00  0.00     0.019 C 
ATOM     15  C3  NON d   1     -40.575  19.199  -4.763  0.00  0.00     0.019 C 
ATOM     16  C4  NON d   1     -41.415  18.018  -2.045  0.00  0.00     0.019 C 
ENDBRANCH   1  13
TORSDOF 3
ENDMDL
MODEL 3
REMARK VINA RESULT:   -13.307      0.130      1.302
REMARK INTER + INTRA:         -15.233
REMARK INTER:                 -14.202
REMARK INTRA:                  -1.032
REMARK CONF_INDEPENDENT:        0.895
REMARK UNBOUND:                -1.032
REMARK  3 active torsions:
REMARK  status: ('A' for Active; 'I' for Inactive)
REMARK    1  A    between atoms: C2_2  and  C5_5 
REMARK    2  A    between atoms: C8_8  and  C9_9 
REMARK       I    between atoms: C9_9  and  N1_11 
REMARK    3  A    between atoms: N1_11  and  O2_12 
ROOT
ATOM      1  C5  NON d   1     -42.353  18.209  -4.014  0.00  0.00    -0.051 A 
ATOM      2  C6  NON d   1     -42.911  16.945  -3.730  0.00  0.00     0.009 A 
ATOM      3  C7  NON d   1     -44.153  16.579  -4.246  0.00  0.00     0.017 A 
ATOM      4  C8  NON d   1     -44.894  17.495  -5.000  0.00  0.00     0.034 A 
ATOM      5  C10 NON d   1     -44.360  18.757  -5.289  0.00  0.00     0.017 A 
ATOM      6  C11 NON d   1     -43.089  19.101  -4.820  0.00  0.00     0.009 A 
ENDROOT
BRANCH   4   7
ATOM      7  C9  NON d   1     -46.238  17.089  -5.478  0.00  0.00     0.275 C 
ATOM      8  O1  NON d   1     -46.916  17.830  -6.186  0.00  0.00    -0.265 OA
ATOM      9  N1  NON d   1     -46.640  15.816  -5.145  0.00  0.00    -0.233 N 
ATOM     10  H12 NON d   1     -45.967  15.091  -4.918  0.00  0.00     0.197 HD
BRANCH   9  11
ATOM     11  O2  NON d   1     -47.815  15.380  -5.810  0.00  0.00    -0.287 OA
ATOM     12  H13 NON d   1     -47.827  15.958  -6.608  0.00  0.00     0.244 HD
ENDBRANCH   9  11
ENDBRANCH   4   7
BRANCH   1  13
ATOM     13  C2  NON d   1     -40.985  18.601  -3.426  0.00  0.00    -0.024 C 
ATOM     14  C1  NON d   1     -39.616  18.993  -2.837  0.00  0.00     0.019 C 
ATOM     15  C3  NON d   1     -41.434  18.095  -2.042  0.00  0.00     0.019 C 
ATOM     16  C4  NON d   1     -40.535  19.107  -4.809  0.00  0.00     0.019 C 
ENDBRANCH   1  13
TORSDOF 3
ENDMDL
MODEL 4
REMARK VINA RESULT:   -10.780      1.175      1.802
REMARK INTER + INTRA:         -12.712
REMARK INTER:                 -11.675
REMARK INTRA:                  -1.037
REMARK CONF_INDEPENDENT:        0.895
REMARK UNBOUND:                -1.037
REMARK  3 active torsions:
REMARK  status: ('A' for Active; 'I' for Inactive)
REMARK    1  A    between atoms: C2_2  and  C5_5 
REMARK    2  A    between atoms: C8_8  and  C9_9 
REMARK       I    between atoms: C9_9  and  N1_11 
REMARK    3  A    between atoms: N1_11  and  O2_12 
ROOT
ATOM      1  C5  NON d   1     -41.542  18.359  -3.614  0.00  0.00    -0.051 A 
ATOM      2  C6  NON d   1     -42.198  19.138  -4.590  0.00  0.00     0.009 A 
ATOM      3  C7  NON d   1     -43.409  18.722  -5.142  0.00  0.00     0.017 A 
ATOM      4  C8  NON d   1     -43.956  17.487  -4.778  0.00  0.00     0.034 A 
ATOM      5  C10 NON d   1     -43.317  16.696  -3.815  0.00  0.00     0.017 A 
ATOM      6  C11 NON d   1     -42.133  17.141  -3.220  0.00  0.00     0.009 A 
ENDROOT
BRANCH   4   7
ATOM      7  C9  NON d   1     -45.213  17.054  -5.435  0.00  0.00     0.275 C 
ATOM      8  O1  NON d   1     -45.548  15.872  -5.457  0.00  0.00    -0.265 OA
ATOM      9  N1  NON d   1     -46.007  18.056  -5.944  0.00  0.00    -0.233 N 
ATOM     10  H12 NON d   1     -45.944  19.007  -5.598  0.00  0.00     0.197 HD
BRANCH   9  11
ATOM     11  O2  NON d   1     -47.299  17.630  -6.348  0.00  0.00    -0.287 OA
ATOM     12  H13 NON d   1     -47.140  16.689  -6.593  0.00  0.00     0.244 HD
ENDBRANCH   9  11
ENDBRANCH   4   7
BRANCH   1  13
ATOM     13  C2  NON d   1     -40.199  18.827  -3.024  0.00  0.00    -0.024 C 
ATOM     14  C1  NON d   1     -38.856  19.296  -2.435  0.00  0.00     0.019 C 
ATOM     15  C3  NON d   1     -39.902  19.606  -4.319  0.00  0.00     0.019 C 
ATOM     16  C4  NON d   1     -40.496  18.049  -1.729  0.00  0.00     0.019 C 
ENDBRANCH   1  13
TORSDOF 3
ENDMDL
