MODEL 1
REMARK VINA RESULT:   -14.275      0.000      0.000
REMARK INTER + INTRA:         -16.387
REMARK INTER:                 -15.766
REMARK INTRA:                  -0.621
REMARK CONF_INDEPENDENT:        1.492
REMARK UNBOUND:                -0.621
REMARK  5 active torsions:
REMARK  status: ('A' for Active; 'I' for Inactive)
REMARK    1  A    between atoms: C4_4  and  C2_2 
REMARK    2  A    between atoms: C13_19  and  C14_20 
REMARK    3  A    between atoms: C15_21  and  C16_22 
REMARK    4  A    between atoms: C16_22  and  C17_23 
REMARK    5  A    between atoms: C17_23  and  S1_24 
ROOT
ATOM      1  C4  NON d   1     -38.732  22.574  -1.305  0.00  0.00     0.158 C 
ATOM      2  N1  NON d   1     -37.656  22.901  -2.264  0.00  0.00    -0.247 NA
ATOM      3  C5  NON d   1     -37.511  24.209  -2.698  0.00  0.00     0.220 C 
ATOM      4  O1  NON d   1     -37.113  25.089  -1.943  0.00  0.00    -0.278 OA
ATOM      5  C6  NON d   1     -38.058  24.470  -4.122  0.00  0.00     0.166 C 
ATOM      6  C7  NON d   1     -37.243  25.541  -4.835  0.00  0.00     0.042 C 
ATOM      7  N2  NON d   1     -38.147  23.220  -4.876  0.00  0.00    -0.347 N 
ATOM      8  C8  NON d   1     -38.949  23.194  -5.998  0.00  0.00     0.236 C 
ATOM      9  O2  NON d   1     -38.722  23.883  -6.987  0.00  0.00    -0.272 OA
ATOM     10  C9  NON d   1     -40.119  22.187  -5.981  0.00  0.00     0.151 C 
ATOM     11  C10 NON d   1     -40.595  21.887  -4.565  0.00  0.00     0.036 C 
ATOM     12  N3  NON d   1     -39.763  20.985  -6.721  0.00  0.00    -0.250 NA
ATOM     13  C11 NON d   1     -40.756  20.010  -6.754  0.00  0.00     0.200 C 
ATOM     14  O3  NON d   1     -41.842  20.222  -7.275  0.00  0.00    -0.280 OA
ATOM     15  C12 NON d   1     -40.305  18.704  -6.149  0.00  0.00     0.133 C 
ATOM     16  C13 NON d   1     -41.164  18.147  -5.005  0.00  0.00     0.162 C 
ATOM     17  O4  NON d   1     -41.108  19.011  -3.835  0.00  0.00    -0.310 OA
ATOM     18  C18 NON d   1     -41.036  18.365  -2.635  0.00  0.00     0.277 C 
ATOM     19  O5  NON d   1     -41.259  17.164  -2.495  0.00  0.00    -0.263 OA
ATOM     20  C19 NON d   1     -40.690  19.242  -1.421  0.00  0.00     0.233 C 
ATOM     21  N4  NON d   1     -40.301  20.651  -1.517  0.00  0.00    -0.350 N 
ATOM     22  C20 NON d   1     -38.979  21.043  -1.424  0.00  0.00     0.236 C 
ATOM     23  O6  NON d   1     -38.054  20.233  -1.454  0.00  0.00    -0.272 OA
ATOM     24  H9  NON d   1     -36.782  22.596  -1.848  0.00  0.00     0.131 HD
ATOM     25  H14 NON d   1     -38.155  22.400  -4.276  0.00  0.00     0.163 HD
ATOM     26  H19 NON d   1     -39.592  21.288  -7.676  0.00  0.00     0.131 HD
ATOM     27  H32 NON d   1     -41.040  21.341  -1.529  0.00  0.00     0.163 HD
ENDROOT
BRANCH  16  28
ATOM     28  C14 NON d   1     -42.563  17.646  -5.313  0.00  0.00     0.002 C 
ATOM     29  C15 NON d   1     -43.660  17.818  -4.551  0.00  0.00    -0.027 C 
BRANCH  29  30
ATOM     30  C16 NON d   1     -45.088  17.783  -5.052  0.00  0.00     0.037 C 
BRANCH  30  31
ATOM     31  C17 NON d   1     -45.834  16.518  -4.611  0.00  0.00     0.074 C 
BRANCH  31  32
ATOM     32  S1  NON d   1     -47.437  16.323  -5.436  0.00  0.00    -0.182 SA
ATOM     33  H29 NON d   1     -47.742  17.630  -5.434  0.00  0.00     0.101 HD
ENDBRANCH  31  32
ENDBRANCH  30  31
ENDBRANCH  29  30
ENDBRANCH  16  28
BRANCH   1  34
ATOM     34  C2  NON d   1     -38.418  23.039   0.151  0.00  0.00     0.004 C 
ATOM     35  C1  NON d   1     -37.472  22.109   0.929  0.00  0.00     0.011 C 
ATOM     36  C3  NON d   1     -39.689  23.278   0.972  0.00  0.00     0.011 C 
ENDBRANCH   1  34
TORSDOF 5
ENDMDL
MODEL 2
REMARK VINA RESULT:   -13.853      2.788      4.278
REMARK INTER + INTRA:         -15.996
REMARK INTER:                 -15.344
REMARK INTRA:                  -0.652
REMARK CONF_INDEPENDENT:        1.492
REMARK UNBOUND:                -0.652
REMARK  5 active torsions:
REMARK  status: ('A' for Active; 'I' for Inactive)
REMARK    1  A    between atoms: C4_4  and  C2_2 
REMARK    2  A    between atoms: C13_19  and  C14_20 
REMARK    3  A    between atoms: C15_21  and  C16_22 
REMARK    4  A    between atoms: C16_22  and  C17_23 
REMARK    5  A    between atoms: C17_23  and  S1_24 
ROOT
ATOM      1  C4  NON d   1     -40.155  25.260  -6.080  0.00  0.00     0.158 C 
ATOM      2  N1  NON d   1     -38.951  25.247  -6.937  0.00  0.00    -0.247 NA
ATOM      3  C5  NON d   1     -39.030  25.758  -8.223  0.00  0.00     0.220 C 
ATOM      4  O1  NON d   1     -39.166  26.960  -8.422  0.00  0.00    -0.278 OA
ATOM      5  C6  NON d   1     -39.114  24.680  -9.331  0.00  0.00     0.166 C 
ATOM      6  C7  NON d   1     -38.431  25.152 -10.607  0.00  0.00     0.042 C 
ATOM      7  N2  NON d   1     -38.599  23.401  -8.843  0.00  0.00    -0.347 N 
ATOM      8  C8  NON d   1     -38.936  22.258  -9.538  0.00  0.00     0.236 C 
ATOM      9  O2  NON d   1     -38.584  22.064 -10.697  0.00  0.00    -0.272 OA
ATOM     10  C9  NON d   1     -39.721  21.186  -8.755  0.00  0.00     0.151 C 
ATOM     11  C10 NON d   1     -40.546  21.791  -7.626  0.00  0.00     0.036 C 
ATOM     12  N3  NON d   1     -38.824  20.137  -8.293  0.00  0.00    -0.250 NA
ATOM     13  C11 NON d   1     -39.441  19.124  -7.565  0.00  0.00     0.200 C 
ATOM     14  O3  NON d   1     -40.301  18.412  -8.064  0.00  0.00    -0.280 OA
ATOM     15  C12 NON d   1     -38.883  18.992  -6.170  0.00  0.00     0.133 C 
ATOM     16  C13 NON d   1     -39.892  19.094  -5.017  0.00  0.00     0.162 C 
ATOM     17  O4  NON d   1     -40.472  20.428  -4.942  0.00  0.00    -0.310 OA
ATOM     18  C18 NON d   1     -40.636  20.923  -3.681  0.00  0.00     0.277 C 
ATOM     19  O5  NON d   1     -40.557  20.235  -2.665  0.00  0.00    -0.263 OA
ATOM     20  C19 NON d   1     -40.973  22.419  -3.587  0.00  0.00     0.233 C 
ATOM     21  N4  NON d   1     -40.974  23.329  -4.735  0.00  0.00    -0.350 N 
ATOM     22  C20 NON d   1     -39.920  24.192  -4.974  0.00  0.00     0.236 C 
ATOM     23  O6  NON d   1     -38.856  24.108  -4.363  0.00  0.00    -0.272 OA
ATOM     24  H9  NON d   1     -38.220  25.740  -6.434  0.00  0.00     0.131 HD
ATOM     25  H14 NON d   1     -38.585  23.345  -7.829  0.00  0.00     0.163 HD
ATOM     26  H19 NON d   1     -38.429  19.721  -9.134  0.00  0.00     0.131 HD
ATOM     27  H32 NON d   1     -41.823  23.396  -5.279  0.00  0.00     0.163 HD
ENDROOT
BRANCH  16  28
ATOM     28  C14 NON d   1     -40.912  17.986  -4.831  0.00  0.00     0.002 C 
ATOM     29  C15 NON d   1     -42.246  18.137  -4.729  0.00  0.00    -0.027 C 
BRANCH  29  30
ATOM     30  C16 NON d   1     -43.274  17.071  -5.047  0.00  0.00     0.037 C 
BRANCH  30  31
ATOM     31  C17 NON d   1     -44.665  17.419  -4.506  0.00  0.00     0.074 C 
BRANCH  31  32
ATOM     32  S1  NON d   1     -46.002  16.618  -5.435  0.00  0.00    -0.182 SA
ATOM     33  H29 NON d   1     -46.816  17.685  -5.433  0.00  0.00     0.101 HD
ENDBRANCH  31  32
ENDBRANCH  30  31
ENDBRANCH  29  30
ENDBRANCH  16  28
BRANCH   1  34
ATOM     34  C2  NON d   1     -40.491  26.675  -5.514  0.00  0.00     0.004 C 
ATOM     35  C1  NON d   1     -39.401  27.276  -4.611  0.00  0.00     0.011 C 
ATOM     36  C3  NON d   1     -41.836  26.704  -4.782  0.00  0.00     0.011 C 
ENDBRANCH   1  34
TORSDOF 5
ENDMDL
MODEL 3
REMARK VINA RESULT:   -13.706      1.128      1.235
REMARK INTER + INTRA:         -15.786
REMARK INTER:                 -15.198
REMARK INTRA:                  -0.588
REMARK CONF_INDEPENDENT:        1.492
REMARK UNBOUND:                -0.588
REMARK  5 active torsions:
REMARK  status: ('A' for Active; 'I' for Inactive)
REMARK    1  A    between atoms: C4_4  and  C2_2 
REMARK    2  A    between atoms: C13_19  and  C14_20 
REMARK    3  A    between atoms: C15_21  and  C16_22 
REMARK    4  A    between atoms: C16_22  and  C17_23 
REMARK    5  A    between atoms: C17_23  and  S1_24 
ROOT
ATOM      1  C4  NON d   1     -38.498  23.537  -2.420  0.00  0.00     0.158 C 
ATOM      2  N1  NON d   1     -37.543  23.703  -3.535  0.00  0.00    -0.247 NA
ATOM      3  C5  NON d   1     -37.520  24.901  -4.234  0.00  0.00     0.220 C 
ATOM      4  O1  NON d   1     -37.104  25.931  -3.716  0.00  0.00    -0.278 OA
ATOM      5  C6  NON d   1     -38.219  24.844  -5.614  0.00  0.00     0.166 C 
ATOM      6  C7  NON d   1     -37.544  25.778  -6.609  0.00  0.00     0.042 C 
ATOM      7  N2  NON d   1     -38.306  23.463  -6.090  0.00  0.00    -0.347 N 
ATOM      8  C8  NON d   1     -39.211  23.178  -7.091  0.00  0.00     0.236 C 
ATOM      9  O2  NON d   1     -39.123  23.659  -8.216  0.00  0.00    -0.272 OA
ATOM     10  C9  NON d   1     -40.311  22.151  -6.748  0.00  0.00     0.151 C 
ATOM     11  C10 NON d   1     -40.627  22.127  -5.258  0.00  0.00     0.036 C 
ATOM     12  N3  NON d   1     -39.957  20.838  -7.268  0.00  0.00    -0.250 NA
ATOM     13  C11 NON d   1     -40.887  19.838  -7.000  0.00  0.00     0.200 C 
ATOM     14  O3  NON d   1     -42.030  19.897  -7.432  0.00  0.00    -0.280 OA
ATOM     15  C12 NON d   1     -40.301  18.702  -6.200  0.00  0.00     0.133 C 
ATOM     16  C13 NON d   1     -41.009  18.356  -4.882  0.00  0.00     0.162 C 
ATOM     17  O4  NON d   1     -40.892  19.443  -3.920  0.00  0.00    -0.310 OA
ATOM     18  C18 NON d   1     -40.664  19.058  -2.630  0.00  0.00     0.277 C 
ATOM     19  O5  NON d   1     -40.799  17.903  -2.231  0.00  0.00    -0.263 OA
ATOM     20  C19 NON d   1     -40.254  20.177  -1.660  0.00  0.00     0.233 C 
ATOM     21  N4  NON d   1     -39.962  21.551  -2.075  0.00  0.00    -0.350 N 
ATOM     22  C20 NON d   1     -38.663  22.005  -2.205  0.00  0.00     0.236 C 
ATOM     23  O6  NON d   1     -37.698  21.243  -2.174  0.00  0.00    -0.272 OA
ATOM     24  H9  NON d   1     -36.615  23.524  -3.164  0.00  0.00     0.131 HD
ATOM     25  H14 NON d   1     -38.206  22.784  -5.342  0.00  0.00     0.163 HD
ATOM     26  H19 NON d   1     -39.898  20.947  -8.278  0.00  0.00     0.131 HD
ATOM     27  H32 NON d   1     -40.738  22.195  -2.144  0.00  0.00     0.163 HD
ENDROOT
BRANCH  16  28
ATOM     28  C14 NON d   1     -42.399  17.748  -4.931  0.00  0.00     0.002 C 
ATOM     29  C15 NON d   1     -43.126  17.327  -3.879  0.00  0.00    -0.027 C 
BRANCH  29  30
ATOM     30  C16 NON d   1     -44.635  17.205  -3.849  0.00  0.00     0.037 C 
BRANCH  30  31
ATOM     31  C17 NON d   1     -45.270  17.450  -5.222  0.00  0.00     0.074 C 
BRANCH  31  32
ATOM     32  S1  NON d   1     -46.845  16.576  -5.435  0.00  0.00    -0.182 SA
ATOM     33  H29 NON d   1     -47.618  17.630  -5.129  0.00  0.00     0.101 HD
ENDBRANCH  31  32
ENDBRANCH  30  31
ENDBRANCH  29  30
ENDBRANCH  16  28
BRANCH   1  34
ATOM     34  C2  NON d   1     -38.072  24.301  -1.128  0.00  0.00     0.004 C 
ATOM     35  C1  NON d   1     -37.360  23.432  -0.077  0.00  0.00     0.011 C 
ATOM     36  C3  NON d   1     -39.246  25.035  -0.473  0.00  0.00     0.011 C 
ENDBRANCH   1  34
TORSDOF 5
ENDMDL
