MODEL 1
REMARK VINA RESULT:   -28.073      0.000      0.000
REMARK INTER + INTRA:         -31.215
REMARK INTER:                 -29.863
REMARK INTRA:                  -1.352
REMARK CONF_INDEPENDENT:        1.790
REMARK UNBOUND:                -1.352
REMARK  6 active torsions:
REMARK  status: ('A' for Active; 'I' for Inactive)
REMARK    1  A    between atoms: C1_2  and  C2_3 
REMARK       I    between atoms: C1_2  and  N3_22 
REMARK    2  A    between atoms: C3_4  and  C4_5 
REMARK    3  A    between atoms: C8_10  and  C9_11 
REMARK    4  A    between atoms: C9_11  and  C10_12 
REMARK    5  A    between atoms: C10_12  and  C11_13 
REMARK    6  A    between atoms: N3_22  and  O2_23 
ROOT
ATOM      1  C4  NON d   1     -43.819  17.869  -4.020  0.00  0.00    -0.034 A 
ATOM      2  C5  NON d   1     -44.240  18.595  -5.149  0.00  0.00     0.014 A 
ATOM      3  C6  NON d   1     -45.437  18.299  -5.820  0.00  0.00     0.035 A 
ATOM      4  C7  NON d   1     -46.230  17.254  -5.341  0.00  0.00     0.085 A 
ATOM      5  N1  NON d   1     -47.425  16.784  -5.810  0.00  0.00    -0.233 NA
ATOM      6  C8  NON d   1     -47.784  15.823  -4.989  0.00  0.00     0.105 A 
ATOM      7  N2  NON d   1     -46.822  15.627  -4.022  0.00  0.00    -0.343 N 
ATOM      8  C17 NON d   1     -45.820  16.546  -4.220  0.00  0.00     0.063 A 
ATOM      9  C18 NON d   1     -44.626  16.817  -3.540  0.00  0.00     0.043 A 
ATOM     10  H14 NON d   1     -46.857  14.943  -3.282  0.00  0.00     0.167 HD
ENDROOT
BRANCH   1  11
ATOM     11  C3  NON d   1     -42.553  18.156  -3.307  0.00  0.00     0.017 C 
ATOM     12  C2  NON d   1     -41.545  17.290  -3.119  0.00  0.00     0.077 C 
BRANCH  12  13
ATOM     13  C1  NON d   1     -40.318  17.679  -2.366  0.00  0.00     0.264 C 
ATOM     14  O1  NON d   1     -39.684  16.883  -1.683  0.00  0.00    -0.266 OA
ATOM     15  N3  NON d   1     -40.025  19.012  -2.542  0.00  0.00    -0.234 N 
ATOM     16  H16 NON d   1     -40.479  19.584  -3.242  0.00  0.00     0.197 HD
BRANCH  15  17
ATOM     17  O2  NON d   1     -38.769  19.467  -2.091  0.00  0.00    -0.287 OA
ATOM     18  H17 NON d   1     -38.484  18.747  -1.500  0.00  0.00     0.244 HD
ENDBRANCH  15  17
ENDBRANCH  12  13
ENDBRANCH   1  11
BRANCH   6  19
ATOM     19  C9  NON d   1     -49.052  15.029  -5.021  0.00  0.00     0.083 C 
BRANCH  19  20
ATOM     20  C10 NON d   1     -49.550  14.586  -3.636  0.00  0.00     0.046 C 
BRANCH  20  21
ATOM     21  C11 NON d   1     -50.081  15.632  -2.680  0.00  0.00    -0.058 A 
ATOM     22  C12 NON d   1     -51.425  16.022  -2.813  0.00  0.00     0.007 A 
ATOM     23  C13 NON d   1     -51.974  17.009  -1.992  0.00  0.00     0.001 A 
ATOM     24  C14 NON d   1     -51.188  17.626  -1.023  0.00  0.00     0.000 A 
ATOM     25  C15 NON d   1     -49.856  17.254  -0.878  0.00  0.00     0.001 A 
ATOM     26  C16 NON d   1     -49.307  16.263  -1.698  0.00  0.00     0.007 A 
ENDBRANCH  20  21
ENDBRANCH  19  20
ENDBRANCH   6  19
TORSDOF 6
ENDMDL
