MODEL 1
REMARK VINA RESULT:   -16.532      0.000      0.000
REMARK INTER + INTRA:         -18.652
REMARK INTER:                 -17.725
REMARK INTRA:                  -0.927
REMARK CONF_INDEPENDENT:        1.193
REMARK UNBOUND:                -0.927
REMARK  4 active torsions:
REMARK  status: ('A' for Active; 'I' for Inactive)
REMARK       I    between atoms: C1_2  and  N1_3 
REMARK    1  A    between atoms: C1_2  and  C14_17 
REMARK    2  A    between atoms: N1_3  and  C2_4 
REMARK    3  A    between atoms: C4_6  and  C5_7 
REMARK    4  A    between atoms: C13_15  and  O2_16 
ROOT
ATOM      1  C2  NON d   1     -42.892  17.960  -3.841  0.00  0.00     0.069 A 
ATOM      2  C3  NON d   1     -42.388  18.352  -5.106  0.00  0.00     0.044 A 
ATOM      3  C4  NON d   1     -41.101  18.910  -5.298  0.00  0.00    -0.024 A 
ATOM      4  C11 NON d   1     -40.320  19.039  -4.134  0.00  0.00     0.015 A 
ATOM      5  C12 NON d   1     -40.802  18.686  -2.870  0.00  0.00     0.040 A 
ATOM      6  C13 NON d   1     -42.089  18.176  -2.724  0.00  0.00     0.092 A 
ENDROOT
BRANCH   1   7
ATOM      7  N1  NON d   1     -44.193  17.397  -3.843  0.00  0.00    -0.320 N 
ATOM      8  C1  NON d   1     -45.207  17.483  -4.788  0.00  0.00     0.263 C 
ATOM      9  O1  NON d   1     -45.188  18.159  -5.810  0.00  0.00    -0.267 OA
ATOM     10  H1  NON d   1     -44.467  16.921  -2.993  0.00  0.00     0.169 HD
BRANCH   8  11
ATOM     11  C14 NON d   1     -46.412  16.716  -4.445  0.00  0.00     0.072 A 
ATOM     12  C15 NON d   1     -47.000  16.627  -3.193  0.00  0.00     0.025 A 
ATOM     13  C16 NON d   1     -48.132  15.761  -3.173  0.00  0.00     0.009 A 
ATOM     14  C17 NON d   1     -48.376  15.210  -4.410  0.00  0.00     0.050 A 
ATOM     15  S1  NON d   1     -47.260  15.755  -5.587  0.00  0.00    -0.097 SA
ENDBRANCH   8  11
ENDBRANCH   1   7
BRANCH   6  16
ATOM     16  O2  NON d   1     -42.553  18.005  -1.456  0.00  0.00    -0.358 OA
ATOM     17  H10 NON d   1     -41.805  18.005  -0.839  0.00  0.00     0.217 HD
ENDBRANCH   6  16
BRANCH   3  18
ATOM     18  C5  NON d   1     -40.598  19.354  -6.643  0.00  0.00    -0.026 A 
ATOM     19  C6  NON d   1     -41.299  20.272  -7.451  0.00  0.00     0.012 A 
ATOM     20  C7  NON d   1     -40.817  20.701  -8.698  0.00  0.00     0.001 A 
ATOM     21  C8  NON d   1     -39.609  20.222  -9.185  0.00  0.00     0.000 A 
ATOM     22  C9  NON d   1     -38.886  19.314  -8.424  0.00  0.00     0.001 A 
ATOM     23  C10 NON d   1     -39.373  18.892  -7.180  0.00  0.00     0.012 A 
ENDBRANCH   3  18
TORSDOF 4
ENDMDL
MODEL 2
REMARK VINA RESULT:   -16.434      0.212      1.027
REMARK INTER + INTRA:         -18.545
REMARK INTER:                 -17.627
REMARK INTRA:                  -0.917
REMARK CONF_INDEPENDENT:        1.193
REMARK UNBOUND:                -0.917
REMARK  4 active torsions:
REMARK  status: ('A' for Active; 'I' for Inactive)
REMARK       I    between atoms: C1_2  and  N1_3 
REMARK    1  A    between atoms: C1_2  and  C14_17 
REMARK    2  A    between atoms: N1_3  and  C2_4 
REMARK    3  A    between atoms: C4_6  and  C5_7 
REMARK    4  A    between atoms: C13_15  and  O2_16 
ROOT
ATOM      1  C2  NON d   1     -42.901  17.971  -3.828  0.00  0.00     0.069 A 
ATOM      2  C3  NON d   1     -42.401  18.377  -5.089  0.00  0.00     0.044 A 
ATOM      3  C4  NON d   1     -41.124  18.960  -5.276  0.00  0.00    -0.024 A 
ATOM      4  C11 NON d   1     -40.350  19.100  -4.108  0.00  0.00     0.015 A 
ATOM      5  C12 NON d   1     -40.829  18.734  -2.848  0.00  0.00     0.040 A 
ATOM      6  C13 NON d   1     -42.107  18.198  -2.707  0.00  0.00     0.092 A 
ENDROOT
BRANCH   1   7
ATOM      7  N1  NON d   1     -44.191  17.382  -3.836  0.00  0.00    -0.320 N 
ATOM      8  C1  NON d   1     -45.201  17.447  -4.787  0.00  0.00     0.263 C 
ATOM      9  O1  NON d   1     -45.189  18.122  -5.810  0.00  0.00    -0.267 OA
ATOM     10  H1  NON d   1     -44.460  16.902  -2.988  0.00  0.00     0.169 HD
BRANCH   8  11
ATOM     11  C14 NON d   1     -46.393  16.657  -4.450  0.00  0.00     0.072 A 
ATOM     12  C15 NON d   1     -46.946  16.503  -3.189  0.00  0.00     0.025 A 
ATOM     13  C16 NON d   1     -48.073  15.631  -3.180  0.00  0.00     0.009 A 
ATOM     14  C17 NON d   1     -48.348  15.141  -4.436  0.00  0.00     0.050 A 
ATOM     15  S1  NON d   1     -47.267  15.749  -5.615  0.00  0.00    -0.097 SA
ENDBRANCH   8  11
ENDBRANCH   1   7
BRANCH   6  16
ATOM     16  O2  NON d   1     -42.571  18.013  -1.442  0.00  0.00    -0.358 OA
ATOM     17  H10 NON d   1     -41.840  18.122  -0.813  0.00  0.00     0.217 HD
ENDBRANCH   6  16
BRANCH   3  18
ATOM     18  C5  NON d   1     -40.625  19.419  -6.617  0.00  0.00    -0.026 A 
ATOM     19  C6  NON d   1     -39.697  18.678  -7.377  0.00  0.00     0.012 A 
ATOM     20  C7  NON d   1     -39.248  19.100  -8.639  0.00  0.00     0.001 A 
ATOM     21  C8  NON d   1     -39.714  20.286  -9.188  0.00  0.00     0.000 A 
ATOM     22  C9  NON d   1     -40.626  21.050  -8.473  0.00  0.00     0.001 A 
ATOM     23  C10 NON d   1     -41.070  20.622  -7.215  0.00  0.00     0.012 A 
ENDBRANCH   3  18
TORSDOF 4
ENDMDL
MODEL 3
REMARK VINA RESULT:   -15.653      1.054      1.218
REMARK INTER + INTRA:         -17.777
REMARK INTER:                 -16.846
REMARK INTRA:                  -0.931
REMARK CONF_INDEPENDENT:        1.193
REMARK UNBOUND:                -0.931
REMARK  4 active torsions:
REMARK  status: ('A' for Active; 'I' for Inactive)
REMARK       I    between atoms: C1_2  and  N1_3 
REMARK    1  A    between atoms: C1_2  and  C14_17 
REMARK    2  A    between atoms: N1_3  and  C2_4 
REMARK    3  A    between atoms: C4_6  and  C5_7 
REMARK    4  A    between atoms: C13_15  and  O2_16 
ROOT
ATOM      1  C2  NON d   1     -42.332  18.384  -3.952  0.00  0.00     0.069 A 
ATOM      2  C3  NON d   1     -41.972  19.033  -5.158  0.00  0.00     0.044 A 
ATOM      3  C4  NON d   1     -40.734  19.694  -5.353  0.00  0.00    -0.024 A 
ATOM      4  C11 NON d   1     -39.850  19.652  -4.259  0.00  0.00     0.015 A 
ATOM      5  C12 NON d   1     -40.191  19.042  -3.048  0.00  0.00     0.040 A 
ATOM      6  C13 NON d   1     -41.434  18.436  -2.889  0.00  0.00     0.092 A 
ENDROOT
BRANCH   1   7
ATOM      7  N1  NON d   1     -43.602  17.753  -3.946  0.00  0.00    -0.320 N 
ATOM      8  C1  NON d   1     -44.706  17.951  -4.764  0.00  0.00     0.263 C 
ATOM      9  O1  NON d   1     -44.817  18.806  -5.636  0.00  0.00    -0.267 OA
ATOM     10  H1  NON d   1     -43.770  17.111  -3.182  0.00  0.00     0.169 HD
BRANCH   8  11
ATOM     11  C14 NON d   1     -45.838  17.063  -4.468  0.00  0.00     0.072 A 
ATOM     12  C15 NON d   1     -46.438  16.880  -3.233  0.00  0.00     0.025 A 
ATOM     13  C16 NON d   1     -47.481  15.909  -3.261  0.00  0.00     0.009 A 
ATOM     14  C17 NON d   1     -47.647  15.375  -4.519  0.00  0.00     0.050 A 
ATOM     15  S1  NON d   1     -46.567  16.059  -5.655  0.00  0.00    -0.097 SA
ENDBRANCH   8  11
ENDBRANCH   1   7
BRANCH   6  16
ATOM     16  O2  NON d   1     -41.763  18.005  -1.641  0.00  0.00    -0.358 OA
ATOM     17  H10 NON d   1     -40.964  17.973  -1.092  0.00  0.00     0.217 HD
ENDBRANCH   6  16
BRANCH   3  18
ATOM     18  C5  NON d   1     -40.385  20.410  -6.627  0.00  0.00    -0.026 A 
ATOM     19  C6  NON d   1     -40.677  19.880  -7.901  0.00  0.00     0.012 A 
ATOM     20  C7  NON d   1     -40.367  20.560  -9.090  0.00  0.00     0.001 A 
ATOM     21  C8  NON d   1     -39.750  21.802  -9.046  0.00  0.00     0.000 A 
ATOM     22  C9  NON d   1     -39.441  22.360  -7.814  0.00  0.00     0.001 A 
ATOM     23  C10 NON d   1     -39.754  21.676  -6.632  0.00  0.00     0.012 A 
ENDBRANCH   3  18
TORSDOF 4
ENDMDL
MODEL 4
REMARK VINA RESULT:   -15.444      2.169      3.728
REMARK INTER + INTRA:         -17.949
REMARK INTER:                 -16.637
REMARK INTRA:                  -1.312
REMARK CONF_INDEPENDENT:        1.193
REMARK UNBOUND:                -1.312
REMARK  4 active torsions:
REMARK  status: ('A' for Active; 'I' for Inactive)
REMARK       I    between atoms: C1_2  and  N1_3 
REMARK    1  A    between atoms: C1_2  and  C14_17 
REMARK    2  A    between atoms: N1_3  and  C2_4 
REMARK    3  A    between atoms: C4_6  and  C5_7 
REMARK    4  A    between atoms: C13_15  and  O2_16 
ROOT
ATOM      1  C2  NON d   1     -43.436  18.433  -4.883  0.00  0.00     0.069 A 
ATOM      2  C3  NON d   1     -42.288  17.997  -4.178  0.00  0.00     0.044 A 
ATOM      3  C4  NON d   1     -41.019  18.618  -4.286  0.00  0.00    -0.024 A 
ATOM      4  C11 NON d   1     -40.965  19.734  -5.141  0.00  0.00     0.015 A 
ATOM      5  C12 NON d   1     -42.075  20.168  -5.871  0.00  0.00     0.040 A 
ATOM      6  C13 NON d   1     -43.294  19.505  -5.762  0.00  0.00     0.092 A 
ENDROOT
BRANCH   1   7
ATOM      7  N1  NON d   1     -44.627  17.707  -4.632  0.00  0.00    -0.320 N 
ATOM      8  C1  NON d   1     -45.741  17.505  -5.436  0.00  0.00     0.263 C 
ATOM      9  O1  NON d   1     -45.940  18.006  -6.536  0.00  0.00    -0.267 OA
ATOM     10  H1  NON d   1     -44.729  17.340  -3.695  0.00  0.00     0.169 HD
BRANCH   8  11
ATOM     11  C14 NON d   1     -46.769  16.648  -4.830  0.00  0.00     0.072 A 
ATOM     12  C15 NON d   1     -47.019  16.497  -3.476  0.00  0.00     0.025 A 
ATOM     13  C16 NON d   1     -48.050  15.552  -3.204  0.00  0.00     0.009 A 
ATOM     14  C17 NON d   1     -48.558  15.004  -4.360  0.00  0.00     0.050 A 
ATOM     15  S1  NON d   1     -47.809  15.646  -5.758  0.00  0.00    -0.097 SA
ENDBRANCH   8  11
ENDBRANCH   1   7
BRANCH   6  16
ATOM     16  O2  NON d   1     -44.286  19.877  -6.615  0.00  0.00    -0.358 OA
ATOM     17  H10 NON d   1     -45.132  19.527  -6.295  0.00  0.00     0.217 HD
ENDBRANCH   6  16
BRANCH   3  18
ATOM     18  C5  NON d   1     -39.803  18.117  -3.557  0.00  0.00    -0.026 A 
ATOM     19  C6  NON d   1     -38.490  18.406  -3.983  0.00  0.00     0.012 A 
ATOM     20  C7  NON d   1     -37.356  17.954  -3.289  0.00  0.00     0.001 A 
ATOM     21  C8  NON d   1     -37.496  17.191  -2.139  0.00  0.00     0.000 A 
ATOM     22  C9  NON d   1     -38.770  16.880  -1.685  0.00  0.00     0.001 A 
ATOM     23  C10 NON d   1     -39.897  17.335  -2.382  0.00  0.00     0.012 A 
ENDBRANCH   3  18
TORSDOF 4
ENDMDL
MODEL 5
REMARK VINA RESULT:   -13.923      2.407      2.716
REMARK INTER + INTRA:         -15.989
REMARK INTER:                 -15.116
REMARK INTRA:                  -0.873
REMARK CONF_INDEPENDENT:        1.193
REMARK UNBOUND:                -0.873
REMARK  4 active torsions:
REMARK  status: ('A' for Active; 'I' for Inactive)
REMARK       I    between atoms: C1_2  and  N1_3 
REMARK    1  A    between atoms: C1_2  and  C14_17 
REMARK    2  A    between atoms: N1_3  and  C2_4 
REMARK    3  A    between atoms: C4_6  and  C5_7 
REMARK    4  A    between atoms: C13_15  and  O2_16 
ROOT
ATOM      1  C2  NON d   1     -42.199  18.441  -3.903  0.00  0.00     0.069 A 
ATOM      2  C3  NON d   1     -41.967  19.766  -4.348  0.00  0.00     0.044 A 
ATOM      3  C4  NON d   1     -40.693  20.385  -4.336  0.00  0.00    -0.024 A 
ATOM      4  C11 NON d   1     -39.638  19.583  -3.863  0.00  0.00     0.015 A 
ATOM      5  C12 NON d   1     -39.843  18.283  -3.392  0.00  0.00     0.040 A 
ATOM      6  C13 NON d   1     -41.120  17.727  -3.388  0.00  0.00     0.092 A 
ENDROOT
BRANCH   1   7
ATOM      7  N1  NON d   1     -43.535  17.979  -4.013  0.00  0.00    -0.320 N 
ATOM      8  C1  NON d   1     -44.052  16.885  -4.694  0.00  0.00     0.263 C 
ATOM      9  O1  NON d   1     -43.426  16.124  -5.424  0.00  0.00    -0.267 OA
ATOM     10  H1  NON d   1     -44.241  18.574  -3.601  0.00  0.00     0.169 HD
BRANCH   8  11
ATOM     11  C14 NON d   1     -45.501  16.709  -4.532  0.00  0.00     0.072 A 
ATOM     12  C15 NON d   1     -46.227  16.900  -3.367  0.00  0.00     0.025 A 
ATOM     13  C16 NON d   1     -47.611  16.599  -3.520  0.00  0.00     0.009 A 
ATOM     14  C17 NON d   1     -47.905  16.181  -4.798  0.00  0.00     0.050 A 
ATOM     15  S1  NON d   1     -46.522  16.179  -5.806  0.00  0.00    -0.097 SA
ENDBRANCH   8  11
ENDBRANCH   1   7
BRANCH   6  16
ATOM     16  O2  NON d   1     -41.276  16.525  -2.771  0.00  0.00    -0.358 OA
ATOM     17  H10 NON d   1     -42.215  16.280  -2.779  0.00  0.00     0.217 HD
ENDBRANCH   6  16
BRANCH   3  18
ATOM     18  C5  NON d   1     -40.473  21.805  -4.777  0.00  0.00    -0.026 A 
ATOM     19  C6  NON d   1     -40.894  22.912  -4.013  0.00  0.00     0.012 A 
ATOM     20  C7  NON d   1     -40.669  24.237  -4.418  0.00  0.00     0.001 A 
ATOM     21  C8  NON d   1     -40.012  24.504  -5.611  0.00  0.00     0.000 A 
ATOM     22  C9  NON d   1     -39.583  23.444  -6.397  0.00  0.00     0.001 A 
ATOM     23  C10 NON d   1     -39.810  22.124  -5.986  0.00  0.00     0.012 A 
ENDBRANCH   3  18
TORSDOF 4
ENDMDL
MODEL 6
REMARK VINA RESULT:   -13.811      2.984      3.966
REMARK INTER + INTRA:         -16.408
REMARK INTER:                 -15.004
REMARK INTRA:                  -1.404
REMARK CONF_INDEPENDENT:        1.193
REMARK UNBOUND:                -1.404
REMARK  4 active torsions:
REMARK  status: ('A' for Active; 'I' for Inactive)
REMARK       I    between atoms: C1_2  and  N1_3 
REMARK    1  A    between atoms: C1_2  and  C14_17 
REMARK    2  A    between atoms: N1_3  and  C2_4 
REMARK    3  A    between atoms: C4_6  and  C5_7 
REMARK    4  A    between atoms: C13_15  and  O2_16 
ROOT
ATOM      1  C2  NON d   1     -42.386  19.017  -4.965  0.00  0.00     0.069 A 
ATOM      2  C3  NON d   1     -42.190  20.257  -4.310  0.00  0.00     0.044 A 
ATOM      3  C4  NON d   1     -40.984  20.997  -4.375  0.00  0.00    -0.024 A 
ATOM      4  C11 NON d   1     -39.969  20.426  -5.164  0.00  0.00     0.015 A 
ATOM      5  C12 NON d   1     -40.125  19.190  -5.800  0.00  0.00     0.040 A 
ATOM      6  C13 NON d   1     -41.316  18.480  -5.678  0.00  0.00     0.092 A 
ENDROOT
BRANCH   1   7
ATOM      7  N1  NON d   1     -43.667  18.432  -4.810  0.00  0.00    -0.320 N 
ATOM      8  C1  NON d   1     -44.042  17.097  -4.743  0.00  0.00     0.263 C 
ATOM      9  O1  NON d   1     -43.303  16.130  -4.891  0.00  0.00    -0.267 OA
ATOM     10  H1  NON d   1     -44.448  19.074  -4.827  0.00  0.00     0.169 HD
BRANCH   8  11
ATOM     11  C14 NON d   1     -45.480  16.888  -4.533  0.00  0.00     0.072 A 
ATOM     12  C15 NON d   1     -46.148  16.934  -3.320  0.00  0.00     0.025 A 
ATOM     13  C16 NON d   1     -47.536  16.638  -3.439  0.00  0.00     0.009 A 
ATOM     14  C17 NON d   1     -47.891  16.369  -4.741  0.00  0.00     0.050 A 
ATOM     15  S1  NON d   1     -46.561  16.499  -5.809  0.00  0.00    -0.097 SA
ENDBRANCH   8  11
ENDBRANCH   1   7
BRANCH   6  16
ATOM     16  O2  NON d   1     -41.345  17.218  -6.185  0.00  0.00    -0.358 OA
ATOM     17  H10 NON d   1     -42.123  16.752  -5.840  0.00  0.00     0.217 HD
ENDBRANCH   6  16
BRANCH   3  18
ATOM     18  C5  NON d   1     -40.782  22.294  -3.641  0.00  0.00    -0.026 A 
ATOM     19  C6  NON d   1     -41.102  23.545  -4.208  0.00  0.00     0.012 A 
ATOM     20  C7  NON d   1     -40.932  24.752  -3.513  0.00  0.00     0.001 A 
ATOM     21  C8  NON d   1     -40.430  24.752  -2.218  0.00  0.00     0.000 A 
ATOM     22  C9  NON d   1     -40.099  23.543  -1.623  0.00  0.00     0.001 A 
ATOM     23  C10 NON d   1     -40.273  22.342  -2.322  0.00  0.00     0.012 A 
ENDBRANCH   3  18
TORSDOF 4
ENDMDL
