MODEL 1
REMARK VINA RESULT:   -25.056      0.000      0.000
REMARK INTER + INTRA:         -28.938
REMARK INTER:                 -28.039
REMARK INTRA:                  -0.898
REMARK CONF_INDEPENDENT:        2.983
REMARK UNBOUND:                -0.898
REMARK  10 active torsions:
REMARK  status: ('A' for Active; 'I' for Inactive)
REMARK    1  A    between atoms: C2_2  and  S1_3 
REMARK    2  A    between atoms: S1_3  and  C3_4 
REMARK    3  A    between atoms: C3_4  and  S3_6 
REMARK    4  A    between atoms: S3_6  and  C4_7 
REMARK    5  A    between atoms: C4_7  and  C5_8 
REMARK    6  A    between atoms: C5_8  and  C6_10 
REMARK    7  A    between atoms: C9_13  and  S4_14 
REMARK    8  A    between atoms: S4_14  and  N1_17 
REMARK    9  A    between atoms: N1_17  and  C10_18 
REMARK   10  A    between atoms: C13_21  and  O4_22 
ROOT
ATOM      1  C6  NON d   1     -50.240  17.470  -0.958  0.00  0.00     0.011 A 
ATOM      2  C7  NON d   1     -50.961  17.126  -2.117  0.00  0.00     0.017 A 
ATOM      3  C8  NON d   1     -50.325  16.541  -3.226  0.00  0.00     0.026 A 
ATOM      4  C9  NON d   1     -48.950  16.308  -3.202  0.00  0.00     0.074 A 
ATOM      5  C17 NON d   1     -48.213  16.673  -2.062  0.00  0.00     0.026 A 
ATOM      6  C18 NON d   1     -48.855  17.254  -0.948  0.00  0.00     0.017 A 
ENDROOT
BRANCH   4   7
ATOM      7  S4  NON d   1     -48.193  15.342  -4.519  0.00  0.00     0.245 S 
ATOM      8  O2  NON d   1     -47.107  14.590  -3.923  0.00  0.00    -0.206 OA
ATOM      9  O3  NON d   1     -49.268  14.688  -5.230  0.00  0.00    -0.206 OA
BRANCH   7  10
ATOM     10  N1  NON d   1     -47.433  16.505  -5.510  0.00  0.00    -0.181 NA
ATOM     11  H10 NON d   1     -48.132  17.230  -5.688  0.00  0.00     0.146 HD
BRANCH  10  12
ATOM     12  C10 NON d   1     -46.190  17.063  -5.039  0.00  0.00     0.023 A 
ATOM     13  C11 NON d   1     -45.640  16.616  -3.841  0.00  0.00     0.027 A 
ATOM     14  C12 NON d   1     -44.404  17.113  -3.394  0.00  0.00     0.038 A 
ATOM     15  C13 NON d   1     -43.699  18.070  -4.137  0.00  0.00     0.068 A 
ATOM     16  C15 NON d   1     -44.275  18.542  -5.319  0.00  0.00     0.038 A 
ATOM     17  C16 NON d   1     -45.516  18.047  -5.767  0.00  0.00     0.027 A 
BRANCH  15  18
ATOM     18  O4  NON d   1     -42.464  18.603  -3.794  0.00  0.00    -0.356 OA
ATOM     19  C14 NON d   1     -41.969  17.962  -2.484  0.00  0.00     0.210 C 
ENDBRANCH  15  18
ENDBRANCH  10  12
ENDBRANCH   7  10
ENDBRANCH   4   7
BRANCH   1  20
ATOM     20  C5  NON d   1     -51.016  18.007   0.222  0.00  0.00     0.169 C 
ATOM     21  O1  NON d   1     -50.388  18.314   1.236  0.00  0.00    -0.291 OA
BRANCH  20  22
ATOM     22  C4  NON d   1     -52.530  18.170   0.106  0.00  0.00     0.164 C 
BRANCH  22  23
ATOM     23  S3  NON d   1     -53.069  19.909   0.219  0.00  0.00    -0.104 SA
BRANCH  23  24
ATOM     24  C3  NON d   1     -54.594  19.997  -0.674  0.00  0.00     0.104 C 
ATOM     25  S2  NON d   1     -55.285  21.383  -1.315  0.00  0.00    -0.065 SA
BRANCH  24  26
ATOM     26  S1  NON d   1     -55.394  18.413  -0.719  0.00  0.00    -0.112 SA
BRANCH  26  27
ATOM     27  C2  NON d   1     -55.249  17.962  -2.474  0.00  0.00     0.076 C 
ATOM     28  C1  NON d   1     -54.202  16.873  -2.651  0.00  0.00     0.016 C 
ENDBRANCH  26  27
ENDBRANCH  24  26
ENDBRANCH  23  24
ENDBRANCH  22  23
ENDBRANCH  20  22
ENDBRANCH   1  20
TORSDOF 10
ENDMDL
MODEL 2
REMARK VINA RESULT:   -22.864      5.405      9.483
REMARK INTER + INTRA:         -26.927
REMARK INTER:                 -25.847
REMARK INTRA:                  -1.080
REMARK CONF_INDEPENDENT:        2.983
REMARK UNBOUND:                -1.080
REMARK  10 active torsions:
REMARK  status: ('A' for Active; 'I' for Inactive)
REMARK    1  A    between atoms: C2_2  and  S1_3 
REMARK    2  A    between atoms: S1_3  and  C3_4 
REMARK    3  A    between atoms: C3_4  and  S3_6 
REMARK    4  A    between atoms: S3_6  and  C4_7 
REMARK    5  A    between atoms: C4_7  and  C5_8 
REMARK    6  A    between atoms: C5_8  and  C6_10 
REMARK    7  A    between atoms: C9_13  and  S4_14 
REMARK    8  A    between atoms: S4_14  and  N1_17 
REMARK    9  A    between atoms: N1_17  and  C10_18 
REMARK   10  A    between atoms: C13_21  and  O4_22 
ROOT
ATOM      1  C6  NON d   1     -42.221  18.378  -4.058  0.00  0.00     0.011 A 
ATOM      2  C7  NON d   1     -41.848  18.054  -2.741  0.00  0.00     0.017 A 
ATOM      3  C8  NON d   1     -40.831  18.760  -2.074  0.00  0.00     0.026 A 
ATOM      4  C9  NON d   1     -40.155  19.793  -2.723  0.00  0.00     0.074 A 
ATOM      5  C17 NON d   1     -40.497  20.109  -4.049  0.00  0.00     0.026 A 
ATOM      6  C18 NON d   1     -41.522  19.403  -4.713  0.00  0.00     0.017 A 
ENDROOT
BRANCH   4   7
ATOM      7  S4  NON d   1     -39.033  20.843  -1.784  0.00  0.00     0.245 S 
ATOM      8  O2  NON d   1     -37.780  20.125  -1.665  0.00  0.00    -0.206 OA
ATOM      9  O3  NON d   1     -39.099  22.161  -2.375  0.00  0.00    -0.206 OA
BRANCH   7  10
ATOM     10  N1  NON d   1     -39.687  20.854  -0.209  0.00  0.00    -0.181 NA
ATOM     11  H10 NON d   1     -39.008  20.375   0.387  0.00  0.00     0.146 HD
BRANCH  10  12
ATOM     12  C10 NON d   1     -40.073  22.132   0.338  0.00  0.00     0.023 A 
ATOM     13  C11 NON d   1     -41.066  22.880  -0.285  0.00  0.00     0.027 A 
ATOM     14  C12 NON d   1     -41.489  24.103   0.264  0.00  0.00     0.038 A 
ATOM     15  C13 NON d   1     -40.919  24.601   1.443  0.00  0.00     0.068 A 
ATOM     16  C15 NON d   1     -39.894  23.863   2.042  0.00  0.00     0.038 A 
ATOM     17  C16 NON d   1     -39.468  22.637   1.491  0.00  0.00     0.027 A 
BRANCH  15  18
ATOM     18  O4  NON d   1     -41.282  25.782   2.076  0.00  0.00    -0.356 OA
ATOM     19  C14 NON d   1     -41.202  26.950   1.075  0.00  0.00     0.210 C 
ENDBRANCH  15  18
ENDBRANCH  10  12
ENDBRANCH   7  10
ENDBRANCH   4   7
BRANCH   1  20
ATOM     20  C5  NON d   1     -43.384  17.633  -4.666  0.00  0.00     0.169 C 
ATOM     21  O1  NON d   1     -43.151  16.578  -5.257  0.00  0.00    -0.291 OA
BRANCH  20  22
ATOM     22  C4  NON d   1     -44.795  18.196  -4.507  0.00  0.00     0.164 C 
BRANCH  22  23
ATOM     23  S3  NON d   1     -45.940  17.630  -5.810  0.00  0.00    -0.104 SA
BRANCH  23  24
ATOM     24  C3  NON d   1     -47.015  16.461  -5.030  0.00  0.00     0.104 C 
ATOM     25  S2  NON d   1     -48.032  15.380  -5.810  0.00  0.00    -0.065 SA
BRANCH  24  26
ATOM     26  S1  NON d   1     -46.977  16.646  -3.265  0.00  0.00    -0.112 SA
BRANCH  26  27
ATOM     27  C2  NON d   1     -48.740  16.545  -2.833  0.00  0.00     0.076 C 
ATOM     28  C1  NON d   1     -48.935  16.828  -1.351  0.00  0.00     0.016 C 
ENDBRANCH  26  27
ENDBRANCH  24  26
ENDBRANCH  23  24
ENDBRANCH  22  23
ENDBRANCH  20  22
ENDBRANCH   1  20
TORSDOF 10
ENDMDL
MODEL 3
REMARK VINA RESULT:   -22.816      5.147      9.282
REMARK INTER + INTRA:         -26.787
REMARK INTER:                 -25.799
REMARK INTRA:                  -0.988
REMARK CONF_INDEPENDENT:        2.983
REMARK UNBOUND:                -0.988
REMARK  10 active torsions:
REMARK  status: ('A' for Active; 'I' for Inactive)
REMARK    1  A    between atoms: C2_2  and  S1_3 
REMARK    2  A    between atoms: S1_3  and  C3_4 
REMARK    3  A    between atoms: C3_4  and  S3_6 
REMARK    4  A    between atoms: S3_6  and  C4_7 
REMARK    5  A    between atoms: C4_7  and  C5_8 
REMARK    6  A    between atoms: C5_8  and  C6_10 
REMARK    7  A    between atoms: C9_13  and  S4_14 
REMARK    8  A    between atoms: S4_14  and  N1_17 
REMARK    9  A    between atoms: N1_17  and  C10_18 
REMARK   10  A    between atoms: C13_21  and  O4_22 
ROOT
ATOM      1  C6  NON d   1     -42.133  18.080  -4.157  0.00  0.00     0.011 A 
ATOM      2  C7  NON d   1     -41.838  17.900  -2.793  0.00  0.00     0.017 A 
ATOM      3  C8  NON d   1     -40.746  18.548  -2.189  0.00  0.00     0.026 A 
ATOM      4  C9  NON d   1     -39.917  19.374  -2.946  0.00  0.00     0.074 A 
ATOM      5  C17 NON d   1     -40.182  19.542  -4.316  0.00  0.00     0.026 A 
ATOM      6  C18 NON d   1     -41.282  18.895  -4.918  0.00  0.00     0.017 A 
ENDROOT
BRANCH   4   7
ATOM      7  S4  NON d   1     -38.678  20.384  -2.116  0.00  0.00     0.245 S 
ATOM      8  O2  NON d   1     -37.517  19.542  -1.905  0.00  0.00    -0.206 OA
ATOM      9  O3  NON d   1     -38.590  21.627  -2.849  0.00  0.00    -0.206 OA
BRANCH   7  10
ATOM     10  N1  NON d   1     -39.324  20.646  -0.559  0.00  0.00    -0.181 NA
ATOM     11  H10 NON d   1     -38.557  20.489   0.099  0.00  0.00     0.146 HD
BRANCH  10  12
ATOM     12  C10 NON d   1     -39.985  21.904  -0.321  0.00  0.00     0.023 A 
ATOM     13  C11 NON d   1     -40.075  22.406   0.974  0.00  0.00     0.027 A 
ATOM     14  C12 NON d   1     -40.672  23.655   1.216  0.00  0.00     0.038 A 
ATOM     15  C13 NON d   1     -41.194  24.422   0.166  0.00  0.00     0.068 A 
ATOM     16  C15 NON d   1     -41.135  23.895  -1.128  0.00  0.00     0.038 A 
ATOM     17  C16 NON d   1     -40.539  22.641  -1.371  0.00  0.00     0.027 A 
BRANCH  15  18
ATOM     18  O4  NON d   1     -41.779  25.674   0.298  0.00  0.00    -0.356 OA
ATOM     19  C14 NON d   1     -40.749  26.668   0.864  0.00  0.00     0.210 C 
ENDBRANCH  15  18
ENDBRANCH  10  12
ENDBRANCH   7  10
ENDBRANCH   4   7
BRANCH   1  20
ATOM     20  C5  NON d   1     -43.377  17.422  -4.704  0.00  0.00     0.169 C 
ATOM     21  O1  NON d   1     -43.260  16.323  -5.245  0.00  0.00    -0.291 OA
BRANCH  20  22
ATOM     22  C4  NON d   1     -44.723  18.126  -4.544  0.00  0.00     0.164 C 
BRANCH  22  23
ATOM     23  S3  NON d   1     -45.940  17.630  -5.810  0.00  0.00    -0.104 SA
BRANCH  23  24
ATOM     24  C3  NON d   1     -46.977  16.425  -5.033  0.00  0.00     0.104 C 
ATOM     25  S2  NON d   1     -48.031  15.380  -5.810  0.00  0.00    -0.065 SA
BRANCH  24  26
ATOM     26  S1  NON d   1     -46.853  16.530  -3.264  0.00  0.00    -0.112 SA
BRANCH  26  27
ATOM     27  C2  NON d   1     -48.589  16.364  -2.750  0.00  0.00     0.076 C 
ATOM     28  C1  NON d   1     -48.766  16.871  -1.327  0.00  0.00     0.016 C 
ENDBRANCH  26  27
ENDBRANCH  24  26
ENDBRANCH  23  24
ENDBRANCH  22  23
ENDBRANCH  20  22
ENDBRANCH   1  20
TORSDOF 10
ENDMDL
