MODEL 1
REMARK VINA RESULT:   -15.143      0.000      0.000
REMARK INTER + INTRA:         -20.684
REMARK INTER:                 -18.722
REMARK INTRA:                  -1.961
REMARK CONF_INDEPENDENT:        3.580
REMARK UNBOUND:                -1.961
REMARK  12 active torsions:
REMARK  status: ('A' for Active; 'I' for Inactive)
REMARK       I    between atoms: C1_2  and  N1_3 
REMARK    1  A    between atoms: C1_2  and  O3_19 
REMARK    2  A    between atoms: C2_4  and  N1_3 
REMARK    3  A    between atoms: C2_4  and  C3_5 
REMARK    4  A    between atoms: C2_4  and  C8_11 
REMARK    5  A    between atoms: C3_5  and  C4_6 
REMARK    6  A    between atoms: C4_6  and  C5_7 
REMARK    7  A    between atoms: C5_7  and  C6_8 
REMARK    8  A    between atoms: C6_8  and  C7_9 
REMARK    9  A    between atoms: C7_9  and  S1_10 
REMARK       I    between atoms: C8_11  and  N2_13 
REMARK   10  A    between atoms: N2_13  and  C9_14 
REMARK   11  A    between atoms: O3_19  and  C14_20 
REMARK   12  A    between atoms: C14_20  and  C15_21 
ROOT
ATOM      1  C2  NON d   1     -40.943  19.095  -2.845  0.00  0.00     0.178 C 
ENDROOT
BRANCH   1   2
ATOM      2  N1  NON d   1     -40.283  19.839  -1.780  0.00  0.00    -0.324 N 
ATOM      3  C1  NON d   1     -40.160  21.201  -1.948  0.00  0.00     0.361 C 
ATOM      4  O1  NON d   1     -40.703  21.818  -2.863  0.00  0.00    -0.238 OA
ATOM      5  H1  NON d   1     -39.607  19.409  -1.165  0.00  0.00     0.165 HD
BRANCH   3   6
ATOM      6  O3  NON d   1     -39.362  21.759  -1.008  0.00  0.00    -0.299 OA
BRANCH   6   7
ATOM      7  C14 NON d   1     -39.931  21.863   0.307  0.00  0.00     0.219 C 
BRANCH   7   8
ATOM      8  C15 NON d   1     -40.533  23.217   0.645  0.00  0.00    -0.034 A 
ATOM      9  C16 NON d   1     -40.607  23.611   1.996  0.00  0.00     0.009 A 
ATOM     10  C17 NON d   1     -41.061  24.885   2.358  0.00  0.00     0.001 A 
ATOM     11  C18 NON d   1     -41.428  25.792   1.375  0.00  0.00     0.000 A 
ATOM     12  C19 NON d   1     -41.357  25.423   0.027  0.00  0.00     0.001 A 
ATOM     13  C20 NON d   1     -40.903  24.146  -0.335  0.00  0.00     0.009 A 
ENDBRANCH   7   8
ENDBRANCH   6   7
ENDBRANCH   3   6
ENDBRANCH   1   2
BRANCH   1  14
ATOM     14  C3  NON d   1     -41.834  17.794  -3.013  0.00  0.00     0.035 C 
BRANCH  14  15
ATOM     15  C4  NON d   1     -42.379  17.661  -4.505  0.00  0.00     0.002 C 
BRANCH  15  16
ATOM     16  C5  NON d   1     -43.685  16.834  -4.689  0.00  0.00     0.001 C 
BRANCH  16  17
ATOM     17  C6  NON d   1     -44.968  17.391  -4.053  0.00  0.00     0.010 C 
BRANCH  17  18
ATOM     18  C7  NON d   1     -46.204  16.505  -4.204  0.00  0.00     0.070 C 
BRANCH  18  19
ATOM     19  S1  NON d   1     -47.018  16.703  -5.809  0.00  0.00    -0.182 SA
ATOM     20  H13 NON d   1     -47.833  17.703  -5.439  0.00  0.00     0.101 HD
ENDBRANCH  18  19
ENDBRANCH  17  18
ENDBRANCH  16  17
ENDBRANCH  15  16
ENDBRANCH  14  15
ENDBRANCH   1  14
BRANCH   1  21
ATOM     21  C8  NON d   1     -39.957  19.185  -4.025  0.00  0.00     0.240 C 
ATOM     22  O2  NON d   1     -39.197  18.222  -4.233  0.00  0.00    -0.271 OA
ATOM     23  N2  NON d   1     -39.996  20.189  -4.964  0.00  0.00    -0.355 N 
ATOM     24  H14 NON d   1     -40.620  20.975  -4.855  0.00  0.00     0.162 HD
BRANCH  23  25
ATOM     25  C9  NON d   1     -39.446  19.897  -6.286  0.00  0.00     0.084 C 
ATOM     26  C10 NON d   1     -39.971  18.612  -6.909  0.00  0.00     0.025 C 
ATOM     27  C11 NON d   1     -39.565  18.739  -8.375  0.00  0.00     0.002 C 
ATOM     28  C12 NON d   1     -39.603  20.232  -8.690  0.00  0.00     0.002 C 
ATOM     29  C13 NON d   1     -39.764  20.948  -7.351  0.00  0.00     0.025 C 
ENDBRANCH  23  25
ENDBRANCH   1  21
TORSDOF 12
ENDMDL
MODEL 2
REMARK VINA RESULT:   -14.789      1.689      6.810
REMARK INTER + INTRA:         -20.607
REMARK INTER:                 -18.369
REMARK INTRA:                  -2.239
REMARK CONF_INDEPENDENT:        3.580
REMARK UNBOUND:                -2.239
REMARK  12 active torsions:
REMARK  status: ('A' for Active; 'I' for Inactive)
REMARK       I    between atoms: C1_2  and  N1_3 
REMARK    1  A    between atoms: C1_2  and  O3_19 
REMARK    2  A    between atoms: C2_4  and  N1_3 
REMARK    3  A    between atoms: C2_4  and  C3_5 
REMARK    4  A    between atoms: C2_4  and  C8_11 
REMARK    5  A    between atoms: C3_5  and  C4_6 
REMARK    6  A    between atoms: C4_6  and  C5_7 
REMARK    7  A    between atoms: C5_7  and  C6_8 
REMARK    8  A    between atoms: C6_8  and  C7_9 
REMARK    9  A    between atoms: C7_9  and  S1_10 
REMARK       I    between atoms: C8_11  and  N2_13 
REMARK   10  A    between atoms: N2_13  and  C9_14 
REMARK   11  A    between atoms: O3_19  and  C14_20 
REMARK   12  A    between atoms: C14_20  and  C15_21 
ROOT
ATOM      1  C2  NON d   1     -40.904  19.312  -3.873  0.00  0.00     0.178 C 
ENDROOT
BRANCH   1   2
ATOM      2  N1  NON d   1     -41.248  19.913  -5.155  0.00  0.00    -0.324 N 
ATOM      3  C1  NON d   1     -41.115  19.122  -6.276  0.00  0.00     0.361 C 
ATOM      4  O1  NON d   1     -40.869  17.918  -6.224  0.00  0.00    -0.238 OA
ATOM      5  H1  NON d   1     -41.196  20.910  -5.312  0.00  0.00     0.165 HD
BRANCH   3   6
ATOM      6  O3  NON d   1     -41.264  19.831  -7.418  0.00  0.00    -0.299 OA
BRANCH   6   7
ATOM      7  C14 NON d   1     -40.066  20.430  -7.937  0.00  0.00     0.219 C 
BRANCH   7   8
ATOM      8  C15 NON d   1     -38.772  19.741  -7.536  0.00  0.00    -0.034 A 
ATOM      9  C16 NON d   1     -38.214  20.022  -6.273  0.00  0.00     0.009 A 
ATOM     10  C17 NON d   1     -37.079  19.344  -5.812  0.00  0.00     0.001 A 
ATOM     11  C18 NON d   1     -36.497  18.360  -6.597  0.00  0.00     0.000 A 
ATOM     12  C19 NON d   1     -37.039  18.061  -7.852  0.00  0.00     0.001 A 
ATOM     13  C20 NON d   1     -38.175  18.742  -8.314  0.00  0.00     0.009 A 
ENDBRANCH   7   8
ENDBRANCH   6   7
ENDBRANCH   3   6
ENDBRANCH   1   2
BRANCH   1  14
ATOM     14  C3  NON d   1     -41.548  18.331  -2.805  0.00  0.00     0.035 C 
BRANCH  14  15
ATOM     15  C4  NON d   1     -42.494  17.260  -3.510  0.00  0.00     0.002 C 
BRANCH  15  16
ATOM     16  C5  NON d   1     -43.730  17.827  -4.268  0.00  0.00     0.001 C 
BRANCH  16  17
ATOM     17  C6  NON d   1     -45.026  17.004  -4.221  0.00  0.00     0.010 C 
BRANCH  17  18
ATOM     18  C7  NON d   1     -45.939  17.162  -5.436  0.00  0.00     0.070 C 
BRANCH  18  19
ATOM     19  S1  NON d   1     -47.078  15.770  -5.644  0.00  0.00    -0.182 SA
ATOM     20  H13 NON d   1     -47.061  15.765  -6.986  0.00  0.00     0.101 HD
ENDBRANCH  18  19
ENDBRANCH  17  18
ENDBRANCH  16  17
ENDBRANCH  15  16
ENDBRANCH  14  15
ENDBRANCH   1  14
BRANCH   1  21
ATOM     21  C8  NON d   1     -40.142  20.428  -3.134  0.00  0.00     0.240 C 
ATOM     22  O2  NON d   1     -40.035  21.536  -3.688  0.00  0.00    -0.271 OA
ATOM     23  N2  NON d   1     -39.732  20.322  -1.825  0.00  0.00    -0.355 N 
ATOM     24  H14 NON d   1     -39.829  19.451  -1.322  0.00  0.00     0.162 HD
BRANCH  23  25
ATOM     25  C9  NON d   1     -39.555  21.561  -1.072  0.00  0.00     0.084 C 
ATOM     26  C10 NON d   1     -40.682  22.567  -1.253  0.00  0.00     0.025 C 
ATOM     27  C11 NON d   1     -40.460  23.555  -0.110  0.00  0.00     0.002 C 
ATOM     28  C12 NON d   1     -39.860  22.741   1.034  0.00  0.00     0.002 C 
ATOM     29  C13 NON d   1     -39.501  21.377   0.446  0.00  0.00     0.025 C 
ENDBRANCH  23  25
ENDBRANCH   1  21
TORSDOF 12
ENDMDL
MODEL 3
REMARK VINA RESULT:   -14.688      4.157      8.085
REMARK INTER + INTRA:         -20.378
REMARK INTER:                 -18.268
REMARK INTRA:                  -2.111
REMARK CONF_INDEPENDENT:        3.580
REMARK UNBOUND:                -2.111
REMARK  12 active torsions:
REMARK  status: ('A' for Active; 'I' for Inactive)
REMARK       I    between atoms: C1_2  and  N1_3 
REMARK    1  A    between atoms: C1_2  and  O3_19 
REMARK    2  A    between atoms: C2_4  and  N1_3 
REMARK    3  A    between atoms: C2_4  and  C3_5 
REMARK    4  A    between atoms: C2_4  and  C8_11 
REMARK    5  A    between atoms: C3_5  and  C4_6 
REMARK    6  A    between atoms: C4_6  and  C5_7 
REMARK    7  A    between atoms: C5_7  and  C6_8 
REMARK    8  A    between atoms: C6_8  and  C7_9 
REMARK    9  A    between atoms: C7_9  and  S1_10 
REMARK       I    between atoms: C8_11  and  N2_13 
REMARK   10  A    between atoms: N2_13  and  C9_14 
REMARK   11  A    between atoms: O3_19  and  C14_20 
REMARK   12  A    between atoms: C14_20  and  C15_21 
ROOT
ATOM      1  C2  NON d   1     -44.191  18.032  -4.675  0.00  0.00     0.178 C 
ENDROOT
BRANCH   1   2
ATOM      2  N1  NON d   1     -44.788  16.733  -4.954  0.00  0.00    -0.324 N 
ATOM      3  C1  NON d   1     -45.971  16.724  -5.662  0.00  0.00     0.361 C 
ATOM      4  O1  NON d   1     -46.450  17.729  -6.185  0.00  0.00    -0.238 OA
ATOM      5  H1  NON d   1     -44.622  15.928  -4.366  0.00  0.00     0.165 HD
BRANCH   3   6
ATOM      6  O3  NON d   1     -46.537  15.495  -5.690  0.00  0.00    -0.299 OA
BRANCH   6   7
ATOM      7  C14 NON d   1     -47.961  15.464  -5.497  0.00  0.00     0.219 C 
BRANCH   7   8
ATOM      8  C15 NON d   1     -48.427  15.740  -4.077  0.00  0.00    -0.034 A 
ATOM      9  C16 NON d   1     -47.631  16.553  -3.245  0.00  0.00     0.009 A 
ATOM     10  C17 NON d   1     -48.060  16.921  -1.963  0.00  0.00     0.001 A 
ATOM     11  C18 NON d   1     -49.298  16.500  -1.503  0.00  0.00     0.000 A 
ATOM     12  C19 NON d   1     -50.106  15.698  -2.316  0.00  0.00     0.001 A 
ATOM     13  C20 NON d   1     -49.676  15.328  -3.599  0.00  0.00     0.009 A 
ENDBRANCH   7   8
ENDBRANCH   6   7
ENDBRANCH   3   6
ENDBRANCH   1   2
BRANCH   1  14
ATOM     14  C3  NON d   1     -43.915  19.402  -5.426  0.00  0.00     0.035 C 
BRANCH  14  15
ATOM     15  C4  NON d   1     -42.438  19.440  -6.023  0.00  0.00     0.002 C 
BRANCH  15  16
ATOM     16  C5  NON d   1     -41.499  20.550  -5.465  0.00  0.00     0.001 C 
BRANCH  16  17
ATOM     17  C6  NON d   1     -40.092  20.655  -6.072  0.00  0.00     0.010 C 
BRANCH  17  18
ATOM     18  C7  NON d   1     -40.019  21.366  -7.422  0.00  0.00     0.070 C 
BRANCH  18  19
ATOM     19  S1  NON d   1     -40.824  20.435  -8.750  0.00  0.00    -0.182 SA
ATOM     20  H13 NON d   1     -40.743  21.401  -9.678  0.00  0.00     0.101 HD
ENDBRANCH  18  19
ENDBRANCH  17  18
ENDBRANCH  16  17
ENDBRANCH  15  16
ENDBRANCH  14  15
ENDBRANCH   1  14
BRANCH   1  21
ATOM     21  C8  NON d   1     -42.986  17.700  -3.776  0.00  0.00     0.240 C 
ATOM     22  O2  NON d   1     -42.620  16.514  -3.694  0.00  0.00    -0.271 OA
ATOM     23  N2  NON d   1     -42.185  18.661  -3.204  0.00  0.00    -0.355 N 
ATOM     24  H14 NON d   1     -42.423  19.641  -3.272  0.00  0.00     0.162 HD
BRANCH  23  25
ATOM     25  C9  NON d   1     -40.811  18.286  -2.877  0.00  0.00     0.084 C 
ATOM     26  C10 NON d   1     -39.940  17.990  -4.089  0.00  0.00     0.025 C 
ATOM     27  C11 NON d   1     -38.523  18.010  -3.518  0.00  0.00     0.002 C 
ATOM     28  C12 NON d   1     -38.548  19.026  -2.379  0.00  0.00     0.002 C 
ATOM     29  C13 NON d   1     -40.017  19.367  -2.141  0.00  0.00     0.025 C 
ENDBRANCH  23  25
ENDBRANCH   1  21
TORSDOF 12
ENDMDL
MODEL 4
REMARK VINA RESULT:   -14.567      1.818      2.594
REMARK INTER + INTRA:         -20.476
REMARK INTER:                 -18.146
REMARK INTRA:                  -2.330
REMARK CONF_INDEPENDENT:        3.580
REMARK UNBOUND:                -2.330
REMARK  12 active torsions:
REMARK  status: ('A' for Active; 'I' for Inactive)
REMARK       I    between atoms: C1_2  and  N1_3 
REMARK    1  A    between atoms: C1_2  and  O3_19 
REMARK    2  A    between atoms: C2_4  and  N1_3 
REMARK    3  A    between atoms: C2_4  and  C3_5 
REMARK    4  A    between atoms: C2_4  and  C8_11 
REMARK    5  A    between atoms: C3_5  and  C4_6 
REMARK    6  A    between atoms: C4_6  and  C5_7 
REMARK    7  A    between atoms: C5_7  and  C6_8 
REMARK    8  A    between atoms: C6_8  and  C7_9 
REMARK    9  A    between atoms: C7_9  and  S1_10 
REMARK       I    between atoms: C8_11  and  N2_13 
REMARK   10  A    between atoms: N2_13  and  C9_14 
REMARK   11  A    between atoms: O3_19  and  C14_20 
REMARK   12  A    between atoms: C14_20  and  C15_21 
ROOT
ATOM      1  C2  NON d   1     -41.612  18.408  -3.089  0.00  0.00     0.178 C 
ENDROOT
BRANCH   1   2
ATOM      2  N1  NON d   1     -40.408  18.794  -2.365  0.00  0.00    -0.324 N 
ATOM      3  C1  NON d   1     -39.199  18.425  -2.914  0.00  0.00     0.361 C 
ATOM      4  O1  NON d   1     -39.092  17.928  -4.034  0.00  0.00    -0.238 OA
ATOM      5  H1  NON d   1     -40.408  18.949  -1.367  0.00  0.00     0.165 HD
BRANCH   3   6
ATOM      6  O3  NON d   1     -38.167  18.652  -2.070  0.00  0.00    -0.299 OA
BRANCH   6   7
ATOM      7  C14 NON d   1     -37.713  20.013  -1.996  0.00  0.00     0.219 C 
BRANCH   7   8
ATOM      8  C15 NON d   1     -38.810  21.053  -1.841  0.00  0.00    -0.034 A 
ATOM      9  C16 NON d   1     -39.262  21.379  -0.546  0.00  0.00     0.009 A 
ATOM     10  C17 NON d   1     -40.199  22.398  -0.338  0.00  0.00     0.001 A 
ATOM     11  C18 NON d   1     -40.683  23.121  -1.418  0.00  0.00     0.000 A 
ATOM     12  C19 NON d   1     -40.244  22.817  -2.711  0.00  0.00     0.001 A 
ATOM     13  C20 NON d   1     -39.306  21.795  -2.919  0.00  0.00     0.009 A 
ENDBRANCH   7   8
ENDBRANCH   6   7
ENDBRANCH   3   6
ENDBRANCH   1   2
BRANCH   1  14
ATOM     14  C3  NON d   1     -42.510  17.118  -3.304  0.00  0.00     0.035 C 
BRANCH  14  15
ATOM     15  C4  NON d   1     -43.259  17.169  -4.709  0.00  0.00     0.002 C 
BRANCH  15  16
ATOM     16  C5  NON d   1     -44.752  17.611  -4.677  0.00  0.00     0.001 C 
BRANCH  16  17
ATOM     17  C6  NON d   1     -45.640  17.018  -3.572  0.00  0.00     0.010 C 
BRANCH  17  18
ATOM     18  C7  NON d   1     -46.787  16.137  -4.064  0.00  0.00     0.070 C 
BRANCH  18  19
ATOM     19  S1  NON d   1     -47.282  16.513  -5.765  0.00  0.00    -0.182 SA
ATOM     20  H13 NON d   1     -47.451  17.832  -5.581  0.00  0.00     0.101 HD
ENDBRANCH  18  19
ENDBRANCH  17  18
ENDBRANCH  16  17
ENDBRANCH  15  16
ENDBRANCH  14  15
ENDBRANCH   1  14
BRANCH   1  21
ATOM     21  C8  NON d   1     -41.506  19.174  -4.421  0.00  0.00     0.240 C 
ATOM     22  O2  NON d   1     -41.812  20.379  -4.434  0.00  0.00    -0.271 OA
ATOM     23  N2  NON d   1     -40.920  18.646  -5.548  0.00  0.00    -0.355 N 
ATOM     24  H14 NON d   1     -40.625  17.680  -5.574  0.00  0.00     0.162 HD
BRANCH  23  25
ATOM     25  C9  NON d   1     -40.367  19.583  -6.522  0.00  0.00     0.084 C 
ATOM     26  C10 NON d   1     -39.414  18.950  -7.525  0.00  0.00     0.025 C 
ATOM     27  C11 NON d   1     -39.294  20.012  -8.617  0.00  0.00     0.002 C 
ATOM     28  C12 NON d   1     -40.643  20.727  -8.652  0.00  0.00     0.002 C 
ATOM     29  C13 NON d   1     -41.410  20.255  -7.418  0.00  0.00     0.025 C 
ENDBRANCH  23  25
ENDBRANCH   1  21
TORSDOF 12
ENDMDL
MODEL 5
REMARK VINA RESULT:   -14.553      1.818      6.896
REMARK INTER + INTRA:         -20.075
REMARK INTER:                 -18.133
REMARK INTRA:                  -1.942
REMARK CONF_INDEPENDENT:        3.580
REMARK UNBOUND:                -1.942
REMARK  12 active torsions:
REMARK  status: ('A' for Active; 'I' for Inactive)
REMARK       I    between atoms: C1_2  and  N1_3 
REMARK    1  A    between atoms: C1_2  and  O3_19 
REMARK    2  A    between atoms: C2_4  and  N1_3 
REMARK    3  A    between atoms: C2_4  and  C3_5 
REMARK    4  A    between atoms: C2_4  and  C8_11 
REMARK    5  A    between atoms: C3_5  and  C4_6 
REMARK    6  A    between atoms: C4_6  and  C5_7 
REMARK    7  A    between atoms: C5_7  and  C6_8 
REMARK    8  A    between atoms: C6_8  and  C7_9 
REMARK    9  A    between atoms: C7_9  and  S1_10 
REMARK       I    between atoms: C8_11  and  N2_13 
REMARK   10  A    between atoms: N2_13  and  C9_14 
REMARK   11  A    between atoms: O3_19  and  C14_20 
REMARK   12  A    between atoms: C14_20  and  C15_21 
ROOT
ATOM      1  C2  NON d   1     -40.272  19.228  -4.008  0.00  0.00     0.178 C 
ENDROOT
BRANCH   1   2
ATOM      2  N1  NON d   1     -40.840  19.870  -5.186  0.00  0.00    -0.324 N 
ATOM      3  C1  NON d   1     -40.778  19.173  -6.373  0.00  0.00     0.361 C 
ATOM      4  O1  NON d   1     -40.410  18.002  -6.447  0.00  0.00    -0.238 OA
ATOM      5  H1  NON d   1     -40.907  20.875  -5.270  0.00  0.00     0.165 HD
BRANCH   3   6
ATOM      6  O3  NON d   1     -41.144  19.934  -7.430  0.00  0.00    -0.299 OA
BRANCH   6   7
ATOM      7  C14 NON d   1     -40.170  20.051  -8.479  0.00  0.00     0.219 C 
BRANCH   7   8
ATOM      8  C15 NON d   1     -39.759  21.473  -8.824  0.00  0.00    -0.034 A 
ATOM      9  C16 NON d   1     -39.234  21.738 -10.105  0.00  0.00     0.009 A 
ATOM     10  C17 NON d   1     -38.932  23.044 -10.510  0.00  0.00     0.001 A 
ATOM     11  C18 NON d   1     -39.170  24.106  -9.651  0.00  0.00     0.000 A 
ATOM     12  C19 NON d   1     -39.697  23.865  -8.378  0.00  0.00     0.001 A 
ATOM     13  C20 NON d   1     -39.997  22.556  -7.971  0.00  0.00     0.009 A 
ENDBRANCH   7   8
ENDBRANCH   6   7
ENDBRANCH   3   6
ENDBRANCH   1   2
BRANCH   1  14
ATOM     14  C3  NON d   1     -40.594  18.011  -3.043  0.00  0.00     0.035 C 
BRANCH  14  15
ATOM     15  C4  NON d   1     -42.159  17.900  -2.764  0.00  0.00     0.002 C 
BRANCH  15  16
ATOM     16  C5  NON d   1     -42.970  17.006  -3.748  0.00  0.00     0.001 C 
BRANCH  16  17
ATOM     17  C6  NON d   1     -44.134  17.664  -4.505  0.00  0.00     0.010 C 
BRANCH  17  18
ATOM     18  C7  NON d   1     -45.526  17.178  -4.103  0.00  0.00     0.070 C 
BRANCH  18  19
ATOM     19  S1  NON d   1     -46.523  16.654  -5.521  0.00  0.00    -0.182 SA
ATOM     20  H13 NON d   1     -47.433  17.637  -5.432  0.00  0.00     0.101 HD
ENDBRANCH  18  19
ENDBRANCH  17  18
ENDBRANCH  16  17
ENDBRANCH  15  16
ENDBRANCH  14  15
ENDBRANCH   1  14
BRANCH   1  21
ATOM     21  C8  NON d   1     -39.729  20.403  -3.172  0.00  0.00     0.240 C 
ATOM     22  O2  NON d   1     -39.633  21.518  -3.714  0.00  0.00    -0.271 OA
ATOM     23  N2  NON d   1     -39.517  20.327  -1.815  0.00  0.00    -0.355 N 
ATOM     24  H14 NON d   1     -39.614  19.449  -1.324  0.00  0.00     0.162 HD
BRANCH  23  25
ATOM     25  C9  NON d   1     -39.562  21.573  -1.055  0.00  0.00     0.084 C 
ATOM     26  C10 NON d   1     -40.688  22.512  -1.465  0.00  0.00     0.025 C 
ATOM     27  C11 NON d   1     -40.752  23.511  -0.311  0.00  0.00     0.002 C 
ATOM     28  C12 NON d   1     -40.342  22.732   0.936  0.00  0.00     0.002 C 
ATOM     29  C13 NON d   1     -39.797  21.393   0.446  0.00  0.00     0.025 C 
ENDBRANCH  23  25
ENDBRANCH   1  21
TORSDOF 12
ENDMDL
MODEL 6
REMARK VINA RESULT:   -14.505      1.686      2.722
REMARK INTER + INTRA:         -20.181
REMARK INTER:                 -18.085
REMARK INTRA:                  -2.097
REMARK CONF_INDEPENDENT:        3.580
REMARK UNBOUND:                -2.097
REMARK  12 active torsions:
REMARK  status: ('A' for Active; 'I' for Inactive)
REMARK       I    between atoms: C1_2  and  N1_3 
REMARK    1  A    between atoms: C1_2  and  O3_19 
REMARK    2  A    between atoms: C2_4  and  N1_3 
REMARK    3  A    between atoms: C2_4  and  C3_5 
REMARK    4  A    between atoms: C2_4  and  C8_11 
REMARK    5  A    between atoms: C3_5  and  C4_6 
REMARK    6  A    between atoms: C4_6  and  C5_7 
REMARK    7  A    between atoms: C5_7  and  C6_8 
REMARK    8  A    between atoms: C6_8  and  C7_9 
REMARK    9  A    between atoms: C7_9  and  S1_10 
REMARK       I    between atoms: C8_11  and  N2_13 
REMARK   10  A    between atoms: N2_13  and  C9_14 
REMARK   11  A    between atoms: O3_19  and  C14_20 
REMARK   12  A    between atoms: C14_20  and  C15_21 
ROOT
ATOM      1  C2  NON d   1     -41.415  20.112  -5.519  0.00  0.00     0.178 C 
ENDROOT
BRANCH   1   2
ATOM      2  N1  NON d   1     -40.330  20.731  -4.768  0.00  0.00    -0.324 N 
ATOM      3  C1  NON d   1     -39.655  19.935  -3.867  0.00  0.00     0.361 C 
ATOM      4  O1  NON d   1     -39.827  18.721  -3.782  0.00  0.00    -0.238 OA
ATOM      5  H1  NON d   1     -40.303  21.724  -4.584  0.00  0.00     0.165 HD
BRANCH   3   6
ATOM      6  O3  NON d   1     -38.814  20.652  -3.087  0.00  0.00    -0.299 OA
BRANCH   6   7
ATOM      7  C14 NON d   1     -38.978  20.476  -1.671  0.00  0.00     0.219 C 
BRANCH   7   8
ATOM      8  C15 NON d   1     -39.714  21.600  -0.961  0.00  0.00    -0.034 A 
ATOM      9  C16 NON d   1     -40.303  22.622  -1.733  0.00  0.00     0.009 A 
ATOM     10  C17 NON d   1     -41.076  23.628  -1.139  0.00  0.00     0.001 A 
ATOM     11  C18 NON d   1     -41.289  23.615   0.232  0.00  0.00     0.000 A 
ATOM     12  C19 NON d   1     -40.718  22.606   1.015  0.00  0.00     0.001 A 
ATOM     13  C20 NON d   1     -39.942  21.601   0.419  0.00  0.00     0.009 A 
ENDBRANCH   7   8
ENDBRANCH   6   7
ENDBRANCH   3   6
ENDBRANCH   1   2
BRANCH   1  14
ATOM     14  C3  NON d   1     -42.740  19.286  -5.236  0.00  0.00     0.035 C 
BRANCH  14  15
ATOM     15  C4  NON d   1     -42.405  17.767  -4.892  0.00  0.00     0.002 C 
BRANCH  15  16
ATOM     16  C5  NON d   1     -43.626  16.814  -4.729  0.00  0.00     0.001 C 
BRANCH  16  17
ATOM     17  C6  NON d   1     -44.740  17.253  -3.768  0.00  0.00     0.010 C 
BRANCH  17  18
ATOM     18  C7  NON d   1     -46.085  16.556  -3.971  0.00  0.00     0.070 C 
BRANCH  18  19
ATOM     19  S1  NON d   1     -46.706  16.709  -5.665  0.00  0.00    -0.182 SA
ATOM     20  H13 NON d   1     -46.429  18.015  -5.806  0.00  0.00     0.101 HD
ENDBRANCH  18  19
ENDBRANCH  17  18
ENDBRANCH  16  17
ENDBRANCH  15  16
ENDBRANCH  14  15
ENDBRANCH   1  14
BRANCH   1  21
ATOM     21  C8  NON d   1     -40.720  19.536  -6.766  0.00  0.00     0.240 C 
ATOM     22  O2  NON d   1     -41.138  19.879  -7.886  0.00  0.00    -0.271 OA
ATOM     23  N2  NON d   1     -39.554  18.808  -6.710  0.00  0.00    -0.355 N 
ATOM     24  H14 NON d   1     -39.158  18.533  -5.823  0.00  0.00     0.162 HD
BRANCH  23  25
ATOM     25  C9  NON d   1     -38.704  18.805  -7.898  0.00  0.00     0.084 C 
ATOM     26  C10 NON d   1     -38.392  20.191  -8.445  0.00  0.00     0.025 C 
ATOM     27  C11 NON d   1     -37.225  19.940  -9.397  0.00  0.00     0.002 C 
ATOM     28  C12 NON d   1     -36.446  18.770  -8.802  0.00  0.00     0.002 C 
ATOM     29  C13 NON d   1     -37.315  18.202  -7.682  0.00  0.00     0.025 C 
ENDBRANCH  23  25
ENDBRANCH   1  21
TORSDOF 12
ENDMDL
MODEL 7
REMARK VINA RESULT:   -13.990      1.641      6.359
REMARK INTER + INTRA:         -20.017
REMARK INTER:                 -17.570
REMARK INTRA:                  -2.447
REMARK CONF_INDEPENDENT:        3.580
REMARK UNBOUND:                -2.447
REMARK  12 active torsions:
REMARK  status: ('A' for Active; 'I' for Inactive)
REMARK       I    between atoms: C1_2  and  N1_3 
REMARK    1  A    between atoms: C1_2  and  O3_19 
REMARK    2  A    between atoms: C2_4  and  N1_3 
REMARK    3  A    between atoms: C2_4  and  C3_5 
REMARK    4  A    between atoms: C2_4  and  C8_11 
REMARK    5  A    between atoms: C3_5  and  C4_6 
REMARK    6  A    between atoms: C4_6  and  C5_7 
REMARK    7  A    between atoms: C5_7  and  C6_8 
REMARK    8  A    between atoms: C6_8  and  C7_9 
REMARK    9  A    between atoms: C7_9  and  S1_10 
REMARK       I    between atoms: C8_11  and  N2_13 
REMARK   10  A    between atoms: N2_13  and  C9_14 
REMARK   11  A    between atoms: O3_19  and  C14_20 
REMARK   12  A    between atoms: C14_20  and  C15_21 
ROOT
ATOM      1  C2  NON d   1     -40.151  18.337  -2.897  0.00  0.00     0.178 C 
ENDROOT
BRANCH   1   2
ATOM      2  N1  NON d   1     -39.208  18.037  -3.967  0.00  0.00    -0.324 N 
ATOM      3  C1  NON d   1     -37.867  18.061  -3.648  0.00  0.00     0.361 C 
ATOM      4  O1  NON d   1     -37.452  18.173  -2.496  0.00  0.00    -0.238 OA
ATOM      5  H1  NON d   1     -39.431  18.195  -4.939  0.00  0.00     0.165 HD
BRANCH   3   6
ATOM      6  O3  NON d   1     -37.082  17.970  -4.746  0.00  0.00    -0.299 OA
BRANCH   6   7
ATOM      7  C14 NON d   1     -36.971  19.167  -5.531  0.00  0.00     0.219 C 
BRANCH   7   8
ATOM      8  C15 NON d   1     -38.240  19.583  -6.258  0.00  0.00    -0.034 A 
ATOM      9  C16 NON d   1     -38.715  18.779  -7.313  0.00  0.00     0.009 A 
ATOM     10  C17 NON d   1     -39.929  19.059  -7.952  0.00  0.00     0.001 A 
ATOM     11  C18 NON d   1     -40.697  20.135  -7.532  0.00  0.00     0.000 A 
ATOM     12  C19 NON d   1     -40.247  20.942  -6.482  0.00  0.00     0.001 A 
ATOM     13  C20 NON d   1     -39.029  20.662  -5.844  0.00  0.00     0.009 A 
ENDBRANCH   7   8
ENDBRANCH   6   7
ENDBRANCH   3   6
ENDBRANCH   1   2
BRANCH   1  14
ATOM     14  C3  NON d   1     -41.650  18.001  -2.502  0.00  0.00     0.035 C 
BRANCH  14  15
ATOM     15  C4  NON d   1     -42.613  18.101  -3.768  0.00  0.00     0.002 C 
BRANCH  15  16
ATOM     16  C5  NON d   1     -43.617  16.928  -3.963  0.00  0.00     0.001 C 
BRANCH  16  17
ATOM     17  C6  NON d   1     -44.894  17.216  -4.766  0.00  0.00     0.010 C 
BRANCH  17  18
ATOM     18  C7  NON d   1     -46.157  16.532  -4.246  0.00  0.00     0.070 C 
BRANCH  18  19
ATOM     19  S1  NON d   1     -47.439  16.367  -5.514  0.00  0.00    -0.182 SA
ATOM     20  H13 NON d   1     -47.889  17.628  -5.433  0.00  0.00     0.101 HD
ENDBRANCH  18  19
ENDBRANCH  17  18
ENDBRANCH  16  17
ENDBRANCH  15  16
ENDBRANCH  14  15
ENDBRANCH   1  14
BRANCH   1  21
ATOM     21  C8  NON d   1     -39.856  19.807  -2.546  0.00  0.00     0.240 C 
ATOM     22  O2  NON d   1     -40.628  20.683  -2.975  0.00  0.00    -0.271 OA
ATOM     23  N2  NON d   1     -38.894  20.186  -1.639  0.00  0.00    -0.355 N 
ATOM     24  H14 NON d   1     -38.264  19.506  -1.238  0.00  0.00     0.162 HD
BRANCH  23  25
ATOM     25  C9  NON d   1     -39.069  21.472  -0.969  0.00  0.00     0.084 C 
ATOM     26  C10 NON d   1     -40.316  21.558  -0.100  0.00  0.00     0.025 C 
ATOM     27  C11 NON d   1     -40.066  22.798   0.755  0.00  0.00     0.002 C 
ATOM     28  C12 NON d   1     -38.554  22.867   0.956  0.00  0.00     0.002 C 
ATOM     29  C13 NON d   1     -37.948  21.838   0.005  0.00  0.00     0.025 C 
ENDBRANCH  23  25
ENDBRANCH   1  21
TORSDOF 12
ENDMDL
MODEL 8
REMARK VINA RESULT:   -13.837      2.258      6.352
REMARK INTER + INTRA:         -19.968
REMARK INTER:                 -17.417
REMARK INTRA:                  -2.552
REMARK CONF_INDEPENDENT:        3.580
REMARK UNBOUND:                -2.552
REMARK  12 active torsions:
REMARK  status: ('A' for Active; 'I' for Inactive)
REMARK       I    between atoms: C1_2  and  N1_3 
REMARK    1  A    between atoms: C1_2  and  O3_19 
REMARK    2  A    between atoms: C2_4  and  N1_3 
REMARK    3  A    between atoms: C2_4  and  C3_5 
REMARK    4  A    between atoms: C2_4  and  C8_11 
REMARK    5  A    between atoms: C3_5  and  C4_6 
REMARK    6  A    between atoms: C4_6  and  C5_7 
REMARK    7  A    between atoms: C5_7  and  C6_8 
REMARK    8  A    between atoms: C6_8  and  C7_9 
REMARK    9  A    between atoms: C7_9  and  S1_10 
REMARK       I    between atoms: C8_11  and  N2_13 
REMARK   10  A    between atoms: N2_13  and  C9_14 
REMARK   11  A    between atoms: O3_19  and  C14_20 
REMARK   12  A    between atoms: C14_20  and  C15_21 
ROOT
ATOM      1  C2  NON d   1     -40.549  18.610  -4.864  0.00  0.00     0.178 C 
ENDROOT
BRANCH   1   2
ATOM      2  N1  NON d   1     -40.722  18.498  -6.306  0.00  0.00    -0.324 N 
ATOM      3  C1  NON d   1     -39.756  19.076  -7.102  0.00  0.00     0.361 C 
ATOM      4  O1  NON d   1     -38.706  19.537  -6.658  0.00  0.00    -0.238 OA
ATOM      5  H1  NON d   1     -41.631  18.387  -6.731  0.00  0.00     0.165 HD
BRANCH   3   6
ATOM      6  O3  NON d   1     -40.114  19.090  -8.407  0.00  0.00    -0.299 OA
BRANCH   6   7
ATOM      7  C14 NON d   1     -40.839  20.253  -8.838  0.00  0.00     0.219 C 
BRANCH   7   8
ATOM      8  C15 NON d   1     -40.043  21.547  -8.841  0.00  0.00    -0.034 A 
ATOM      9  C16 NON d   1     -40.054  22.355  -7.686  0.00  0.00     0.009 A 
ATOM     10  C17 NON d   1     -39.262  23.507  -7.597  0.00  0.00     0.001 A 
ATOM     11  C18 NON d   1     -38.432  23.856  -8.651  0.00  0.00     0.000 A 
ATOM     12  C19 NON d   1     -38.402  23.065  -9.804  0.00  0.00     0.001 A 
ATOM     13  C20 NON d   1     -39.197  21.912  -9.894  0.00  0.00     0.009 A 
ENDBRANCH   7   8
ENDBRANCH   6   7
ENDBRANCH   3   6
ENDBRANCH   1   2
BRANCH   1  14
ATOM     14  C3  NON d   1     -40.929  17.802  -3.552  0.00  0.00     0.035 C 
BRANCH  14  15
ATOM     15  C4  NON d   1     -42.500  17.837  -3.293  0.00  0.00     0.002 C 
BRANCH  15  16
ATOM     16  C5  NON d   1     -43.386  17.097  -4.338  0.00  0.00     0.001 C 
BRANCH  16  17
ATOM     17  C6  NON d   1     -44.828  17.595  -4.521  0.00  0.00     0.010 C 
BRANCH  17  18
ATOM     18  C7  NON d   1     -45.901  16.509  -4.474  0.00  0.00     0.070 C 
BRANCH  18  19
ATOM     19  S1  NON d   1     -47.114  16.661  -5.809  0.00  0.00    -0.182 SA
ATOM     20  H13 NON d   1     -47.170  18.002  -5.805  0.00  0.00     0.101 HD
ENDBRANCH  18  19
ENDBRANCH  17  18
ENDBRANCH  16  17
ENDBRANCH  15  16
ENDBRANCH  14  15
ENDBRANCH   1  14
BRANCH   1  21
ATOM     21  C8  NON d   1     -40.705  20.117  -4.589  0.00  0.00     0.240 C 
ATOM     22  O2  NON d   1     -41.816  20.538  -4.222  0.00  0.00    -0.271 OA
ATOM     23  N2  NON d   1     -39.642  20.990  -4.552  0.00  0.00    -0.355 N 
ATOM     24  H14 NON d   1     -38.714  20.686  -4.809  0.00  0.00     0.162 HD
BRANCH  23  25
ATOM     25  C9  NON d   1     -39.796  22.205  -3.756  0.00  0.00     0.084 C 
ATOM     26  C10 NON d   1     -40.821  23.185  -4.306  0.00  0.00     0.025 C 
ATOM     27  C11 NON d   1     -41.064  24.137  -3.136  0.00  0.00     0.002 C 
ATOM     28  C12 NON d   1     -40.881  23.299  -1.873  0.00  0.00     0.002 C 
ATOM     29  C13 NON d   1     -40.282  21.968  -2.325  0.00  0.00     0.025 C 
ENDBRANCH  23  25
ENDBRANCH   1  21
TORSDOF 12
ENDMDL
MODEL 9
REMARK VINA RESULT:   -13.749      3.850      7.613
REMARK INTER + INTRA:         -20.104
REMARK INTER:                 -17.329
REMARK INTRA:                  -2.775
REMARK CONF_INDEPENDENT:        3.580
REMARK UNBOUND:                -2.775
REMARK  12 active torsions:
REMARK  status: ('A' for Active; 'I' for Inactive)
REMARK       I    between atoms: C1_2  and  N1_3 
REMARK    1  A    between atoms: C1_2  and  O3_19 
REMARK    2  A    between atoms: C2_4  and  N1_3 
REMARK    3  A    between atoms: C2_4  and  C3_5 
REMARK    4  A    between atoms: C2_4  and  C8_11 
REMARK    5  A    between atoms: C3_5  and  C4_6 
REMARK    6  A    between atoms: C4_6  and  C5_7 
REMARK    7  A    between atoms: C5_7  and  C6_8 
REMARK    8  A    between atoms: C6_8  and  C7_9 
REMARK    9  A    between atoms: C7_9  and  S1_10 
REMARK       I    between atoms: C8_11  and  N2_13 
REMARK   10  A    between atoms: N2_13  and  C9_14 
REMARK   11  A    between atoms: O3_19  and  C14_20 
REMARK   12  A    between atoms: C14_20  and  C15_21 
ROOT
ATOM      1  C2  NON d   1     -43.749  17.406  -4.397  0.00  0.00     0.178 C 
ENDROOT
BRANCH   1   2
ATOM      2  N1  NON d   1     -45.153  17.713  -4.641  0.00  0.00    -0.324 N 
ATOM      3  C1  NON d   1     -45.860  16.835  -5.434  0.00  0.00     0.361 C 
ATOM      4  O1  NON d   1     -45.408  15.755  -5.810  0.00  0.00    -0.238 OA
ATOM      5  H1  NON d   1     -45.510  18.657  -4.604  0.00  0.00     0.165 HD
BRANCH   3   6
ATOM      6  O3  NON d   1     -47.082  17.316  -5.759  0.00  0.00    -0.299 OA
BRANCH   6   7
ATOM      7  C14 NON d   1     -48.189  16.451  -5.459  0.00  0.00     0.219 C 
BRANCH   7   8
ATOM      8  C15 NON d   1     -48.576  16.381  -3.991  0.00  0.00    -0.034 A 
ATOM      9  C16 NON d   1     -47.695  16.913  -3.028  0.00  0.00     0.009 A 
ATOM     10  C17 NON d   1     -48.043  16.965  -1.673  0.00  0.00     0.001 A 
ATOM     11  C18 NON d   1     -49.286  16.506  -1.263  0.00  0.00     0.000 A 
ATOM     12  C19 NON d   1     -50.179  15.981  -2.203  0.00  0.00     0.001 A 
ATOM     13  C20 NON d   1     -49.828  15.927  -3.560  0.00  0.00     0.009 A 
ENDBRANCH   7   8
ENDBRANCH   6   7
ENDBRANCH   3   6
ENDBRANCH   1   2
BRANCH   1  14
ATOM     14  C3  NON d   1     -42.823  16.936  -3.198  0.00  0.00     0.035 C 
BRANCH  14  15
ATOM     15  C4  NON d   1     -41.827  18.097  -2.754  0.00  0.00     0.002 C 
BRANCH  15  16
ATOM     16  C5  NON d   1     -40.356  17.967  -3.248  0.00  0.00     0.001 C 
BRANCH  16  17
ATOM     17  C6  NON d   1     -39.381  19.091  -2.867  0.00  0.00     0.010 C 
BRANCH  17  18
ATOM     18  C7  NON d   1     -40.038  20.389  -2.400  0.00  0.00     0.070 C 
BRANCH  18  19
ATOM     19  S1  NON d   1     -40.749  21.346  -3.762  0.00  0.00    -0.182 SA
ATOM     20  H13 NON d   1     -41.841  20.583  -3.925  0.00  0.00     0.101 HD
ENDBRANCH  18  19
ENDBRANCH  17  18
ENDBRANCH  16  17
ENDBRANCH  15  16
ENDBRANCH  14  15
ENDBRANCH   1  14
BRANCH   1  21
ATOM     21  C8  NON d   1     -42.991  18.449  -5.239  0.00  0.00     0.240 C 
ATOM     22  O2  NON d   1     -43.354  19.637  -5.172  0.00  0.00    -0.271 OA
ATOM     23  N2  NON d   1     -41.826  18.169  -5.915  0.00  0.00    -0.355 N 
ATOM     24  H14 NON d   1     -41.474  17.224  -5.969  0.00  0.00     0.162 HD
BRANCH  23  25
ATOM     25  C9  NON d   1     -40.918  19.281  -6.183  0.00  0.00     0.084 C 
ATOM     26  C10 NON d   1     -39.551  18.859  -6.702  0.00  0.00     0.025 C 
ATOM     27  C11 NON d   1     -38.965  20.159  -7.250  0.00  0.00     0.002 C 
ATOM     28  C12 NON d   1     -40.154  20.970  -7.758  0.00  0.00     0.002 C 
ATOM     29  C13 NON d   1     -41.407  20.254  -7.258  0.00  0.00     0.025 C 
ENDBRANCH  23  25
ENDBRANCH   1  21
TORSDOF 12
ENDMDL
